@<TRIPOS>MOLECULE
tmp/3kxwA00.pdb
 218 207 0 0 0
SMALL
GASTEIGER

@<TRIPOS>ATOM
      1  N          9.4210   38.8310   26.3710 N.3   167  THR167     -0.1203
      2  CA         9.0460   38.2370   25.0940 C.3   167  THR167      0.1994
      3  C          9.4180   36.7720   25.0970 C.2   167  THR167      0.2618
      4  O         10.1540   36.3170   25.9750 O.2   167  THR167     -0.2717
      5  CB         9.7700   38.9050   23.9250 C.3   167  THR167      0.1784
      6  OG1       11.1820   38.7360   24.0910 O.3   167  THR167     -0.2211
      7  CG2        9.4460   40.3840   23.8710 C.3   167  THR167      0.0376
      8  N          8.9290   36.0290   24.1130 N.am  168  SER168     -0.1951
      9  CA         9.4200   34.6710   23.9200 C.3   168  SER168      0.1924
     10  C         10.7860   34.7630   23.2530 C.2   168  SER168      0.2314
     11  O         11.2200   35.8350   22.8000 O.2   168  SER168     -0.2863
     12  CB         8.4730   33.8510   23.0440 C.3   168  SER168      0.2116
     13  OG         8.4530   34.3650   21.7200 O.3   168  SER168     -0.2180
     14  N         -5.3910   50.6790   19.2610 N.3   189  ILE189     -0.1245
     15  CA        -6.1920   49.4520   19.2080 C.3   189  ILE189      0.1561
     16  C         -7.6970   49.7510   19.2130 C.2   189  ILE189      0.2260
     17  O         -8.4520   49.2490   18.3630 O.2   189  ILE189     -0.2867
     18  CB        -5.8430   48.5050   20.3900 C.3   189  ILE189      0.0252
     19  CG1       -4.3590   48.1050   20.3280 C.3   189  ILE189      0.0019
     20  CG2       -6.7580   47.2740   20.4120 C.3   189  ILE189      0.0019
     21  CD1       -3.8520   47.3700   21.5770 C.3   189  ILE189      0.0001
     22  N         -9.6450   49.0100   15.6670 N.3   193  PHE193     -0.1241
     23  CA       -10.6390   47.9340   15.7550 C.3   193  PHE193      0.1605
     24  C        -12.0900   48.4430   15.7200 C.2   193  PHE193      0.2264
     25  O        -13.0210   47.6690   15.8980 O.2   193  PHE193     -0.2867
     26  CB       -10.4180   47.0450   17.0030 C.3   193  PHE193      0.0534
     27  CG        -9.3370   45.9950   16.8180 C.ar  193  PHE193     -0.0203
     28  CD1       -8.0070   46.3710   16.6050 C.ar  193  PHE193     -0.0042
     29  CD2       -9.6510   44.6400   16.8550 C.ar  193  PHE193     -0.0042
     30  CE1       -6.9950   45.4040   16.4080 C.ar  193  PHE193     -0.0003
     31  CE2       -8.6420   43.6660   16.6720 C.ar  193  PHE193     -0.0003
     32  CZ        -7.3240   44.0650   16.4530 C.ar  193  PHE193     -0.0000
     33  N        -15.4210   41.9680   24.1730 N.3   200  ILE200     -0.1245
     34  CA       -14.2630   41.1790   23.8000 C.3   200  ILE200      0.1561
     35  C        -14.2710   39.8380   24.5090 C.2   200  ILE200      0.2260
     36  O        -14.5210   39.7710   25.7140 O.2   200  ILE200     -0.2867
     37  CB       -12.9620   41.9430   24.1130 C.3   200  ILE200      0.0252
     38  CG1      -12.9120   43.2500   23.3000 C.3   200  ILE200      0.0019
     39  CG2      -11.7440   41.0480   23.8800 C.3   200  ILE200      0.0019
     40  CD1      -11.6950   44.1390   23.6280 C.3   200  ILE200      0.0001
     41  N          1.4000   37.1660   27.7450 N.3   208  HIS208     -0.1226
     42  CA         1.9180   37.5570   26.4320 C.3   208  HIS208      0.1752
     43  C          1.2230   38.8970   26.0960 C.2   208  HIS208      0.2596
     44  O          0.0980   39.1350   26.5200 O.2   208  HIS208     -0.2718
     45  CB         1.5650   36.4640   25.4210 C.3   208  HIS208      0.0759
     46  CG         1.9210   36.7930   24.0040 C.ar  208  HIS208      0.0818
     47  ND1        1.0230   37.3640   23.1240 N.ar  208  HIS208     -0.2268
     48  CD2        3.0740   36.6250   23.3130 C.ar  208  HIS208      0.1154
     49  CE1        1.6070   37.5260   21.9490 C.ar  208  HIS208      0.1986
     50  NE2        2.8530   37.0890   22.0380 N.ar  208  HIS208     -0.2212
     51  N          1.9090   39.7790   25.3780 N.am  209  ASP209     -0.1974
     52  CA         1.3540   41.0830   25.0190 C.3   209  ASP209      0.1709
     53  C         -0.0870   41.0850   24.4590 C.2   209  ASP209      0.2293
     54  O         -0.9030   41.8680   24.9050 O.2   209  ASP209     -0.2864
     55  CB         2.2950   41.8530   24.0830 C.3   209  ASP209      0.1436
     56  CG         2.6670   41.0700   22.8450 C.2   209  ASP209      0.3671
     57  OD1        2.0040   40.0390   22.5650 O.co2 209  ASP209     -0.2456
     58  OD2        3.6170   41.5050   22.1420 O.co2 209  ASP209     -0.2456
     59  N         -4.0480   43.7990   24.3730 N.3   213  GLY213     -0.1210
     60  CA        -5.2190   43.7670   23.5220 C.3   213  GLY213      0.1956
     61  C         -6.5060   43.4030   24.2330 C.2   213  GLY213      0.2612
     62  O         -7.5160   44.0790   24.0690 O.2   213  GLY213     -0.2717
     63  N         -6.4950   42.3280   25.0050 N.am  214  CYS214     -0.1970
     64  CA        -7.7730   41.7540   25.4400 C.3   214  CYS214      0.1712
     65  C         -8.1570   42.0730   26.8960 C.2   214  CYS214      0.2296
     66  O         -9.2440   41.7310   27.3400 O.2   214  CYS214     -0.2864
     67  CB        -7.7730   40.2450   25.2080 C.3   214  CYS214      0.0983
     68  SG        -7.4970   39.8380   23.4720 S.3   214  CYS214     -0.0798
     69  N         -6.9340   47.1060   26.9770 N.3   217  THR217     -0.1218
     70  CA        -7.7450   47.9050   26.0580 C.3   217  THR217      0.1862
     71  C         -9.2240   48.0210   26.4890 C.2   217  THR217      0.2287
     72  O         -9.7640   49.1200   26.5160 O.2   217  THR217     -0.2866
     73  CB        -7.6170   47.4280   24.5950 C.3   217  THR217      0.1770
     74  OG1       -6.2410   47.5110   24.1930 O.3   217  THR217     -0.2211
     75  CG2       -8.4680   48.3020   23.6720 C.3   217  THR217      0.0375
     76  N        -15.4930   40.9970   19.2750 N.3   249  ILE249     -0.1245
     77  CA       -14.0700   40.9180   18.9610 C.3   249  ILE249      0.1561
     78  C        -13.4270   39.7750   19.7320 C.2   249  ILE249      0.2260
     79  O        -13.6100   39.6690   20.9280 O.2   249  ILE249     -0.2867
     80  CB       -13.3600   42.2220   19.3280 C.3   249  ILE249      0.0252
     81  CG1      -14.0340   43.3990   18.6080 C.3   249  ILE249      0.0019
     82  CG2      -11.8950   42.1520   18.9320 C.3   249  ILE249      0.0019
     83  CD1      -13.3400   44.7450   18.9200 C.3   249  ILE249      0.0001
     84  N         -9.5110   38.5120   15.0080 N.3   281  PHE281     -0.1241
     85  CA        -8.1520   38.9390   14.6620 C.3   281  PHE281      0.1605
     86  C         -7.1810   37.7640   14.6360 C.2   281  PHE281      0.2264
     87  O         -7.3940   36.7480   15.3050 O.2   281  PHE281     -0.2867
     88  CB        -7.6590   40.1010   15.5330 C.3   281  PHE281      0.0534
     89  CG        -7.5120   39.7450   16.9880 C.ar  281  PHE281     -0.0203
     90  CD1       -8.5360   40.0060   17.8900 C.ar  281  PHE281     -0.0042
     91  CD2       -6.3360   39.1670   17.4440 C.ar  281  PHE281     -0.0042
     92  CE1       -8.3980   39.6690   19.2390 C.ar  281  PHE281     -0.0003
     93  CE2       -6.1900   38.8310   18.7850 C.ar  281  PHE281     -0.0003
     94  CZ        -7.2040   39.0750   19.6770 C.ar  281  PHE281     -0.0000
     95  N         -3.0790   37.3320   14.5920 N.3   283  GLY283     -0.1210
     96  CA        -1.7540   37.9240   14.6930 C.3   283  GLY283      0.1956
     97  C         -0.8740   37.1700   15.6830 C.2   283  GLY283      0.2612
     98  O         -1.3850   36.3830   16.4820 O.2   283  GLY283     -0.2717
     99  N          0.4280   37.4670   15.6380 N.am  284  ALA284     -0.1965
    100  CA         1.4680   36.9790   16.5500 C.3   284  ALA284      0.1728
    101  C          2.3700   35.9450   15.8850 C.2   284  ALA284      0.2616
    102  O          3.4320   35.5860   16.4140 O.2   284  ALA284     -0.2715
    103  CB         0.9060   36.4570   17.8720 C.3   284  ALA284      0.0334
    104  N          1.9480   35.4760   14.7180 N.am  285  GLU285     -0.1964
    105  CA         2.7400   34.5190   13.9550 C.3   285  GLU285      0.1718
    106  C          2.2690   34.5560   12.5190 C.2   285  GLU285      0.2458
    107  O          1.2990   35.2330   12.2050 O.2   285  GLU285     -0.2730
    108  CB         2.5880   33.1080   14.5280 C.3   285  GLU285      0.0428
    109  CG         1.1960   32.5110   14.3220 C.3   285  GLU285      0.1163
    110  CD         1.0410   31.1790   15.0380 C.2   285  GLU285      0.3649
    111  OE1        1.8370   30.9090   15.9610 O.co2 285  GLU285     -0.2457
    112  OE2        0.1450   30.4080   14.6750 O.co2 285  GLU285     -0.2457
    113  N          2.9490   33.8280   11.6320 N.am  286  PRO286     -0.2716
    114  CA         2.5310   33.9740   10.2290 C.3   286  PRO286      0.1536
    115  C          1.0590   33.6400    9.9930 C.2   286  PRO286      0.2598
    116  O          0.5290   32.6620   10.4870 O.2   286  PRO286     -0.2715
    117  CB         3.4600   33.0180    9.4920 C.3   286  PRO286      0.0310
    118  CG         4.6870   33.0320   10.3180 C.3   286  PRO286      0.0237
    119  CD         4.1990   33.0690   11.7480 C.3   286  PRO286      0.0939
    120  N          0.4080   34.5040    9.2380 N.am  287  VAL287     -0.1978
    121  CA        -1.0180   34.4090    8.9980 C.3   287  VAL287      0.1596
    122  C         -1.2590   33.6430    7.6750 C.2   287  VAL287      0.2287
    123  O         -0.6910   33.9930    6.6300 O.2   287  VAL287     -0.2864
    124  CB        -1.6000   35.8400    8.9470 C.3   287  VAL287      0.0276
    125  CG1       -3.0640   35.8280    8.4950 C.3   287  VAL287      0.0022
    126  CG2       -1.4020   36.5470   10.3130 C.3   287  VAL287      0.0022
    127  N         -3.2760   41.0360   11.5560 N.3   311  CYS311     -0.1221
    128  CA        -2.6080   42.2170   12.1080 C.3   311  CYS311      0.1808
    129  C         -1.2020   41.8280   12.5080 C.2   311  CYS311      0.2601
    130  O         -0.9160   40.6450   12.7200 O.2   311  CYS311     -0.2717
    131  CB        -3.3790   42.7850   13.3250 C.3   311  CYS311      0.0970
    132  SG        -3.9540   41.5820   14.5360 S.3   311  CYS311     -0.0800
    133  N         -0.3350   42.8230   12.6410 N.am  312  TYR312     -0.1962
    134  CA         1.0700   42.5680   12.9570 C.3   312  TYR312      0.1771
    135  C          1.4950   43.4730   14.1120 C.2   312  TYR312      0.2620
    136  O          1.0060   44.5820   14.2450 O.2   312  TYR312     -0.2715
    137  CB         1.9370   42.8570   11.7280 C.3   312  TYR312      0.0574
    138  CG         3.4190   43.0440   12.0400 C.ar  312  TYR312     -0.0198
    139  CD1        4.2590   41.9530   12.2020 C.ar  312  TYR312     -0.0009
    140  CD2        3.9670   44.3150   12.1720 C.ar  312  TYR312     -0.0009
    141  CE1        5.6200   42.1150   12.4800 C.ar  312  TYR312      0.0417
    142  CE2        5.3210   44.4720   12.4540 C.ar  312  TYR312      0.0417
    143  CZ         6.1330   43.3830   12.5910 C.ar  312  TYR312      0.1957
    144  OH         7.4720   43.5740   12.8710 O.3   312  TYR312     -0.2866
    145  N          2.3780   42.9720   14.9550 N.am  313  GLY313     -0.1940
    146  CA         2.9470   43.7910   16.0140 C.3   313  GLY313      0.2014
    147  C          3.9570   43.0050   16.8260 C.2   313  GLY313      0.2639
    148  O          4.2370   41.8380   16.5290 O.2   313  GLY313     -0.2714
    149  N          4.5130   43.6590   17.8360 N.am  314  LEU314     -0.1963
    150  CA         5.4850   43.0340   18.7340 C.3   314  LEU314      0.1728
    151  C          5.5880   43.8180   20.0290 C.2   314  LEU314      0.2616
    152  O          5.2130   44.9870   20.0860 O.2   314  LEU314     -0.2715
    153  CB         6.8660   42.8560   18.1100 C.3   314  LEU314      0.0311
    154  CG         7.6160   43.7910   17.1480 C.3   314  LEU314      0.0022
    155  CD1        6.9810   45.1560   16.8280 C.3   314  LEU314      0.0001
    156  CD2        9.1300   43.8600   17.4200 C.3   314  LEU314      0.0001
    157  N          6.1160   43.1680   21.0570 N.am  315  ALA315     -0.1963
    158  CA         6.1320   43.7560   22.3960 C.3   315  ALA315      0.1728
    159  C          6.9400   45.0490   22.4170 C.2   315  ALA315      0.2616
    160  O          6.6200   45.9650   23.1560 O.2   315  ALA315     -0.2715
    161  CB         6.6990   42.7770   23.3810 C.3   315  ALA315      0.0334
    162  N          7.9950   45.0950   21.6030 N.am  316  GLU316     -0.1977
    163  CA         8.8950   46.2610   21.5410 C.3   316  GLU316      0.1602
    164  C          8.1720   47.5110   21.0430 C.2   316  GLU316      0.2287
    165  O          8.6300   48.6390   21.2530 O.2   316  GLU316     -0.2864
    166  CB        10.1290   45.9600   20.6720 C.3   316  GLU316      0.0415
    167  CG        11.1410   45.0410   21.3480 C.3   316  GLU316      0.1163
    168  CD        10.8540   43.5660   21.1120 C.2   316  GLU316      0.3649
    169  OE1        9.6930   43.2320   20.7550 O.co2 316  GLU316     -0.2457
    170  OE2       11.7910   42.7370   21.2720 O.co2 316  GLU316     -0.2457
    171  N          2.2560   46.8790   21.1910 N.3   319  LEU319     -0.1231
    172  CA         1.5300   45.7610   20.6000 C.3   319  LEU319      0.1693
    173  C          1.2530   46.0010   19.1360 C.2   319  LEU319      0.2591
    174  O          1.9810   45.5070   18.2880 O.2   319  LEU319     -0.2718
    175  CB         0.2240   45.4750   21.3400 C.3   319  LEU319      0.0284
    176  CG        -0.5100   44.2080   20.8630 C.3   319  LEU319      0.0019
    177  CD1        0.2760   42.9540   21.2290 C.3   319  LEU319      0.0001
    178  CD2       -1.9040   44.1820   21.4800 C.3   319  LEU319      0.0001
    179  N          0.2080   46.7580   18.8370 N.am  320  LEU320     -0.1980
    180  CA        -0.3250   46.7900   17.4630 C.3   320  LEU320      0.1596
    181  C          0.4450   47.7390   16.5570 C.2   320  LEU320      0.2287
    182  O          0.5560   48.9200   16.8770 O.2   320  LEU320     -0.2864
    183  CB        -1.8080   47.1880   17.5010 C.3   320  LEU320      0.0297
    184  CG        -2.5320   47.3590   16.1720 C.3   320  LEU320      0.0022
    185  CD1       -2.6170   46.0110   15.3930 C.3   320  LEU320      0.0001
    186  CD2       -3.9200   47.9660   16.4180 C.3   320  LEU320      0.0001
    187  N         -0.9060   41.9060    6.3640 N.3   361  SER361     -0.1217
    188  CA        -1.1170   42.2470    7.7710 C.3   361  SER361      0.1889
    189  C         -1.7220   43.6500    7.9480 C.2   361  SER361      0.2288
    190  O         -1.8300   44.1400    9.0740 O.2   361  SER361     -0.2866
    191  CB         0.1790   42.1030    8.6000 C.3   361  SER361      0.2089
    192  OG         0.5370   40.7360    8.7470 O.3   361  SER361     -0.2183
    193  N         12.1280   41.4040   11.8140 N.3   424  ASP424     -0.1239
    194  CA        11.1860   40.8300   10.8530 C.3   424  ASP424      0.1674
    195  C         11.4490   41.3160    9.4290 C.2   424  ASP424      0.2266
    196  O         11.8110   42.4720    9.2290 O.2   424  ASP424     -0.2867
    197  CB         9.7570   41.2010   11.2510 C.3   424  ASP424      0.1410
    198  CG         9.3480   40.5920   12.5600 C.2   424  ASP424      0.3668
    199  OD1        9.6390   39.3980   12.7670 O.co2 424  ASP424     -0.2456
    200  OD2        8.7340   41.2980   13.3890 O.co2 424  ASP424     -0.2456
    201  N          4.3460   40.4360    5.7110 N.3   435  VAL435     -0.1245
    202  CA         5.4570   39.8710    6.4740 C.3   435  VAL435      0.1561
    203  C          5.9480   38.5840    5.7960 C.2   435  VAL435      0.2260
    204  O          5.1610   37.6970    5.4800 O.2   435  VAL435     -0.2867
    205  CB         5.0520   39.6060    7.9450 C.3   435  VAL435      0.0252
    206  CG1        6.2260   39.0190    8.7370 C.3   435  VAL435      0.0019
    207  CG2        4.5410   40.8770    8.5890 C.3   435  VAL435      0.0019
    208  N         11.7690   36.0470    9.1750 N.3   438  ARG438     -0.1245
    209  CA        12.6790   36.6550   10.1440 C.3   438  ARG438      0.1563
    210  C         14.0340   36.7840    9.4760 C.2   438  ARG438      0.2260
    211  O         14.3680   35.9860    8.6090 O.2   438  ARG438     -0.2867
    212  CB        12.8420   35.7600   11.3780 C.3   438  ARG438      0.0307
    213  CG        11.6020   35.5510   12.2330 C.3   438  ARG438      0.0489
    214  CD        11.3530   36.6980   13.1890 C.3   438  ARG438      0.2205
    215  NE        12.4800   36.9720   14.0970 N.pl3 438  ARG438     -0.0865
    216  CZ        12.6080   38.1010   14.8000 C.cat 438  ARG438      0.5346
    217  NH1       11.7010   39.0620   14.6940 N.pl3 438  ARG438      0.1354
    218  NH2       13.6510   38.2840   15.5930 N.pl3 438  ARG438      0.1354
@<TRIPOS>BOND
     1   204   203    2
     2   201   202    1
     3   203   202    1
     4   187   188    1
     5   202   205    1
     6   123   122    2
     7   122   121    1
     8   188   189    1
     9   188   191    1
    10   205   207    1
    11   205   206    1
    12   189   190    2
    13   125   124    1
    14   191   192    1
    15   211   210    2
    16   124   121    1
    17   124   126    1
    18   121   120    1
    19   208   209    1
    20   196   195    2
    21   120   115   am
    22   195   194    1
    23   210   209    1
    24   117   114    1
    25   117   118    1
    26   115   114    1
    27   115   116    2
    28   209   212    1
    29   114   113    1
    30   118   119    1
    31   194   197    1
    32   194   193    1
    33   197   198    1
    34   212   213    1
    35   127   128    1
    36   113   119    1
    37   113   106   am
    38   137   138    1
    39   137   134    1
    40   138   140   ar
    41   138   139   ar
    42   128   129    1
    43   128   131    1
    44   140   142   ar
    45   139   141   ar
    46   107   106    2
    47   213   214    1
    48   142   143   ar
    49   141   143   ar
    50   129   133   am
    51   129   130    2
    52   106   105    1
    53   198   199   ar
    54   198   200   ar
    55   143   144    1
    56   133   134    1
    57   134   135    1
    58   214   215    1
    59   131   132    1
    60   105   108    1
    61   105   104    1
    62   215   216    2
    63   135   136    2
    64   135   145   am
    65   109   108    1
    66   109   110    1
    67    95    96    1
    68    86    85    1
    69    86    87    2
    70    85    84    1
    71    85    88    1
    72   112   110   ar
    73    96    97    1
    74   217   216    1
    75   104   101   am
    76   216   218    1
    77   145   146    1
    78   110   111   ar
    79   185   184    1
    80    88    89    1
    81    99    97   am
    82    99   100    1
    83    22    23    1
    84    97    98    2
    85    24    23    1
    86    24    25    2
    87    23    26    1
    88   101   102    2
    89   101   100    1
    90   146   147    1
    91   184   186    1
    92   184   183    1
    93    30    32   ar
    94    30    28   ar
    95    32    31   ar
    96   148   147    2
    97   100   103    1
    98   181   182    2
    99   181   180    1
   100    28    27   ar
   101    31    29   ar
   102    27    29   ar
   103    27    26    1
   104   147   149   am
   105   155   154    1
   106    89    91   ar
   107    89    90   ar
   108   154   156    1
   109   154   153    1
   110    91    93   ar
   111   180   183    1
   112   180   179    1
   113   149   150    1
   114    90    92   ar
   115   153   150    1
   116   174   173    2
   117    17    16    2
   118    81    83    1
   119    81    80    1
   120   150   151    1
   121    93    94   ar
   122   179   173   am
   123    82    80    1
   124    77    76    1
   125    77    80    1
   126    77    78    1
   127   173   172    1
   128    15    16    1
   129    15    14    1
   130    15    18    1
   131    92    94   ar
   132    78    79    2
   133   151   152    2
   134   151   157   am
   135    19    18    1
   136    19    21    1
   137    18    20    1
   138   172   171    1
   139   172   175    1
   140   166   167    1
   141   166   163    1
   142   169   168   ar
   143   176   177    1
   144   176   175    1
   145   176   178    1
   146   164   165    2
   147   164   163    1
   148   157   158    1
   149   168   170   ar
   150   168   167    1
   151   163   162    1
   152   162   159   am
   153    13    12    1
   154    49    50   ar
   155    49    47   ar
   156    50    48   ar
   157    58    56   ar
   158   158   159    1
   159   158   161    1
   160   159   160    2
   161    57    56   ar
   162    11    10    2
   163    56    55    1
   164    12     9    1
   165    47    46   ar
   166    10     9    1
   167    38    40    1
   168    38    37    1
   169    48    46   ar
   170    68    67    1
   171    60    61    1
   172    60    59    1
   173    75    73    1
   174    34    37    1
   175    34    33    1
   176    34    35    1
   177     7     5    1
   178    39    37    1
   179     9     8    1
   180     5     6    1
   181     5     2    1
   182    46    45    1
   183    62    61    2
   184    55    52    1
   185     8     3   am
   186    74    73    1
   187    61    63   am
   188    53    54    2
   189    53    52    1
   190    35    36    2
   191    73    70    1
   192    63    64    1
   193    52    51    1
   194     2     3    1
   195     2     1    1
   196     3     4    2
   197    67    64    1
   198    51    43   am
   199    45    42    1
   200    64    65    1
   201    70    71    1
   202    70    69    1
   203    43    42    1
   204    43    44    2
   205    42    41    1
   206    71    72    2
   207    65    66    2
