@<TRIPOS>MOLECULE
tmp/3kxzA00.pdb
 184 172 0 0 0
SMALL
GASTEIGER

@<TRIPOS>ATOM
      1  N        -10.9320    6.9810   -0.7770 N.3    12  GLU12      -0.1245
      2  CA       -11.5690    5.6720   -0.8770 C.3    12  GLU12       0.1567
      3  C        -10.5820    4.5550   -0.5390 C.2    12  GLU12       0.2260
      4  O         -9.3970    4.6520   -0.8480 O.2    12  GLU12      -0.2867
      5  CB       -12.1310    5.4670   -2.2890 C.3    12  GLU12       0.0388
      6  CG       -13.0630    4.2620   -2.4260 C.3    12  GLU12       0.1160
      7  CD       -13.5520    4.0390   -3.8550 C.2    12  GLU12       0.3649
      8  OE1      -13.2290    4.8630   -4.7380 O.co2  12  GLU12      -0.2457
      9  OE2      -14.2590    3.0350   -4.0920 O.co2  12  GLU12      -0.2457
     10  N         -9.4190    0.6840   -1.1760 N.3    14  LEU14      -0.1231
     11  CA        -9.5360   -0.2040   -2.3240 C.3    14  LEU14       0.1693
     12  C         -9.3190   -1.6740   -1.9660 C.2    14  LEU14       0.2592
     13  O         -9.9880   -2.5530   -2.5100 O.2    14  LEU14      -0.2718
     14  CB        -8.5650    0.2340   -3.4240 C.3    14  LEU14       0.0284
     15  CG        -8.6430    1.7110   -3.8260 C.3    14  LEU14       0.0019
     16  CD1       -7.4530    2.1030   -4.6910 C.3    14  LEU14       0.0001
     17  CD2       -9.9470    2.0240   -4.5390 C.3    14  LEU14       0.0001
     18  N         -8.3860   -1.9330   -1.0530 N.am   15  GLY15      -0.1957
     19  CA        -8.0750   -3.2870   -0.6180 C.3    15  GLY15       0.1869
     20  C         -7.4520   -3.2900    0.7670 C.2    15  GLY15       0.2309
     21  O         -7.0670   -2.2350    1.2690 O.2    15  GLY15      -0.2863
     22  N         -4.8020   -0.4360    0.6170 N.3    22  VAL22      -0.1245
     23  CA        -4.5320    0.4260   -0.5190 C.3    22  VAL22       0.1561
     24  C         -5.6630    1.4380   -0.6280 C.2    22  VAL22       0.2260
     25  O         -6.8320    1.0730   -0.5520 O.2    22  VAL22      -0.2867
     26  CB        -4.4340   -0.3680   -1.8310 C.3    22  VAL22       0.0252
     27  CG1       -4.1970    0.5680   -3.0020 C.3    22  VAL22       0.0019
     28  CG2       -3.3310   -1.4070   -1.7430 C.3    22  VAL22       0.0019
     29  N         -2.3900    6.5570   -5.5500 N.3    34  ALA34      -0.1245
     30  CA        -2.7130    5.4210   -4.7090 C.3    34  ALA34       0.1562
     31  C         -1.7930    5.4600   -3.4980 C.2    34  ALA34       0.2260
     32  O         -0.6220    5.8290   -3.6140 O.2    34  ALA34      -0.2867
     33  CB        -2.5360    4.1330   -5.4750 C.3    34  ALA34       0.0290
     34  N         -0.4350    3.0770   -0.3080 N.3    36  LYS36      -0.1245
     35  CA        -0.3710    1.7940    0.3850 C.3    36  LYS36       0.1561
     36  C          0.0940    2.0050    1.8170 C.2    36  LYS36       0.2260
     37  O          1.1350    2.6160    2.0480 O.2    36  LYS36      -0.2867
     38  CB         0.5600    0.8200   -0.3370 C.3    36  LYS36       0.0271
     39  CG         0.7180   -0.5090    0.3830 C.3    36  LYS36       0.0035
     40  CD         1.6750   -1.4440   -0.3440 C.3    36  LYS36       0.0206
     41  CE         1.0100   -2.1240   -1.5300 C.3    36  LYS36       0.1093
     42  NZ         1.8380   -3.2570   -2.0320 N.3    36  LYS36      -0.1314
     43  N         10.1010   -2.3020   -1.0300 N.3    51  GLU51      -0.1245
     44  CA         9.4090   -2.2560   -2.3120 C.3    51  GLU51       0.1567
     45  C          9.6260   -0.9120   -3.0010 C.2    51  GLU51       0.2260
     46  O          9.8990   -0.8460   -4.1980 O.2    51  GLU51      -0.2867
     47  CB         7.9100   -2.5170   -2.1480 C.3    51  GLU51       0.0388
     48  CG         7.1660   -2.4870   -3.4740 C.3    51  GLU51       0.1160
     49  CD         5.6690   -2.6830   -3.3280 C.2    51  GLU51       0.3649
     50  OE1        5.1650   -2.6580   -2.1850 O.co2  51  GLU51      -0.2457
     51  OE2        4.9970   -2.8560   -4.3680 O.co2  51  GLU51      -0.2457
     52  N         11.3690    0.1990   -6.5680 N.3    55  MET55      -0.1245
     53  CA        10.6790    0.9500   -7.6050 C.3    55  MET55       0.1570
     54  C         11.4910    2.1660   -8.0590 C.2    55  MET55       0.2261
     55  O         11.3570    2.6120   -9.1980 O.2    55  MET55      -0.2867
     56  CB         9.2840    1.3650   -7.1290 C.3    55  MET55       0.0387
     57  CG         8.3970    0.1790   -6.7520 C.3    55  MET55       0.0595
     58  SD         6.7900    0.6380   -6.0610 S.3    55  MET55      -0.1393
     59  CE         5.9990    1.3910   -7.4830 C.3    55  MET55       0.0692
     60  N          4.2340    0.3310  -12.6410 N.3    64  VAL64      -0.1245
     61  CA         3.6620    1.3140  -11.7310 C.3    64  VAL64       0.1561
     62  C          4.7480    2.2360  -11.1780 C.2    64  VAL64       0.2260
     63  O          5.7980    1.7790  -10.7280 O.2    64  VAL64      -0.2867
     64  CB         2.8700    0.6400  -10.5910 C.3    64  VAL64       0.0252
     65  CG1        2.5210    1.6490   -9.5110 C.3    64  VAL64       0.0019
     66  CG2        1.6050    0.0010  -11.1460 C.3    64  VAL64       0.0019
     67  N          3.4710    4.0460    1.0690 N.3    77  ILE77      -0.1245
     68  CA         4.0520    4.1350   -0.2630 C.3    77  ILE77       0.1561
     69  C          3.0170    4.7900   -1.1730 C.2    77  ILE77       0.2260
     70  O          1.8670    4.3560   -1.2410 O.2    77  ILE77      -0.2867
     71  CB         4.4470    2.7590   -0.8270 C.3    77  ILE77       0.0252
     72  CG1        5.5340    2.1150    0.0350 C.3    77  ILE77       0.0019
     73  CG2        4.9360    2.8950   -2.2620 C.3    77  ILE77       0.0019
     74  CD1        5.7740    0.6520   -0.2790 C.3    77  ILE77       0.0001
     75  N          1.9680    6.1950   -4.9880 N.3    79  THR79      -0.1203
     76  CA         2.2920    5.8870   -6.3730 C.3    79  THR79       0.1994
     77  C          1.2750    6.4240   -7.3710 C.2    79  THR79       0.2618
     78  O          0.1720    6.8320   -7.0060 O.2    79  THR79      -0.2717
     79  CB         2.3630    4.3680   -6.5900 C.3    79  THR79       0.1784
     80  OG1        1.0330    3.8430   -6.6270 O.3    79  THR79      -0.2211
     81  CG2        3.1270    3.6870   -5.4670 C.3    79  THR79       0.0376
     82  N          1.6780    6.4130   -8.6360 N.am   80  GLU80      -0.1965
     83  CA         0.7780    6.5440   -9.7710 C.3    80  GLU80       0.1733
     84  C         -0.5560    5.8620   -9.4700 C.2    80  GLU80       0.2616
     85  O         -0.5910    4.8390   -8.7860 O.2    80  GLU80      -0.2715
     86  CB         1.4290    5.8510  -10.9670 C.3    80  GLU80       0.0429
     87  CG         0.8770    6.2340  -12.3120 C.3    80  GLU80       0.1163
     88  CD         1.6630    5.6070  -13.4500 C.2    80  GLU80       0.3649
     89  OE1        2.3740    4.6040  -13.2090 O.co2  80  GLU80      -0.2457
     90  OE2        1.5690    6.1160  -14.5890 O.co2  80  GLU80      -0.2457
     91  N         -1.6520    6.4100   -9.9870 N.am   81  TYR81      -0.1960
     92  CA        -2.9630    5.8020   -9.7540 C.3    81  TYR81       0.1771
     93  C         -3.5580    5.1080  -10.9870 C.2    81  TYR81       0.2619
     94  O         -3.6020    5.6810  -12.0770 O.2    81  TYR81      -0.2715
     95  CB        -3.9490    6.8200   -9.1840 C.3    81  TYR81       0.0574
     96  CG        -5.3080    6.2210   -8.9130 C.ar   81  TYR81      -0.0198
     97  CD1       -5.4740    5.2470   -7.9360 C.ar   81  TYR81      -0.0009
     98  CD2       -6.4230    6.6190   -9.6390 C.ar   81  TYR81      -0.0009
     99  CE1       -6.7150    4.6930   -7.6850 C.ar   81  TYR81       0.0417
    100  CE2       -7.6650    6.0680   -9.3970 C.ar   81  TYR81       0.0417
    101  CZ        -7.8040    5.1040   -8.4180 C.ar   81  TYR81       0.1957
    102  OH        -9.0410    4.5540   -8.1750 O.3    81  TYR81      -0.2866
    103  N         -4.0020    3.8660  -10.8030 N.am   82  MET82      -0.1963
    104  CA        -4.6230    3.1030  -11.8830 C.3    82  MET82       0.1736
    105  C         -6.1350    2.9980  -11.6630 C.2    82  MET82       0.2616
    106  O         -6.6110    2.2630  -10.7930 O.2    82  MET82      -0.2715
    107  CB        -3.9860    1.7150  -12.0160 C.3    82  MET82       0.0427
    108  CG        -2.4760    1.7360  -12.2600 C.3    82  MET82       0.0599
    109  SD        -1.9780    2.4330  -13.8550 S.3    82  MET82      -0.1393
    110  CE        -2.1960    1.0360  -14.9470 C.3    82  MET82       0.0692
    111  N         -6.8820    3.7490  -12.4650 N.am   83  GLU83      -0.1963
    112  CA        -8.3190    3.9050  -12.2750 C.3    83  GLU83       0.1733
    113  C         -9.0580    2.5670  -12.2470 C.2    83  GLU83       0.2616
    114  O         -9.9800    2.3800  -11.4540 O.2    83  GLU83      -0.2715
    115  CB        -8.8970    4.8090  -13.3710 C.3    83  GLU83       0.0429
    116  CG       -10.3170    5.3190  -13.1070 C.3    83  GLU83       0.1163
    117  CD       -10.3570    6.7590  -12.5930 C.2    83  GLU83       0.3649
    118  OE1       -9.5480    7.5910  -13.0650 O.co2  83  GLU83      -0.2457
    119  OE2      -11.2080    7.0620  -11.7260 O.co2  83  GLU83      -0.2457
    120  N         -8.6510    1.6390  -13.1090 N.am   84  ASN84      -0.1958
    121  CA        -9.3740    0.3750  -13.2560 C.3    84  ASN84       0.1819
    122  C         -8.9000   -0.7460  -12.3330 C.2    84  ASN84       0.2622
    123  O         -9.4010   -1.8700  -12.4010 O.2    84  ASN84      -0.2715
    124  CB        -9.3850   -0.0820  -14.7160 C.3    84  ASN84       0.1195
    125  CG       -10.3820    0.6940  -15.5600 C.2    84  ASN84       0.2630
    126  OD1      -11.4060    1.1580  -15.0600 O.2    84  ASN84      -0.2716
    127  ND2      -10.0900    0.8350  -16.8470 N.am   84  ASN84      -0.0877
    128  N         -7.9420   -0.4290  -11.4680 N.am   85  GLY85      -0.1940
    129  CA        -7.4920   -1.3580  -10.4480 C.3    85  GLY85       0.2014
    130  C         -6.9030   -2.6350  -11.0080 C.2    85  GLY85       0.2639
    131  O         -6.2720   -2.6250  -12.0620 O.2    85  GLY85      -0.2714
    132  N         -7.1340   -3.7360  -10.2980 N.am   86  SER86      -0.1949
    133  CA        -6.5240   -5.0300  -10.6010 C.3    86  SER86       0.1924
    134  C         -7.1110   -5.7260  -11.8330 C.2    86  SER86       0.2314
    135  O         -8.3280   -5.7440  -12.0310 O.2    86  SER86      -0.2863
    136  CB        -6.6320   -5.9520   -9.3850 C.3    86  SER86       0.2116
    137  OG        -6.2650   -7.2740   -9.7220 O.3    86  SER86      -0.2180
    138  N         -9.8420   -8.5130  -11.4060 N.3    89  ASP89      -0.1225
    139  CA       -11.1530   -7.9590  -11.1140 C.3    89  ASP89       0.1805
    140  C        -11.7340   -7.2560  -12.3310 C.2    89  ASP89       0.2597
    141  O        -12.8860   -7.4790  -12.6910 O.2    89  ASP89      -0.2718
    142  CB       -11.0720   -6.9960   -9.9270 C.3    89  ASP89       0.1424
    143  CG       -10.7430   -7.7050   -8.6240 C.2    89  ASP89       0.3668
    144  OD1      -10.7420   -8.9520   -8.6130 O.co2  89  ASP89      -0.2456
    145  OD2      -10.4870   -7.0190   -7.6120 O.co2  89  ASP89      -0.2456
    146  N        -10.9330   -6.4080  -12.9670 N.am   90  PHE90      -0.1976
    147  CA       -11.4250   -5.6340  -14.0970 C.3    90  PHE90       0.1639
    148  C        -11.9800   -6.5260  -15.1920 C.2    90  PHE90       0.2290
    149  O        -13.0330   -6.2440  -15.7600 O.2    90  PHE90      -0.2864
    150  CB       -10.3400   -4.7340  -14.6820 C.3    90  PHE90       0.0560
    151  CG       -10.7590   -4.0480  -15.9530 C.ar   90  PHE90      -0.0200
    152  CD1      -11.5830   -2.9280  -15.9150 C.ar   90  PHE90      -0.0042
    153  CD2      -10.3500   -4.5320  -17.1860 C.ar   90  PHE90      -0.0042
    154  CE1      -11.9810   -2.2950  -17.0860 C.ar   90  PHE90      -0.0003
    155  CE2      -10.7470   -3.9060  -18.3580 C.ar   90  PHE90      -0.0003
    156  CZ       -11.5610   -2.7840  -18.3090 C.ar   90  PHE90      -0.0000
    157  N        -15.6190   -7.2140  -14.7360 N.3    93  THR93      -0.1218
    158  CA       -16.5470   -6.0940  -14.8150 C.3    93  THR93       0.1862
    159  C        -17.2550   -6.1110  -16.1630 C.2    93  THR93       0.2287
    160  O        -16.7530   -6.7070  -17.1170 O.2    93  THR93      -0.2866
    161  CB       -15.8080   -4.7540  -14.6950 C.3    93  THR93       0.1770
    162  OG1      -15.0000   -4.5560  -15.8620 O.3    93  THR93      -0.2211
    163  CG2      -14.9290   -4.7310  -13.4510 C.3    93  THR93       0.0375
    164  N         -2.1460   -3.8950  -12.9700 N.3   134  LEU134     -0.1245
    165  CA        -3.1150   -2.8250  -12.7850 C.3   134  LEU134      0.1561
    166  C         -3.4990   -2.2010  -14.1240 C.2   134  LEU134      0.2260
    167  O         -2.6790   -2.1220  -15.0420 O.2   134  LEU134     -0.2867
    168  CB        -2.5900   -1.7820  -11.7940 C.3   134  LEU134      0.0270
    169  CG        -2.2180   -2.3650  -10.4250 C.3   134  LEU134      0.0019
    170  CD1       -1.6590   -1.2970   -9.5120 C.3   134  LEU134      0.0001
    171  CD2       -3.4200   -3.0470   -9.7740 C.3   134  LEU134      0.0001
    172  N          2.7970   -4.2850  -11.0990 N.3   144  ALA144     -0.1231
    173  CA         2.8820   -3.7280   -9.7610 C.3   144  ALA144      0.1694
    174  C          3.2960   -4.7850   -8.7570 C.2   144  ALA144      0.2592
    175  O          3.5350   -5.9390   -9.1110 O.2   144  ALA144     -0.2718
    176  CB         1.5560   -3.1250   -9.3550 C.3   144  ALA144      0.0304
    177  N          3.3890   -4.3820   -7.4960 N.am  145  ASP145     -0.1974
    178  CA         3.6540   -5.2910   -6.3820 C.3   145  ASP145      0.1709
    179  C          4.9960   -6.0120   -6.4390 C.2   145  ASP145      0.2293
    180  O          5.0600   -7.2240   -6.6550 O.2   145  ASP145     -0.2864
    181  CB         2.5180   -6.2950   -6.2340 C.3   145  ASP145      0.1436
    182  CG         2.3830   -6.8030   -4.8110 C.2   145  ASP145      0.3671
    183  OD1        3.3300   -6.5900   -4.0150 O.co2 145  ASP145     -0.2456
    184  OD2        1.3340   -7.4060   -4.4900 O.co2 145  ASP145     -0.2456
@<TRIPOS>BOND
     1   155   156   ar
     2   155   153   ar
     3   156   154   ar
     4   153   151   ar
     5   160   159    2
     6   154   152   ar
     7   127   125   am
     8   159   158    1
     9   151   152   ar
    10   151   150    1
    11   162   161    1
    12   149   148    2
    13   125   126    2
    14   125   124    1
    15   148   147    1
    16   167   166    2
    17   110   109    1
    18   158   157    1
    19   158   161    1
    20   124   121    1
    21   161   163    1
    22   150   147    1
    23    90    88   ar
    24   166   165    1
    25   147   146    1
    26   109   108    1
    27    88    89   ar
    28    88    87    1
    29   115   116    1
    30   115   112    1
    31   121   120    1
    32   121   122    1
    33   120   113   am
    34   116   117    1
    35   118   117   ar
    36   164   165    1
    37   146   140   am
    38   165   168    1
    39   141   140    2
    40    60    61    1
    41   117   119   ar
    42   111   112    1
    43   111   105   am
    44   123   122    2
    45   122   128   am
    46   140   139    1
    47    87    86    1
    48   112   113    1
    49   108   107    1
    50   113   114    2
    51    94    93    2
    52   131   130    2
    53   135   134    2
    54   107   104    1
    55   104   105    1
    56   104   103    1
    57   134   133    1
    58   168   169    1
    59    61    62    1
    60    61    64    1
    61   105   106    2
    62   128   129    1
    63   138   139    1
    64    62    63    2
    65    66    64    1
    66   139   142    1
    67   172   173    1
    68   130   129    1
    69   130   132   am
    70    93   103   am
    71    93    92    1
    72    86    83    1
    73   133   132    1
    74   133   136    1
    75    64    65    1
    76   169   171    1
    77   169   170    1
    78    91    92    1
    79    91    84   am
    80   142   143    1
    81    83    84    1
    82    83    82    1
    83   173   176    1
    84   173   174    1
    85    92    95    1
    86   137   136    1
    87    98   100   ar
    88    98    96   ar
    89    84    85    2
    90   100   101   ar
    91    55    54    2
    92    95    96    1
    93   175   174    2
    94    96    97   ar
    95   174   177   am
    96    82    77   am
    97   143   144   ar
    98   143   145   ar
    99   101   102    1
   100   101    99   ar
   101    54    53    1
   102    97    99   ar
   103    53    56    1
   104    53    52    1
   105   177   178    1
   106    59    58    1
   107    77    78    2
   108    77    76    1
   109    56    57    1
   110    57    58    1
   111   180   179    2
   112    80    79    1
   113    79    76    1
   114    79    81    1
   115   179   178    1
   116   178   181    1
   117    76    75    1
   118   181   182    1
   119    29    30    1
   120    33    30    1
   121   182   184   ar
   122   182   183   ar
   123     8     7   ar
   124    30    31    1
   125    16    15    1
   126    17    15    1
   127    51    49   ar
   128    46    45    2
   129     9     7   ar
   130     7     6    1
   131    15    14    1
   132    32    31    2
   133    48    49    1
   134    48    47    1
   135    14    11    1
   136    49    50   ar
   137    27    26    1
   138    45    44    1
   139    13    12    2
   140     6     5    1
   141    11    12    1
   142    11    10    1
   143    44    47    1
   144    44    43    1
   145     5     2    1
   146    73    71    1
   147    42    41    1
   148    12    18   am
   149    26    28    1
   150    26    23    1
   151    41    40    1
   152    70    69    2
   153    69    68    1
   154    18    19    1
   155     2     1    1
   156     2     3    1
   157     4     3    2
   158    71    68    1
   159    71    72    1
   160    24    25    2
   161    24    23    1
   162    19    20    1
   163    23    22    1
   164    40    39    1
   165    38    39    1
   166    38    35    1
   167    34    35    1
   168    74    72    1
   169    68    67    1
   170    35    36    1
   171    20    21    2
   172    36    37    2
