@<TRIPOS>MOLECULE
tmp/3kybB01.pdb
 147 146 0 0 0
SMALL
GASTEIGER

@<TRIPOS>ATOM
      1  N         46.3280   -5.6830   -2.6880 N.3    62  HIS62      -0.1241
      2  CA        46.7480   -5.2280   -1.3820 C.3    62  HIS62       0.1621
      3  C         47.5590   -6.2920   -0.6820 C.2    62  HIS62       0.2264
      4  O         47.2180   -7.4650   -0.7040 O.2    62  HIS62      -0.2867
      5  CB        45.5650   -4.8180   -0.4940 C.3    62  HIS62       0.0745
      6  CG        44.4410   -5.8080   -0.4830 C.ar   62  HIS62       0.0817
      7  ND1       44.4510   -6.9210    0.3370 N.ar   62  HIS62      -0.2268
      8  CD2       43.2640   -5.8520   -1.1730 C.ar   62  HIS62       0.1154
      9  CE1       43.3350   -7.6180    0.1420 C.ar   62  HIS62       0.1986
     10  NE2       42.5980   -6.9840   -0.7560 N.ar   62  HIS62      -0.2212
     11  N         31.8960    3.1240    4.8750 N.3    96  LEU96      -0.1231
     12  CA        32.2040    1.8100    5.4370 C.3    96  LEU96       0.1678
     13  C         33.7030    1.5720    5.2710 C.2    96  LEU96       0.2434
     14  O         34.3260    2.1670    4.4330 O.2    96  LEU96      -0.2733
     15  CB        31.4520    0.7140    4.7020 C.3    96  LEU96       0.0284
     16  CG        29.9310    0.5460    4.8740 C.3    96  LEU96       0.0019
     17  CD1       29.4110   -0.6870    4.1120 C.3    96  LEU96       0.0001
     18  CD2       29.4600    0.4430    6.3210 C.3    96  LEU96       0.0001
     19  N         34.2990    0.7130    6.0920 N.am   97  PRO97      -0.2729
     20  CA        33.7140   -0.0550    7.2290 C.3    97  PRO97       0.1401
     21  C         33.2530    0.9380    8.2780 C.2    97  PRO97       0.2269
     22  O         33.7320    2.1080    8.3160 O.2    97  PRO97      -0.2865
     23  CB        34.8930   -0.9190    7.7330 C.3    97  PRO97       0.0296
     24  CG        36.1440   -0.1630    7.2980 C.3    97  PRO97       0.0237
     25  CD        35.7610    0.5820    5.9760 C.3    97  PRO97       0.0939
     26  N         23.0980   -1.8990    9.3170 N.3   150  PHE150     -0.1241
     27  CA        24.3190   -2.2500    8.5510 C.3   150  PHE150      0.1605
     28  C         24.6500   -3.7340    8.4010 C.2   150  PHE150      0.2264
     29  O         25.4280   -4.0860    7.4830 O.2   150  PHE150     -0.2867
     30  CB        25.5190   -1.5460    9.2080 C.3   150  PHE150      0.0534
     31  CG        25.4800   -0.0600    9.0670 C.ar  150  PHE150     -0.0203
     32  CD1       25.3550    0.7510   10.1850 C.ar  150  PHE150     -0.0042
     33  CD2       25.5420    0.5370    7.7900 C.ar  150  PHE150     -0.0042
     34  CE1       25.3350    2.1710   10.0590 C.ar  150  PHE150     -0.0003
     35  CE2       25.5040    1.9620    7.6380 C.ar  150  PHE150     -0.0003
     36  CZ        25.4110    2.7860    8.8130 C.ar  150  PHE150     -0.0000
     37  N         22.2710   -6.9100    5.0360 N.3   154  TYR154     -0.1241
     38  CA        23.3730   -7.2100    4.0860 C.3   154  TYR154      0.1605
     39  C         23.8200   -8.7080    4.2390 C.2   154  TYR154      0.2264
     40  O         24.1170   -9.4050    3.2430 O.2   154  TYR154     -0.2867
     41  CB        24.5730   -6.2550    4.3770 C.3   154  TYR154      0.0534
     42  CG        25.5520   -6.1980    3.2360 C.ar  154  TYR154     -0.0201
     43  CD1       25.2030   -5.5170    2.0210 C.ar  154  TYR154     -0.0009
     44  CD2       26.7730   -6.8540    3.2960 C.ar  154  TYR154     -0.0009
     45  CE1       26.0570   -5.4830    0.9500 C.ar  154  TYR154      0.0417
     46  CE2       27.6640   -6.8230    2.1550 C.ar  154  TYR154      0.0417
     47  CZ        27.2740   -6.0860    1.0210 C.ar  154  TYR154      0.1957
     48  OH        28.0550   -6.0060   -0.1070 O.3   154  TYR154     -0.2866
     49  N         24.1200  -11.3420    1.3320 N.3   158  GLN158     -0.1231
     50  CA        25.4710  -11.8890    1.0550 C.3   158  GLN158      0.1698
     51  C         25.5520  -13.4210    1.2830 C.2   158  GLN158      0.2592
     52  O         26.1700  -14.1310    0.4920 O.2   158  GLN158     -0.2718
     53  CB        26.4300  -11.2980    2.1320 C.3   158  GLN158      0.0381
     54  CG        27.4610  -10.5080    1.5850 C.3   158  GLN158      0.0905
     55  CD        28.6410  -10.3290    2.5310 C.2   158  GLN158      0.2608
     56  OE1       29.7380  -10.2740    2.0490 O.2   158  GLN158     -0.2717
     57  NE2       28.4270  -10.2630    3.8330 N.am  158  GLN158     -0.0878
     58  N         25.0040  -13.8890    2.3960 N.am  159  TRP159     -0.1976
     59  CA        25.2240  -15.2720    2.8100 C.3   159  TRP159      0.1640
     60  C         24.0230  -16.1440    2.4660 C.2   159  TRP159      0.2290
     61  O         24.1390  -17.3640    2.4560 O.2   159  TRP159     -0.2864
     62  CB        25.3750  -15.3250    4.3240 C.3   159  TRP159      0.0576
     63  CG        26.6770  -14.9400    4.7920 C.ar  159  TRP159      0.0006
     64  CD1       27.0570  -13.6970    5.1180 C.ar  159  TRP159      0.0946
     65  CD2       27.7690  -15.8010    5.0740 C.ar  159  TRP159      0.0152
     66  NE1       28.3530  -13.6970    5.5540 N.ar  159  TRP159     -0.2442
     67  CE2       28.8190  -14.9870    5.5430 C.ar  159  TRP159      0.0810
     68  CE3       27.9550  -17.1960    5.0120 C.ar  159  TRP159      0.0012
     69  CZ2       30.0840  -15.5060    5.9280 C.ar  159  TRP159      0.0191
     70  CZ3       29.2110  -17.7310    5.3830 C.ar  159  TRP159      0.0001
     71  CH2       30.2620  -16.8750    5.8390 C.ar  159  TRP159      0.0015
     72  N         32.1590  -15.7970   14.0190 N.3   170  ILE170     -0.1245
     73  CA        32.3250  -15.2160   12.7340 C.3   170  ILE170      0.1561
     74  C         32.8090  -13.7690   12.8940 C.2   170  ILE170      0.2260
     75  O         33.5260  -13.2470   12.0420 O.2   170  ILE170     -0.2867
     76  CB        30.9640  -15.3370   11.9490 C.3   170  ILE170      0.0252
     77  CG1       31.1890  -15.8640   10.5640 C.3   170  ILE170      0.0019
     78  CG2       30.1320  -14.0710   11.9240 C.3   170  ILE170      0.0019
     79  CD1       32.6110  -15.7910   10.1490 C.3   170  ILE170      0.0001
     80  N         35.7300   -9.3780   16.8830 N.3   173  ARG173     -0.1245
     81  CA        36.0530   -8.0400   17.3820 C.3   173  ARG173      0.1563
     82  C         34.8630   -7.0990   17.2000 C.2   173  ARG173      0.2260
     83  O         34.1460   -7.1810   16.1870 O.2   173  ARG173     -0.2867
     84  CB        37.2240   -7.4730   16.5920 C.3   173  ARG173      0.0307
     85  CG        38.4470   -7.1350   17.4090 C.3   173  ARG173      0.0489
     86  CD        39.7120   -6.9280   16.4920 C.3   173  ARG173      0.2205
     87  NE        39.9380   -8.0660   15.5760 N.pl3 173  ARG173     -0.0865
     88  CZ        39.7680   -8.0490   14.2450 C.cat 173  ARG173      0.5346
     89  NH1       39.3680   -6.9360   13.5990 N.pl3 173  ARG173      0.1354
     90  NH2       40.0060   -9.1680   13.5600 N.pl3 173  ARG173      0.1354
     91  N         39.3710    0.8250    3.1770 N.3   184  TYR184     -0.1227
     92  CA        38.7860   -0.5160    3.3840 C.3   184  TYR184      0.1736
     93  C         39.8550   -1.5380    3.7500 C.2   184  TYR184      0.2595
     94  O         39.5910   -2.4660    4.5280 O.2   184  TYR184     -0.2718
     95  CB        38.1400   -0.9510    2.1010 C.3   184  TYR184      0.0548
     96  CG        37.1080   -2.0410    2.2090 C.ar  184  TYR184     -0.0200
     97  CD1       35.7770   -1.7120    2.4350 C.ar  184  TYR184     -0.0009
     98  CD2       37.4600   -3.4110    2.0690 C.ar  184  TYR184     -0.0009
     99  CE1       34.7800   -2.7170    2.5390 C.ar  184  TYR184      0.0417
    100  CE2       36.4830   -4.4230    2.1100 C.ar  184  TYR184      0.0417
    101  CZ        35.1250   -4.0360    2.3350 C.ar  184  TYR184      0.1957
    102  OH        34.1340   -4.9400    2.3690 O.3   184  TYR184     -0.2866
    103  N         41.0450   -1.4330    3.1340 N.am  185  PHE185     -0.1962
    104  CA        42.1530   -2.3660    3.4260 C.3   185  PHE185      0.1771
    105  C         43.2980   -1.6930    4.2380 C.2   185  PHE185      0.2620
    106  O         43.7310   -0.5760    3.9040 O.2   185  PHE185     -0.2715
    107  CB        42.6700   -2.8900    2.0910 C.3   185  PHE185      0.0574
    108  CG        41.6200   -3.6140    1.2810 C.ar  185  PHE185     -0.0200
    109  CD1       41.1720   -3.0960    0.1020 C.ar  185  PHE185     -0.0042
    110  CD2       41.0400   -4.8530    1.7590 C.ar  185  PHE185     -0.0042
    111  CE1       40.1870   -3.7730   -0.6820 C.ar  185  PHE185     -0.0003
    112  CE2       40.0240   -5.5270    1.0370 C.ar  185  PHE185     -0.0003
    113  CZ        39.5850   -4.9970   -0.1940 C.ar  185  PHE185     -0.0000
    114  N         43.7960   -2.3130    5.2910 N.am  186  ASN186     -0.1958
    115  CA        44.8890   -1.7120    6.0890 C.3   186  ASN186      0.1819
    116  C         46.3200   -2.0320    5.6690 C.2   186  ASN186      0.2621
    117  O         47.2370   -1.7280    6.3770 O.2   186  ASN186     -0.2715
    118  CB        44.8160   -2.2360    7.4960 C.3   186  ASN186      0.1195
    119  CG        43.4880   -1.9270    8.1520 C.2   186  ASN186      0.2630
    120  OD1       43.0640   -0.7620    8.1870 O.2   186  ASN186     -0.2716
    121  ND2       42.8370   -2.9540    8.6910 N.am  186  ASN186     -0.0877
    122  N         46.5030   -2.6800    4.5480 N.am  187  HIS187     -0.1973
    123  CA        47.7900   -3.1930    4.1150 C.3   187  HIS187      0.1656
    124  C         48.7150   -2.0430    3.7230 C.2   187  HIS187      0.2291
    125  O         48.3150   -0.9660    3.2510 O.2   187  HIS187     -0.2864
    126  CB        47.5860   -4.1330    2.9290 C.3   187  HIS187      0.0771
    127  CG        46.6150   -5.2360    3.2020 C.ar  187  HIS187      0.0820
    128  ND1       46.9610   -6.5890    3.1350 N.ar  187  HIS187     -0.2267
    129  CD2       45.3080   -5.2010    3.5700 C.ar  187  HIS187      0.1154
    130  CE1       45.9060   -7.3260    3.4400 C.ar  187  HIS187      0.1986
    131  NE2       44.8960   -6.5110    3.7200 N.ar  187  HIS187     -0.2212
    132  N         27.6240    0.0210   -1.6520 N.3   269  ASN269     -0.1240
    133  CA        26.9220   -1.0790   -0.9960 C.3   269  ASN269      0.1653
    134  C         25.5070   -0.5810   -0.6900 C.2   269  ASN269      0.2266
    135  O         25.3100    0.6020   -0.4250 O.2   269  ASN269     -0.2867
    136  CB        27.6080   -1.3420    0.3410 C.3   269  ASN269      0.1155
    137  CG        28.7800   -2.2840    0.2660 C.2   269  ASN269      0.2627
    138  OD1       29.4910   -2.3610   -0.7540 O.2   269  ASN269     -0.2716
    139  ND2       28.9940   -3.0510    1.3640 N.am  269  ASN269     -0.0877
    140  N         43.0630  -13.9780   -1.1250 N.3   350  ASP350     -0.1239
    141  CA        43.5460  -12.8210   -1.8680 C.3   350  ASP350      0.1674
    142  C         44.6020  -13.0960   -2.9350 C.2   350  ASP350      0.2266
    143  O         45.3030  -14.1180   -2.8910 O.2   350  ASP350     -0.2867
    144  CB        43.9840  -11.7280   -0.9110 C.3   350  ASP350      0.1410
    145  CG        42.7840  -11.1170   -0.1980 C.2   350  ASP350      0.3668
    146  OD1       41.7390  -10.8230   -0.8280 O.co2 350  ASP350     -0.2456
    147  OD2       42.8730  -10.9620    0.9980 O.co2 350  ASP350     -0.2456
@<TRIPOS>BOND
     1   142   143    2
     2   142   141    1
     3     1     2    1
     4   141   140    1
     5   141   144    1
     6   132   133    1
     7     2     3    1
     8     2     5    1
     9     8    10   ar
    10     8     6   ar
    11   133   134    1
    12   133   136    1
    13   144   145    1
    14   146   145   ar
    15    10     9   ar
    16   138   137    2
    17     4     3    2
    18   134   135    2
    19   111   113   ar
    20   111   109   ar
    21     5     6    1
    22     6     7   ar
    23   145   147   ar
    24   113   112   ar
    25    48    47    1
    26   109   108   ar
    27     9     7   ar
    28   137   136    1
    29   137   139   am
    30    52    51    2
    31    45    47   ar
    32    45    43   ar
    33    47    46   ar
    34   112   110   ar
    35    50    51    1
    36    50    49    1
    37    50    53    1
    38   108   110   ar
    39   108   107    1
    40    51    58   am
    41    54    53    1
    42    54    55    1
    43    43    42   ar
    44    56    55    2
    45    98   100   ar
    46    98    96   ar
    47   107   104    1
    48    95    96    1
    49    95    92    1
    50   100   101   ar
    51    46    44   ar
    52    96    97   ar
    53   101   102    1
    54   101    99   ar
    55    58    59    1
    56    97    99   ar
    57    61    60    2
    58    60    59    1
    59    55    57   am
    60    59    62    1
    61   126   127    1
    62   126   123    1
    63   103   104    1
    64   103    93   am
    65   128   127   ar
    66   128   130   ar
    67    91    92    1
    68   127   129   ar
    69    42    44   ar
    70    42    41    1
    71    40    39    2
    72   125   124    2
    73    92    93    1
    74   104   105    1
    75   130   131   ar
    76   129   131   ar
    77   124   123    1
    78    93    94    2
    79   106   105    2
    80    38    39    1
    81    38    41    1
    82    38    37    1
    83    17    16    1
    84   123   122    1
    85   105   114   am
    86    62    63    1
    87    14    13    2
    88   122   116   am
    89    15    16    1
    90    15    12    1
    91    63    65   ar
    92    63    64   ar
    93    16    18    1
    94    11    12    1
    95    68    65   ar
    96    68    70   ar
    97    65    67   ar
    98    64    66   ar
    99    13    12    1
   100    13    19   am
   101   114   115    1
   102    70    71   ar
   103    67    66   ar
   104    67    69   ar
   105   116   115    1
   106   116   117    2
   107    71    69   ar
   108    25    19    1
   109    25    24    1
   110   115   118    1
   111    19    20    1
   112    20    23    1
   113    20    21    1
   114    24    23    1
   115    29    28    2
   116   118   119    1
   117    35    33   ar
   118    35    36   ar
   119    33    31   ar
   120   119   120    2
   121   119   121   am
   122    21    22    2
   123    28    27    1
   124    27    30    1
   125    27    26    1
   126    36    34   ar
   127    31    30    1
   128    31    32   ar
   129    34    32   ar
   130    79    77    1
   131    77    76    1
   132    78    76    1
   133    76    73    1
   134    75    74    2
   135    73    74    1
   136    73    72    1
   137    90    88    1
   138    89    88    1
   139    88    87    2
   140    87    86    1
   141    83    82    2
   142    86    85    1
   143    84    81    1
   144    84    85    1
   145    80    81    1
   146    82    81    1
