@<TRIPOS>MOLECULE
tmp/3kybA01.pdb
 169 164 0 0 0
SMALL
GASTEIGER

@<TRIPOS>ATOM
      1  N         45.8180   13.5170    2.5990 N.3    83  ASN83      -0.1240
      2  CA        45.1990   14.4340    3.5470 C.3    83  ASN83       0.1653
      3  C         43.7140   14.3810    3.3240 C.2    83  ASN83       0.2266
      4  O         43.2320   14.6480    2.2000 O.2    83  ASN83      -0.2867
      5  CB        45.6810   15.8700    3.2690 C.3    83  ASN83       0.1155
      6  CG        45.4000   16.8420    4.4070 C.2    83  ASN83       0.2627
      7  OD1       44.9050   17.9330    4.1880 O.2    83  ASN83      -0.2716
      8  ND2       45.7240   16.4640    5.6010 N.am   83  ASN83      -0.0877
      9  N         40.4270   15.9500    5.2380 N.3    85  VAL85      -0.1245
     10  CA        40.0900   16.8950    6.2520 C.3    85  VAL85       0.1561
     11  C         38.6570   16.6550    6.7080 C.2    85  VAL85       0.2260
     12  O         37.7850   16.3740    5.8840 O.2    85  VAL85      -0.2867
     13  CB        40.2510   18.2920    5.6830 C.3    85  VAL85       0.0252
     14  CG1       39.7020   19.2740    6.6770 C.3    85  VAL85       0.0019
     15  CG2       41.7770   18.6630    5.4120 C.3    85  VAL85       0.0019
     16  N         34.1210   30.5370    8.8490 N.3   154  TYR154     -0.1241
     17  CA        35.4660   30.0050    8.8040 C.3   154  TYR154      0.1605
     18  C         36.3890   31.0240    8.1540 C.2   154  TYR154      0.2264
     19  O         37.5000   31.2650    8.6230 O.2   154  TYR154     -0.2867
     20  CB        35.4800   28.6880    7.9930 C.3   154  TYR154      0.0534
     21  CG        36.8250   28.0020    8.0120 C.ar  154  TYR154     -0.0201
     22  CD1       37.2460   27.2960    9.1330 C.ar  154  TYR154     -0.0009
     23  CD2       37.6600   28.0360    6.8980 C.ar  154  TYR154     -0.0009
     24  CE1       38.4870   26.6580    9.1710 C.ar  154  TYR154      0.0417
     25  CE2       38.9010   27.3610    6.9030 C.ar  154  TYR154      0.0417
     26  CZ        39.3130   26.6980    8.0590 C.ar  154  TYR154      0.1957
     27  OH        40.5410   26.0510    8.0870 O.3   154  TYR154     -0.2866
     28  N         39.6640   33.1880    9.5880 N.3   158  GLN158     -0.1231
     29  CA        40.9990   33.2030    8.9780 C.3   158  GLN158      0.1698
     30  C         41.4600   34.5920    8.5760 C.2   158  GLN158      0.2592
     31  O         42.6450   34.8850    8.6460 O.2   158  GLN158     -0.2718
     32  CB        41.0420   32.3320    7.7210 C.3   158  GLN158      0.0381
     33  CG        40.7090   30.8710    7.9580 C.3   158  GLN158      0.0905
     34  CD        41.2500   29.9670    6.8470 C.2   158  GLN158      0.2608
     35  OE1       42.0940   29.0810    7.1150 O.2   158  GLN158     -0.2717
     36  NE2       40.7860   30.1750    5.6040 N.am  158  GLN158     -0.0878
     37  N         40.5490   35.4360    8.0970 N.am  159  TRP159     -0.1976
     38  CA        40.9780   36.6720    7.4330 C.3   159  TRP159      0.1640
     39  C         40.7180   37.8400    8.2930 C.2   159  TRP159      0.2290
     40  O         41.2900   38.8920    8.0570 O.2   159  TRP159     -0.2864
     41  CB        40.2490   36.8930    6.1200 C.3   159  TRP159      0.0576
     42  CG        40.7750   35.9880    5.0210 C.ar  159  TRP159      0.0006
     43  CD1       40.4360   34.6940    4.7880 C.ar  159  TRP159      0.0946
     44  CD2       41.7580   36.3450    4.0190 C.ar  159  TRP159      0.0152
     45  NE1       41.1790   34.1880    3.7150 N.ar  159  TRP159     -0.2442
     46  CE2       41.9610   35.2050    3.2050 C.ar  159  TRP159      0.0810
     47  CE3       42.4650   37.5370    3.7160 C.ar  159  TRP159      0.0012
     48  CZ2       42.8180   35.2250    2.1070 C.ar  159  TRP159      0.0191
     49  CZ3       43.3540   37.5420    2.6160 C.ar  159  TRP159      0.0001
     50  CH2       43.5190   36.3910    1.8320 C.ar  159  TRP159      0.0015
     51  N         39.9570   33.6170   -3.7750 N.3   170  ILE170     -0.1245
     52  CA        40.1680   32.6580   -2.7080 C.3   170  ILE170      0.1561
     53  C         39.3410   31.3730   -2.8580 C.2   170  ILE170      0.2260
     54  O         39.8490   30.2720   -2.6300 O.2   170  ILE170     -0.2867
     55  CB        39.9310   33.3150   -1.3370 C.3   170  ILE170      0.0252
     56  CG1       40.9000   34.5030   -1.1590 C.3   170  ILE170      0.0019
     57  CG2       40.0230   32.2740   -0.1810 C.3   170  ILE170      0.0019
     58  CD1       40.2860   35.6820   -0.4540 C.3   170  ILE170      0.0001
     59  N         39.7310   28.7900   -6.1750 N.3   173  ARG173     -0.1245
     60  CA        40.6790   27.7010   -5.9050 C.3   173  ARG173      0.1563
     61  C         39.9790   26.3970   -5.5310 C.2   173  ARG173      0.2260
     62  O         40.5620   25.3300   -5.7180 O.2   173  ARG173     -0.2867
     63  CB        41.6460   28.0860   -4.7580 C.3   173  ARG173      0.0307
     64  CG        43.0350   28.5850   -5.2310 C.3   173  ARG173      0.0489
     65  CD        44.1060   28.6010   -4.1080 C.3   173  ARG173      0.2205
     66  NE        44.1850   29.8800   -3.3700 N.pl3 173  ARG173     -0.0865
     67  CZ        43.6010   30.1510   -2.1850 C.cat 173  ARG173      0.5346
     68  NH1       42.8400   29.2360   -1.5540 N.pl3 173  ARG173      0.1354
     69  NH2       43.7710   31.3620   -1.6180 N.pl3 173  ARG173      0.1354
     70  N         42.0440   15.8490   -0.0160 N.3   184  TYR184     -0.1227
     71  CA        42.0610   17.3170    0.0200 C.3   184  TYR184      0.1736
     72  C         42.8370   17.9480   -1.1710 C.2   184  TYR184      0.2595
     73  O         42.4390   18.9630   -1.7440 O.2   184  TYR184     -0.2718
     74  CB        42.6310   17.7870    1.3470 C.3   184  TYR184      0.0548
     75  CG        42.2250   19.1890    1.6870 C.ar  184  TYR184     -0.0200
     76  CD1       40.8810   19.4760    2.0680 C.ar  184  TYR184     -0.0009
     77  CD2       43.1510   20.2450    1.6070 C.ar  184  TYR184     -0.0009
     78  CE1       40.4850   20.7510    2.3850 C.ar  184  TYR184      0.0417
     79  CE2       42.7690   21.5350    1.8890 C.ar  184  TYR184      0.0417
     80  CZ        41.4320   21.8000    2.2880 C.ar  184  TYR184      0.1957
     81  OH        41.0240   23.1120    2.5570 O.3   184  TYR184     -0.2866
     82  N         43.9260   17.3180   -1.5700 N.am  185  PHE185     -0.1976
     83  CA        44.7570   17.8500   -2.6680 C.3   185  PHE185      0.1639
     84  C         44.5970   16.9680   -3.8870 C.2   185  PHE185      0.2290
     85  O         44.6170   15.7530   -3.7430 O.2   185  PHE185     -0.2864
     86  CB        46.2310   17.8110   -2.2310 C.3   185  PHE185      0.0560
     87  CG        46.4980   18.5990   -0.9700 C.ar  185  PHE185     -0.0200
     88  CD1       46.8450   17.9720    0.1990 C.ar  185  PHE185     -0.0042
     89  CD2       46.3330   19.9910   -0.9610 C.ar  185  PHE185     -0.0042
     90  CE1       47.0730   18.7200    1.3420 C.ar  185  PHE185     -0.0003
     91  CE2       46.5700   20.7250    0.1670 C.ar  185  PHE185     -0.0003
     92  CZ        46.9440   20.0790    1.3200 C.ar  185  PHE185     -0.0000
     93  N         48.4460   37.6070    8.3920 N.3   249  ARG249     -0.1245
     94  CA        47.8220   36.9490    9.5140 C.3   249  ARG249      0.1563
     95  C         48.8430   36.1630   10.2420 C.2   249  ARG249      0.2260
     96  O         49.6910   35.5650    9.6130 O.2   249  ARG249     -0.2867
     97  CB        46.7080   35.9790    9.0520 C.3   249  ARG249      0.0307
     98  CG        45.5220   36.7000    8.4090 C.3   249  ARG249      0.0489
     99  CD        44.2750   36.4840    9.3150 C.3   249  ARG249      0.2205
    100  NE        43.9740   37.7070    9.8670 N.pl3 249  ARG249     -0.0865
    101  CZ        43.1650   37.9660   10.8800 C.cat 249  ARG249      0.5346
    102  NH1       42.4370   37.0580   11.5470 N.pl3 249  ARG249      0.1354
    103  NH2       43.1150   39.2410   11.1780 N.pl3 249  ARG249      0.1354
    104  N         38.3490   20.8600   11.0290 N.3   269  ASN269     -0.1240
    105  CA        37.9440   22.2750   10.9380 C.3   269  ASN269      0.1653
    106  C         36.7160   22.5230   11.7820 C.2   269  ASN269      0.2266
    107  O         35.8850   21.6400   11.9170 O.2   269  ASN269     -0.2867
    108  CB        37.6590   22.7290    9.5110 C.3   269  ASN269      0.1155
    109  CG        38.8880   22.7560    8.6200 C.2   269  ASN269      0.2627
    110  OD1       39.9640   22.3600    8.9980 O.2   269  ASN269     -0.2716
    111  ND2       38.7110   23.2240    7.4170 N.am  269  ASN269     -0.0877
    112  N         40.6500   25.4450   13.8020 N.3   279  ARG279     -0.1245
    113  CA        40.7560   24.0060   13.7350 C.3   279  ARG279      0.1563
    114  C         41.5820   23.3740   14.8350 C.2   279  ARG279      0.2260
    115  O         42.2320   24.0970   15.5830 O.2   279  ARG279     -0.2867
    116  CB        41.2930   23.5570   12.3640 C.3   279  ARG279      0.0307
    117  CG        42.5930   24.0220   12.0400 C.3   279  ARG279      0.0489
    118  CD        42.9650   23.6170   10.6060 C.3   279  ARG279      0.2205
    119  NE        44.3730   23.8910   10.5400 N.pl3 279  ARG279     -0.0865
    120  CZ        45.1030   23.8430    9.4470 C.cat 279  ARG279      0.5346
    121  NH1       44.5490   23.4800    8.2870 N.pl3 279  ARG279      0.1354
    122  NH2       46.4060   24.1310    9.5430 N.pl3 279  ARG279      0.1354
    123  N         50.3470   33.9430    6.9260 N.3   313  TYR313     -0.1228
    124  CA        49.6890   34.2010    5.6330 C.3   313  TYR313      0.1721
    125  C         49.7320   35.6400    5.2540 C.2   313  TYR313      0.2437
    126  O         49.2560   36.5120    6.0030 O.2   313  TYR313     -0.2733
    127  CB        48.2370   33.7780    5.6360 C.3   313  TYR313      0.0547
    128  CG        48.0520   32.3520    5.9790 C.ar  313  TYR313     -0.0200
    129  CD1       47.6450   31.9790    7.2630 C.ar  313  TYR313     -0.0009
    130  CD2       48.2950   31.3570    5.0120 C.ar  313  TYR313     -0.0009
    131  CE1       47.4960   30.5970    7.6030 C.ar  313  TYR313      0.0417
    132  CE2       48.1680   29.9910    5.3360 C.ar  313  TYR313      0.0417
    133  CZ        47.7730   29.6370    6.6290 C.ar  313  TYR313      0.1957
    134  OH        47.6760   28.3110    6.9440 O.3   313  TYR313     -0.2866
    135  N         50.2890   35.9160    4.0860 N.am  314  PRO314     -0.2718
    136  CA        50.3540   37.2990    3.5880 C.3   314  PRO314      0.1535
    137  C         48.9780   37.7920    3.0750 C.2   314  PRO314      0.2598
    138  O         48.2940   37.0640    2.3570 O.2   314  PRO314     -0.2715
    139  CB        51.3340   37.1930    2.4230 C.3   314  PRO314      0.0310
    140  CG        51.0150   35.8250    1.8260 C.3   314  PRO314      0.0237
    141  CD        50.7300   34.9280    3.0830 C.3   314  PRO314      0.0939
    142  N         48.5630   38.9700    3.5020 N.am  315  ILE315     -0.1978
    143  CA        47.2010   39.4660    3.2090 C.3   315  ILE315      0.1596
    144  C         47.0160   39.9730    1.7500 C.2   315  ILE315      0.2287
    145  O         46.0850   39.5680    1.0530 O.2   315  ILE315     -0.2864
    146  CB        46.8500   40.5170    4.2400 C.3   315  ILE315      0.0276
    147  CG1       46.7130   39.8140    5.5760 C.3   315  ILE315      0.0022
    148  CG2       45.5950   41.2650    3.8470 C.3   315  ILE315      0.0022
    149  CD1       46.6120   40.7850    6.8270 C.3   315  ILE315      0.0001
    150  N         52.5580   33.6730   -0.6650 N.3   348  TYR348     -0.1241
    151  CA        52.3440   32.3660   -0.0080 C.3   348  TYR348      0.1605
    152  C         52.9340   31.2930   -1.0030 C.2   348  TYR348      0.2264
    153  O         52.5800   31.3190   -2.1680 O.2   348  TYR348     -0.2867
    154  CB        50.8240   32.1080    0.2320 C.3   348  TYR348      0.0534
    155  CG        50.6830   30.7090    0.7940 C.ar  348  TYR348     -0.0201
    156  CD1       50.9250   30.4710    2.1770 C.ar  348  TYR348     -0.0009
    157  CD2       50.5350   29.5850   -0.0510 C.ar  348  TYR348     -0.0009
    158  CE1       50.9130   29.2080    2.7040 C.ar  348  TYR348      0.0417
    159  CE2       50.5270   28.2580    0.5030 C.ar  348  TYR348      0.0417
    160  CZ        50.6970   28.0990    1.8720 C.ar  348  TYR348      0.1957
    161  OH        50.6710   26.8570    2.4640 O.3   348  TYR348     -0.2866
    162  N         53.8640   27.0810   -1.5760 N.3   350  ASP350     -0.1239
    163  CA        53.9180   25.7150   -1.0700 C.3   350  ASP350      0.1674
    164  C         55.3800   25.2410   -1.1240 C.2   350  ASP350      0.2266
    165  O         56.2190   25.8540   -1.8160 O.2   350  ASP350     -0.2867
    166  CB        53.0480   24.8130   -1.9400 C.3   350  ASP350      0.1410
    167  CG        51.5570   25.0490   -1.7160 C.2   350  ASP350      0.3668
    168  OD1       51.0190   25.1990   -0.5320 O.co2 350  ASP350     -0.2456
    169  OD2       50.9420   25.0820   -2.7990 O.co2 350  ASP350     -0.2456
@<TRIPOS>BOND
     1    59    60    1
     2    60    61    1
     3    60    63    1
     4    62    61    2
     5    64    63    1
     6    64    65    1
     7    65    66    1
     8    84    85    2
     9    84    83    1
    10    51    52    1
    11    66    67    2
    12    53    52    1
    13    53    54    2
    14   169   167   ar
    15    52    55    1
    16    83    86    1
    17    83    82    1
    18    86    87    1
    19    67    69    1
    20    67    68    1
    21   153   152    2
    22   166   167    1
    23   166   163    1
    24   165   164    2
    25    73    72    2
    26   167   168   ar
    27   162   163    1
    28    82    72   am
    29    55    56    1
    30    55    57    1
    31    72    71    1
    32    56    58    1
    33   164   163    1
    34   152   151    1
    35    87    89   ar
    36    87    88   ar
    37    89    91   ar
    38   150   151    1
    39   157   159   ar
    40   157   155   ar
    41    70    71    1
    42   151   154    1
    43    71    74    1
    44    91    92   ar
    45    88    90   ar
    46   154   155    1
    47   159   160   ar
    48   155   156   ar
    49   145   144    2
    50    92    90   ar
    51    74    75    1
    52    77    75   ar
    53    77    79   ar
    54    75    76   ar
    55   144   143    1
    56   140   139    1
    57   140   141    1
    58    50    48   ar
    59    50    49   ar
    60   160   161    1
    61   160   158   ar
    62    79    80   ar
    63    76    78   ar
    64    48    46   ar
    65   156   158   ar
    66     4     3    2
    67    80    78   ar
    68    80    81    1
    69   138   137    2
    70   139   136    1
    71     1     2    1
    72    49    47   ar
    73   137   142   am
    74   137   136    1
    75   141   135    1
    76    46    45   ar
    77    46    44   ar
    78   143   142    1
    79   143   146    1
    80     5     2    1
    81     5     6    1
    82     3     2    1
    83   136   135    1
    84    45    43   ar
    85    47    44   ar
    86   148   146    1
    87    44    42   ar
    88   135   125   am
    89     7     6    2
    90   146   147    1
    91     6     8   am
    92    43    42   ar
    93   130   132   ar
    94   130   128   ar
    95    42    41    1
    96     9    10    1
    97   125   124    1
    98   125   126    2
    99   132   133   ar
   100    15    13    1
   101   147   149    1
   102    36    34   am
   103   124   127    1
   104   124   123    1
   105   127   128    1
   106    13    10    1
   107    13    14    1
   108    12    11    2
   109   128   129   ar
   110    41    38    1
   111    10    11    1
   112   133   134    1
   113   133   131   ar
   114    34    35    2
   115    34    33    1
   116    23    25   ar
   117    23    21   ar
   118    25    26   ar
   119   129   131   ar
   120   111   109   am
   121    38    37    1
   122    38    39    1
   123    32    33    1
   124    32    29    1
   125    20    21    1
   126    20    17    1
   127    21    22   ar
   128    40    39    2
   129    26    27    1
   130    26    24   ar
   131    37    30   am
   132    18    19    2
   133    18    17    1
   134   121   120    1
   135    93    94    1
   136    98    97    1
   137    98    99    1
   138    30    31    2
   139    30    29    1
   140   109   110    2
   141   109   108    1
   142    17    16    1
   143    29    28    1
   144    97    94    1
   145    22    24   ar
   146    99   100    1
   147   120   122    1
   148   120   119    2
   149   108   105    1
   150    94    95    1
   151    96    95    2
   152   100   101    2
   153   119   118    1
   154   118   117    1
   155   101   103    1
   156   101   102    1
   157   105   104    1
   158   105   106    1
   159   106   107    2
   160   117   116    1
   161   116   113    1
   162   113   112    1
   163   113   114    1
   164   114   115    2
