@<TRIPOS>MOLECULE
tmp/3kybB03.pdb
 172 171 0 0 0
SMALL
GASTEIGER

@<TRIPOS>ATOM
      1  N         31.8960    3.1240    4.8750 N.3    96  LEU96      -0.1231
      2  CA        32.2040    1.8100    5.4370 C.3    96  LEU96       0.1678
      3  C         33.7030    1.5720    5.2710 C.2    96  LEU96       0.2434
      4  O         34.3260    2.1670    4.4330 O.2    96  LEU96      -0.2733
      5  CB        31.4520    0.7140    4.7020 C.3    96  LEU96       0.0284
      6  CG        29.9310    0.5460    4.8740 C.3    96  LEU96       0.0019
      7  CD1       29.4110   -0.6870    4.1120 C.3    96  LEU96       0.0001
      8  CD2       29.4600    0.4430    6.3210 C.3    96  LEU96       0.0001
      9  N         34.2990    0.7130    6.0920 N.am   97  PRO97      -0.2718
     10  CA        33.7140   -0.0550    7.2290 C.3    97  PRO97       0.1535
     11  C         33.2530    0.9380    8.2780 C.2    97  PRO97       0.2598
     12  O         33.7320    2.1080    8.3160 O.2    97  PRO97      -0.2715
     13  CB        34.8930   -0.9190    7.7330 C.3    97  PRO97       0.0310
     14  CG        36.1440   -0.1630    7.2980 C.3    97  PRO97       0.0237
     15  CD        35.7610    0.5820    5.9760 C.3    97  PRO97       0.0939
     16  N         32.3780    0.4990    9.1590 N.am   98  ILE98      -0.1978
     17  CA        31.8410    1.3990   10.1580 C.3    98  ILE98       0.1596
     18  C         32.9430    2.1360   10.9470 C.2    98  ILE98       0.2287
     19  O         33.8470    1.4870   11.5520 O.2    98  ILE98      -0.2864
     20  CB        30.9010    0.6190   11.1280 C.3    98  ILE98       0.0276
     21  CG1       29.6730    0.1700   10.3810 C.3    98  ILE98       0.0022
     22  CG2       30.4370    1.5190   12.3200 C.3    98  ILE98       0.0022
     23  CD1       28.7790   -0.6950   11.2470 C.3    98  ILE98       0.0001
     24  N         25.9180  -15.0480   15.2670 N.3   134  PHE134     -0.1241
     25  CA        26.3530  -13.7840   14.6790 C.3   134  PHE134      0.1605
     26  C         25.3750  -12.6580   15.1090 C.2   134  PHE134      0.2264
     27  O         25.7890  -11.6340   15.6870 O.2   134  PHE134     -0.2867
     28  CB        26.4390  -14.0260   13.1590 C.3   134  PHE134      0.0534
     29  CG        26.8620  -12.8370   12.3310 C.ar  134  PHE134     -0.0203
     30  CD1       26.4900  -12.7890   10.9860 C.ar  134  PHE134     -0.0042
     31  CD2       27.6270  -11.7800   12.8630 C.ar  134  PHE134     -0.0042
     32  CE1       26.8830  -11.7130   10.1420 C.ar  134  PHE134     -0.0003
     33  CE2       27.9940  -10.6940   12.0300 C.ar  134  PHE134     -0.0003
     34  CZ        27.6200  -10.6650   10.6610 C.ar  134  PHE134     -0.0000
     35  N         23.0980   -1.8990    9.3170 N.3   150  PHE150     -0.1227
     36  CA        24.3190   -2.2500    8.5510 C.3   150  PHE150      0.1736
     37  C         24.6500   -3.7340    8.4010 C.2   150  PHE150      0.2595
     38  O         25.4280   -4.0860    7.4830 O.2   150  PHE150     -0.2718
     39  CB        25.5190   -1.5460    9.2080 C.3   150  PHE150      0.0547
     40  CG        25.4800   -0.0600    9.0670 C.ar  150  PHE150     -0.0202
     41  CD1       25.3550    0.7510   10.1850 C.ar  150  PHE150     -0.0042
     42  CD2       25.5420    0.5370    7.7900 C.ar  150  PHE150     -0.0042
     43  CE1       25.3350    2.1710   10.0590 C.ar  150  PHE150     -0.0003
     44  CE2       25.5040    1.9620    7.6380 C.ar  150  PHE150     -0.0003
     45  CZ        25.4110    2.7860    8.8130 C.ar  150  PHE150     -0.0000
     46  N         24.0970   -4.6080    9.2810 N.am  151  PHE151     -0.1976
     47  CA        24.4670   -6.0280    9.2540 C.3   151  PHE151      0.1639
     48  C         23.3960   -7.0140    8.8440 C.2   151  PHE151      0.2290
     49  O         23.6250   -7.9090    8.0250 O.2   151  PHE151     -0.2864
     50  CB        24.9300   -6.4320   10.6480 C.3   151  PHE151      0.0560
     51  CG        26.2620   -5.8780   11.0400 C.ar  151  PHE151     -0.0200
     52  CD1       27.3950   -6.6830   11.0170 C.ar  151  PHE151     -0.0042
     53  CD2       26.3940   -4.5390   11.4180 C.ar  151  PHE151     -0.0042
     54  CE1       28.6380   -6.1410   11.3870 C.ar  151  PHE151     -0.0003
     55  CE2       27.6610   -4.0060   11.7990 C.ar  151  PHE151     -0.0003
     56  CZ        28.7360   -4.7780   11.7890 C.ar  151  PHE151     -0.0000
     57  N         22.2710   -6.9100    5.0360 N.3   154  TYR154     -0.1227
     58  CA        23.3730   -7.2100    4.0860 C.3   154  TYR154      0.1736
     59  C         23.8200   -8.7080    4.2390 C.2   154  TYR154      0.2596
     60  O         24.1170   -9.4050    3.2430 O.2   154  TYR154     -0.2718
     61  CB        24.5730   -6.2550    4.3770 C.3   154  TYR154      0.0548
     62  CG        25.5520   -6.1980    3.2360 C.ar  154  TYR154     -0.0200
     63  CD1       25.2030   -5.5170    2.0210 C.ar  154  TYR154     -0.0009
     64  CD2       26.7730   -6.8540    3.2960 C.ar  154  TYR154     -0.0009
     65  CE1       26.0570   -5.4830    0.9500 C.ar  154  TYR154      0.0417
     66  CE2       27.6640   -6.8230    2.1550 C.ar  154  TYR154      0.0417
     67  CZ        27.2740   -6.0860    1.0210 C.ar  154  TYR154      0.1957
     68  OH        28.0550   -6.0060   -0.1070 O.3   154  TYR154     -0.2866
     69  N         23.8390   -9.1790    5.4960 N.am  155  THR155     -0.1953
     70  CA        24.0970  -10.5970    5.7760 C.3   155  THR155      0.1897
     71  C         23.1120  -11.5120    5.0640 C.2   155  THR155      0.2313
     72  O         23.4950  -12.4340    4.3650 O.2   155  THR155     -0.2863
     73  CB        24.0790  -10.8680    7.2530 C.3   155  THR155      0.1794
     74  OG1       25.1180  -10.1190    7.8970 O.3   155  THR155     -0.2208
     75  CG2       24.3250  -12.3290    7.4830 C.3   155  THR155      0.0378
     76  N         24.1200  -11.3420    1.3320 N.3   158  GLN158     -0.1231
     77  CA        25.4710  -11.8890    1.0550 C.3   158  GLN158      0.1698
     78  C         25.5520  -13.4210    1.2830 C.2   158  GLN158      0.2592
     79  O         26.1700  -14.1310    0.4920 O.2   158  GLN158     -0.2718
     80  CB        26.4300  -11.2980    2.1320 C.3   158  GLN158      0.0381
     81  CG        27.4610  -10.5080    1.5850 C.3   158  GLN158      0.0905
     82  CD        28.6410  -10.3290    2.5310 C.2   158  GLN158      0.2608
     83  OE1       29.7380  -10.2740    2.0490 O.2   158  GLN158     -0.2717
     84  NE2       28.4270  -10.2630    3.8330 N.am  158  GLN158     -0.0878
     85  N         25.0040  -13.8890    2.3960 N.am  159  TRP159     -0.1976
     86  CA        25.2240  -15.2720    2.8100 C.3   159  TRP159      0.1640
     87  C         24.0230  -16.1440    2.4660 C.2   159  TRP159      0.2290
     88  O         24.1390  -17.3640    2.4560 O.2   159  TRP159     -0.2864
     89  CB        25.3750  -15.3250    4.3240 C.3   159  TRP159      0.0576
     90  CG        26.6770  -14.9400    4.7920 C.ar  159  TRP159      0.0006
     91  CD1       27.0570  -13.6970    5.1180 C.ar  159  TRP159      0.0946
     92  CD2       27.7690  -15.8010    5.0740 C.ar  159  TRP159      0.0152
     93  NE1       28.3530  -13.6970    5.5540 N.ar  159  TRP159     -0.2442
     94  CE2       28.8190  -14.9870    5.5430 C.ar  159  TRP159      0.0810
     95  CE3       27.9550  -17.1960    5.0120 C.ar  159  TRP159      0.0012
     96  CZ2       30.0840  -15.5060    5.9280 C.ar  159  TRP159      0.0191
     97  CZ3       29.2110  -17.7310    5.3830 C.ar  159  TRP159      0.0001
     98  CH2       30.2620  -16.8750    5.8390 C.ar  159  TRP159      0.0015
     99  N         32.1590  -15.7970   14.0190 N.3   170  ILE170     -0.1231
    100  CA        32.3250  -15.2160   12.7340 C.3   170  ILE170      0.1692
    101  C         32.8090  -13.7690   12.8940 C.2   170  ILE170      0.2592
    102  O         33.5260  -13.2470   12.0420 O.2   170  ILE170     -0.2718
    103  CB        30.9640  -15.3370   11.9490 C.3   170  ILE170      0.0266
    104  CG1       31.1890  -15.8640   10.5640 C.3   170  ILE170      0.0019
    105  CG2       30.1320  -14.0710   11.9240 C.3   170  ILE170      0.0020
    106  CD1       32.6110  -15.7910   10.1490 C.3   170  ILE170      0.0001
    107  N         32.3930  -13.0840   13.9490 N.am  171  LEU171     -0.1966
    108  CA        33.0260  -11.8000   14.1950 C.3   171  LEU171      0.1728
    109  C         33.5420  -11.6470   15.6220 C.2   171  LEU171      0.2616
    110  O         32.7870  -11.5220   16.5870 O.2   171  LEU171     -0.2715
    111  CB        32.2120  -10.5920   13.6900 C.3   171  LEU171      0.0311
    112  CG        30.8550  -10.1910   14.2560 C.3   171  LEU171      0.0022
    113  CD1       30.6950  -10.7760   15.5910 C.3   171  LEU171      0.0001
    114  CD2       30.7330   -8.7190   14.3450 C.3   171  LEU171      0.0001
    115  N         34.8600  -11.6800   15.7310 N.am  172  LYS172     -0.1963
    116  CA        35.5270  -11.7970   17.0210 C.3   172  LYS172      0.1728
    117  C         35.8340  -10.4570   17.6470 C.2   172  LYS172      0.2616
    118  O         36.1380  -10.3990   18.8150 O.2   172  LYS172     -0.2715
    119  CB        36.8180  -12.6100   16.8710 C.3   172  LYS172      0.0311
    120  CG        36.5850  -14.1640   16.9140 C.3   172  LYS172      0.0038
    121  CD        37.6450  -14.9710   16.1180 C.3   172  LYS172      0.0206
    122  CE        37.5710  -14.6670   14.5560 C.3   172  LYS172      0.1093
    123  NZ        36.8050  -13.3650   14.2280 N.3   172  LYS172     -0.1314
    124  N         35.7300   -9.3780   16.8830 N.am  173  ARG173     -0.1977
    125  CA        36.0530   -8.0400   17.3820 C.3   173  ARG173      0.1597
    126  C         34.8630   -7.0990   17.2000 C.2   173  ARG173      0.2287
    127  O         34.1460   -7.1810   16.1870 O.2   173  ARG173     -0.2864
    128  CB        37.2240   -7.4730   16.5920 C.3   173  ARG173      0.0334
    129  CG        38.4470   -7.1350   17.4090 C.3   173  ARG173      0.0492
    130  CD        39.7120   -6.9280   16.4920 C.3   173  ARG173      0.2205
    131  NE        39.9380   -8.0660   15.5760 N.pl3 173  ARG173     -0.0865
    132  CZ        39.7680   -8.0490   14.2450 C.cat 173  ARG173      0.5346
    133  NH1       39.3680   -6.9360   13.5990 N.pl3 173  ARG173      0.1354
    134  NH2       40.0060   -9.1680   13.5600 N.pl3 173  ARG173      0.1354
    135  N         32.9460   -4.2830   15.8360 N.3   175  PRO175     -0.2116
    136  CA        33.3270   -3.8330   14.4730 C.3   175  PRO175      0.1372
    137  C         33.0380   -2.3460   14.3380 C.2   175  PRO175      0.2244
    138  O         32.0720   -1.9670   13.6980 O.2   175  PRO175     -0.2868
    139  CB        32.3900   -4.6490   13.5940 C.3   175  PRO175      0.0268
    140  CG        31.0750   -4.7910   14.5020 C.3   175  PRO175      0.0207
    141  CD        31.4950   -4.5630   15.9570 C.3   175  PRO175      0.0892
    142  N         35.5900    1.1330   13.8190 N.3   177  ARG177     -0.1245
    143  CA        36.8460    1.9230   13.9490 C.3   177  ARG177      0.1563
    144  C         36.5520    3.2550   14.6320 C.2   177  ARG177      0.2260
    145  O         35.7310    4.0330   14.1470 O.2   177  ARG177     -0.2867
    146  CB        37.4680    2.2800   12.6050 C.3   177  ARG177      0.0307
    147  CG        37.7600    1.1450   11.7190 C.3   177  ARG177      0.0489
    148  CD        38.6280    1.6230   10.5510 C.3   177  ARG177      0.2205
    149  NE        38.9000    0.4320    9.7330 N.pl3 177  ARG177     -0.0865
    150  CZ        39.2550    0.4500    8.4700 C.cat 177  ARG177      0.5346
    151  NH1       39.3780    1.6430    7.8440 N.pl3 177  ARG177      0.1354
    152  NH2       39.4940   -0.7090    7.8380 N.pl3 177  ARG177      0.1354
    153  N         39.3710    0.8250    3.1770 N.3   184  TYR184     -0.1241
    154  CA        38.7860   -0.5160    3.3840 C.3   184  TYR184      0.1605
    155  C         39.8550   -1.5380    3.7500 C.2   184  TYR184      0.2264
    156  O         39.5910   -2.4660    4.5280 O.2   184  TYR184     -0.2867
    157  CB        38.1400   -0.9510    2.1010 C.3   184  TYR184      0.0534
    158  CG        37.1080   -2.0410    2.2090 C.ar  184  TYR184     -0.0201
    159  CD1       35.7770   -1.7120    2.4350 C.ar  184  TYR184     -0.0009
    160  CD2       37.4600   -3.4110    2.0690 C.ar  184  TYR184     -0.0009
    161  CE1       34.7800   -2.7170    2.5390 C.ar  184  TYR184      0.0417
    162  CE2       36.4830   -4.4230    2.1100 C.ar  184  TYR184      0.0417
    163  CZ        35.1250   -4.0360    2.3350 C.ar  184  TYR184      0.1957
    164  OH        34.1340   -4.9400    2.3690 O.3   184  TYR184     -0.2866
    165  N         43.7960   -2.3130    5.2910 N.3   186  ASN186     -0.1240
    166  CA        44.8890   -1.7120    6.0890 C.3   186  ASN186      0.1653
    167  C         46.3200   -2.0320    5.6690 C.2   186  ASN186      0.2266
    168  O         47.2370   -1.7280    6.3770 O.2   186  ASN186     -0.2867
    169  CB        44.8160   -2.2360    7.4960 C.3   186  ASN186      0.1155
    170  CG        43.4880   -1.9270    8.1520 C.2   186  ASN186      0.2627
    171  OD1       43.0640   -0.7620    8.1870 O.2   186  ASN186     -0.2716
    172  ND2       42.8370   -2.9540    8.6910 N.am  186  ASN186     -0.0877
@<TRIPOS>BOND
     1    68    67    1
     2    79    78    2
     3    65    67   ar
     4    65    63   ar
     5    67    66   ar
     6    77    78    1
     7    77    76    1
     8    77    80    1
     9    78    85   am
    10    81    80    1
    11    81    82    1
    12    63    62   ar
    13    83    82    2
    14   160   162   ar
    15   160   158   ar
    16   157   158    1
    17   157   154    1
    18   162   163   ar
    19    66    64   ar
    20   158   159   ar
    21   163   164    1
    22   163   161   ar
    23    85    86    1
    24   159   161   ar
    25    88    87    2
    26    87    86    1
    27    82    84   am
    28    86    89    1
    29   153   154    1
    30    62    64   ar
    31    62    61    1
    32    60    59    2
    33   154   155    1
    34   155   156    2
    35    58    59    1
    36    58    61    1
    37    58    57    1
    38     7     6    1
    39    59    69   am
    40    89    90    1
    41    72    71    2
    42     4     3    2
    43     5     6    1
    44     5     2    1
    45    90    92   ar
    46    90    91   ar
    47     6     8    1
    48     1     2    1
    49    95    92   ar
    50    95    97   ar
    51    71    70    1
    52    92    94   ar
    53    91    93   ar
    54     3     2    1
    55     3     9   am
    56   165   166    1
    57    97    98   ar
    58    69    70    1
    59    94    93   ar
    60    94    96   ar
    61   167   166    1
    62   167   168    2
    63    70    73    1
    64    98    96   ar
    65    15     9    1
    66    15    14    1
    67   166   169    1
    68     9    10    1
    69    10    13    1
    70    10    11    1
    71    73    75    1
    72    73    74    1
    73    14    13    1
    74    38    37    2
    75   169   170    1
    76    44    42   ar
    77    44    45   ar
    78    42    40   ar
    79   152   150    1
    80   151   150    1
    81    49    48    2
    82   170   171    2
    83   170   172   am
    84    11    12    2
    85    11    16   am
    86    37    36    1
    87    37    46   am
    88   150   149    2
    89    36    39    1
    90    36    35    1
    91    45    43   ar
    92    48    47    1
    93    40    39    1
    94    40    41   ar
    95    16    17    1
    96    47    46    1
    97    47    50    1
    98   149   148    1
    99    43    41   ar
   100    32    34   ar
   101    32    30   ar
   102   106   104    1
   103    17    18    1
   104    17    20    1
   105    21    20    1
   106    21    23    1
   107   148   147    1
   108   104   103    1
   109    50    51    1
   110    34    33   ar
   111    18    19    2
   112    30    29   ar
   113    52    51   ar
   114    52    54   ar
   115    51    53   ar
   116    20    22    1
   117    54    56   ar
   118    53    55   ar
   119   147   146    1
   120    56    55   ar
   121   105   103    1
   122   103   100    1
   123    33    31   ar
   124   102   101    2
   125    29    31   ar
   126    29    28    1
   127   146   143    1
   128   100   101    1
   129   100    99    1
   130   101   107   am
   131    28    25    1
   132   134   132    1
   133   139   136    1
   134   139   140    1
   135   133   132    1
   136   111   108    1
   137   111   112    1
   138   138   137    2
   139   142   143    1
   140   107   108    1
   141   143   144    1
   142   145   144    2
   143   108   109    1
   144   123   122    1
   145   132   131    2
   146   112   114    1
   147   112   113    1
   148   137   136    1
   149   136   135    1
   150   140   141    1
   151   122   121    1
   152    25    26    1
   153    25    24    1
   154    26    27    2
   155   131   130    1
   156   109   115   am
   157   109   110    2
   158   115   116    1
   159   135   141    1
   160   121   120    1
   161   127   126    2
   162   130   129    1
   163   128   125    1
   164   128   129    1
   165   119   120    1
   166   119   116    1
   167   124   125    1
   168   124   117   am
   169   116   117    1
   170   126   125    1
   171   117   118    2
