@<TRIPOS>MOLECULE
tmp/3kycB00.pdb
 172 163 0 0 0
SMALL
GASTEIGER

@<TRIPOS>ATOM
      1  N        -13.3500   20.0730   41.4170 N.3    19  VAL19      -0.1231
      2  CA       -13.0140   20.2430   42.8450 C.3    19  VAL19       0.1692
      3  C        -11.8990   21.3140   43.0540 C.2    19  VAL19       0.2593
      4  O        -10.7210   21.0930   42.7720 O.2    19  VAL19      -0.2718
      5  CB       -12.6110   18.8950   43.4600 C.3    19  VAL19       0.0266
      6  CG1      -12.4920   18.9960   44.9430 C.3    19  VAL19       0.0020
      7  CG2      -13.6400   17.8120   43.0950 C.3    19  VAL19       0.0020
      8  N        -12.2900   22.4770   43.5390 N.am   20  GLY20      -0.1942
      9  CA       -11.3530   23.5520   43.8200 C.3    20  GLY20       0.2014
     10  C        -11.5280   24.6180   42.7480 C.2    20  GLY20       0.2639
     11  O        -11.6610   24.2640   41.5630 O.2    20  GLY20      -0.2714
     12  N        -11.4900   25.8940   43.1830 N.am   21  ALA21      -0.1963
     13  CA       -11.6910   27.0780   42.3600 C.3    21  ALA21       0.1728
     14  C        -10.6400   28.1720   42.5200 C.2    21  ALA21       0.2617
     15  O        -11.0130   29.3750   42.5520 O.2    21  ALA21      -0.2715
     16  CB       -13.0820   27.7140   42.6770 C.3    21  ALA21       0.0334
     17  N         -9.3540   27.8060   42.5830 N.am   22  GLY22      -0.1940
     18  CA        -8.2610   28.7920   42.5650 C.3    22  GLY22       0.2014
     19  C         -7.7170   28.9890   41.1640 C.2    22  GLY22       0.2639
     20  O         -8.4890   29.1630   40.2190 O.2    22  GLY22      -0.2714
     21  N         -6.3830   28.9160   41.0440 N.am   23  GLY23      -0.1939
     22  CA        -5.6270   29.0730   39.7840 C.3    23  GLY23       0.2014
     23  C         -6.0320   28.1050   38.6790 C.2    23  GLY23       0.2638
     24  O         -6.5380   28.5000   37.6280 O.2    23  GLY23      -0.2714
     25  N         -5.8020   26.8290   38.8960 N.am   24  ILE24      -0.1977
     26  CA        -6.2760   25.8230   37.9600 C.3    24  ILE24       0.1596
     27  C         -7.7990   25.9680   37.8140 C.2    24  ILE24       0.2287
     28  O         -8.2930   25.9880   36.6810 O.2    24  ILE24      -0.2864
     29  CB        -5.8910   24.3940   38.4200 C.3    24  ILE24       0.0276
     30  CG1       -4.3500   24.2210   38.4230 C.3    24  ILE24       0.0022
     31  CG2       -6.6550   23.3230   37.6090 C.3    24  ILE24       0.0022
     32  CD1       -3.8560   22.8360   38.9720 C.3    24  ILE24       0.0001
     33  N        -16.7970   23.2380   43.5030 N.3    43  ILE43      -0.1231
     34  CA       -16.7070   23.3010   44.9740 C.3    43  ILE43       0.1692
     35  C        -15.3740   23.8730   45.4500 C.2    43  ILE43       0.2592
     36  O        -14.3430   23.5120   44.9220 O.2    43  ILE43      -0.2718
     37  CB       -17.0280   21.9040   45.6290 C.3    43  ILE43       0.0266
     38  CG1      -17.0940   22.0260   47.1410 C.3    43  ILE43       0.0019
     39  CG2      -15.9940   20.8210   45.2280 C.3    43  ILE43       0.0020
     40  CD1      -17.4180   20.7200   47.8340 C.3    43  ILE43       0.0001
     41  N        -15.4120   24.8080   46.3970 N.am   44  ASP44      -0.1960
     42  CA       -14.2170   25.3390   47.0660 C.3    44  ASP44       0.1840
     43  C        -14.6680   25.6400   48.5050 C.2    44  ASP44       0.2622
     44  O        -15.8310   26.0270   48.7250 O.2    44  ASP44      -0.2715
     45  CB       -13.6610   26.5900   46.3390 C.3    44  ASP44       0.1450
     46  CG       -12.1600   26.9310   46.7140 C.2    44  ASP44       0.3671
     47  OD1      -11.2350   26.8860   45.8670 O.co2  44  ASP44      -0.2456
     48  OD2      -11.8790   27.2840   47.8560 O.co2  44  ASP44      -0.2456
     49  N        -13.7710   25.4580   49.4740 N.am   45  LEU45      -0.1963
     50  CA       -14.1280   25.6660   50.8590 C.3    45  LEU45       0.1728
     51  C        -13.6780   27.0070   51.2790 C.2    45  LEU45       0.2616
     52  O        -13.5180   27.2740   52.4610 O.2    45  LEU45      -0.2715
     53  CB       -13.4830   24.6120   51.7700 C.3    45  LEU45       0.0311
     54  CG       -11.9470   24.4220   51.7780 C.3    45  LEU45       0.0022
     55  CD1      -11.1440   25.5030   52.5460 C.3    45  LEU45       0.0001
     56  CD2      -11.6190   23.0370   52.3260 C.3    45  LEU45       0.0001
     57  N        -13.4370   27.8790   50.3180 N.am   46  ASP46      -0.1971
     58  CA       -12.7120   29.1020   50.6670 C.3    46  ASP46       0.1709
     59  C        -13.2570   30.4040   50.1250 C.2    46  ASP46       0.2293
     60  O        -14.0040   30.4370   49.1240 O.2    46  ASP46      -0.2864
     61  CB       -11.2480   28.9720   50.2990 C.3    46  ASP46       0.1436
     62  CG       -10.3490   29.6810   51.2830 C.2    46  ASP46       0.3671
     63  OD1       -9.1260   29.6730   51.0290 O.co2  46  ASP46      -0.2456
     64  OD2      -10.8390   30.2580   52.2950 O.co2  46  ASP46      -0.2456
     65  N         -3.8670   35.4050   39.4890 N.3    55  ARG55      -0.1231
     66  CA        -4.0310   34.1610   38.7370 C.3    55  ARG55       0.1694
     67  C         -5.4090   33.5330   38.7470 C.2    55  ARG55       0.2591
     68  O         -5.5740   32.4390   38.2000 O.2    55  ARG55      -0.2718
     69  CB        -3.0500   33.0810   39.2130 C.3    55  ARG55       0.0321
     70  CG        -3.0310   32.8690   40.7430 C.3    55  ARG55       0.0489
     71  CD        -1.8530   31.9760   41.1430 C.3    55  ARG55       0.2205
     72  NE        -2.0790   31.2580   42.3890 N.pl3  55  ARG55      -0.0865
     73  CZ        -2.2200   31.8670   43.5590 C.cat  55  ARG55       0.5346
     74  NH1       -2.1960   33.1970   43.5830 N.pl3  55  ARG55       0.1354
     75  NH2       -2.4430   31.1530   44.6890 N.pl3  55  ARG55       0.1354
     76  N         -6.3750   34.1570   39.4200 N.am   56  GLN56      -0.1979
     77  CA        -7.7330   33.6110   39.5510 C.3    56  GLN56       0.1601
     78  C         -8.6670   34.6780   38.9610 C.2    56  GLN56       0.2287
     79  O         -9.2850   35.5010   39.6340 O.2    56  GLN56      -0.2864
     80  CB        -8.0040   33.2510   41.0030 C.3    56  GLN56       0.0394
     81  CG        -6.8380   32.4410   41.6650 C.3    56  GLN56       0.0908
     82  CD        -7.1180   31.9260   43.0920 C.2    56  GLN56       0.2608
     83  OE1       -8.2690   31.7390   43.4820 O.2    56  GLN56      -0.2717
     84  NE2       -6.0440   31.6830   43.8680 N.am   56  GLN56      -0.0878
     85  N        -15.2230   31.5780   46.9080 N.3    68  LYS68      -0.1245
     86  CA       -14.5470   31.3780   45.6370 C.3    68  LYS68       0.1561
     87  C        -15.4720   30.7320   44.6210 C.2    68  LYS68       0.2260
     88  O        -15.5630   31.1950   43.4810 O.2    68  LYS68      -0.2867
     89  CB       -13.2770   30.5450   45.8040 C.3    68  LYS68       0.0271
     90  CG       -12.0650   31.3930   46.1580 C.3    68  LYS68       0.0035
     91  CD       -10.7590   30.6140   46.0270 C.3    68  LYS68       0.0206
     92  CE        -9.6460   31.1550   46.8900 C.3    68  LYS68       0.1093
     93  NZ        -8.3400   30.6260   46.3460 N.3    68  LYS68      -0.1314
     94  N        -17.6460   24.9420   50.6660 N.3    90  ASP90      -0.1225
     95  CA       -17.6130   23.7500   51.5110 C.3    90  ASP90       0.1805
     96  C        -16.3880   22.8880   51.1390 C.2    90  ASP90       0.2598
     97  O        -15.8830   22.9560   49.9970 O.2    90  ASP90      -0.2718
     98  CB       -18.8780   22.9610   51.1790 C.3    90  ASP90       0.1424
     99  CG       -19.5460   22.3330   52.3850 C.2    90  ASP90       0.3668
    100  OD1      -19.1610   22.5730   53.5570 O.co2  90  ASP90      -0.2456
    101  OD2      -20.5100   21.5660   52.0950 O.co2  90  ASP90      -0.2456
    102  N        -15.9190   22.0770   52.0780 N.am   91  SER91      -0.1938
    103  CA       -14.8260   21.1710   51.8070 C.3    91  SER91       0.2055
    104  C        -15.3910   19.9210   51.1700 C.2    91  SER91       0.2643
    105  O        -16.3980   19.4450   51.6470 O.2    91  SER91      -0.2714
    106  CB       -14.1570   20.7840   53.1030 C.3    91  SER91       0.2130
    107  OG       -13.5940   19.4940   52.9570 O.3    91  SER91      -0.2179
    108  N        -14.7690   19.3670   50.1230 N.am   92  ILE92      -0.1963
    109  CA       -15.3000   18.1080   49.5670 C.3    92  ILE92       0.1727
    110  C        -15.1990   16.9740   50.5630 C.2    92  ILE92       0.2616
    111  O        -15.6480   15.8780   50.2550 O.2    92  ILE92      -0.2715
    112  CB       -14.6240   17.5540   48.2540 C.3    92  ILE92       0.0290
    113  CG1      -13.2180   18.0510   48.0980 C.3    92  ILE92       0.0022
    114  CG2      -15.4990   17.6110   47.0220 C.3    92  ILE92       0.0023
    115  CD1      -12.2410   17.1940   48.8790 C.3    92  ILE92       0.0001
    116  N        -14.5360   17.1850   51.6940 N.am   93  MET93      -0.1977
    117  CA       -14.4950   16.1470   52.7120 C.3    93  MET93       0.1605
    118  C        -15.7700   16.0870   53.5320 C.2    93  MET93       0.2287
    119  O        -16.0310   15.0860   54.1950 O.2    93  MET93      -0.2864
    120  CB       -13.3150   16.2960   53.6340 C.3    93  MET93       0.0413
    121  CG       -12.0380   15.6410   53.0880 C.3    93  MET93       0.0598
    122  SD       -10.8810   16.8620   52.4490 S.3    93  MET93      -0.1393
    123  CE        -9.7970   17.1350   53.8620 C.3    93  MET93       0.0692
    124  N         -8.6980   20.4070   41.0770 N.3   111  ALA111     -0.1231
    125  CA        -8.0740   21.7570   40.9790 C.3   111  ALA111      0.1694
    126  C         -7.6330   22.1490   42.3700 C.2   111  ALA111      0.2592
    127  O         -7.9230   23.2310   42.7930 O.2   111  ALA111     -0.2718
    128  CB        -9.0320   22.7520   40.4740 C.3   111  ALA111      0.0304
    129  N         -6.9610   21.2420   43.0780 N.am  112  LEU112     -0.1966
    130  CA        -6.6560   21.4030   44.4800 C.3   112  LEU112      0.1728
    131  C         -5.2150   21.9040   44.8030 C.2   112  LEU112      0.2616
    132  O         -4.3730   21.9490   43.9460 O.2   112  LEU112     -0.2715
    133  CB        -6.8570   20.0580   45.1130 C.3   112  LEU112      0.0311
    134  CG        -8.3130   19.6220   45.2050 C.3   112  LEU112      0.0022
    135  CD1       -8.3960   18.0420   45.4090 C.3   112  LEU112      0.0001
    136  CD2       -9.1040   20.4250   46.2970 C.3   112  LEU112      0.0001
    137  N         -4.9160   22.1810   46.0580 N.am  113  ASP113     -0.1957
    138  CA        -3.5690   22.6320   46.4090 C.3   113  ASP113      0.1840
    139  C         -3.0030   21.8650   47.5790 C.2   113  ASP113      0.2622
    140  O         -2.1660   22.4180   48.2750 O.2   113  ASP113     -0.2715
    141  CB        -3.6110   24.1360   46.7990 C.3   113  ASP113      0.1450
    142  CG        -4.5280   24.3900   47.9970 C.2   113  ASP113      0.3671
    143  OD1       -4.5610   25.5470   48.5300 O.co2 113  ASP113     -0.2456
    144  OD2       -5.2240   23.4050   48.4130 O.co2 113  ASP113     -0.2456
    145  N         -3.4890   20.6540   47.8360 N.am  114  ASN114     -0.1972
    146  CA        -3.0300   19.8320   48.9590 C.3   114  ASN114      0.1688
    147  C         -3.2000   18.3580   48.6900 C.2   114  ASN114      0.2292
    148  O         -3.9500   17.9620   47.8140 O.2   114  ASN114     -0.2864
    149  CB        -3.6560   20.2270   50.3270 C.3   114  ASN114      0.1181
    150  CG        -5.1400   19.9200   50.4310 C.2   114  ASN114      0.2629
    151  OD1       -5.5490   18.8350   50.8990 O.2   114  ASN114     -0.2716
    152  ND2       -5.9710   20.8720   50.0100 N.am  114  ASN114     -0.0877
    153  N         -6.9350   16.4220   50.3270 N.3   117  ALA117     -0.1245
    154  CA        -8.1560   16.4960   49.5790 C.3   117  ALA117      0.1562
    155  C         -7.9660   15.6170   48.3700 C.2   117  ALA117      0.2260
    156  O         -8.8990   14.9520   47.9320 O.2   117  ALA117     -0.2867
    157  CB        -8.4250   17.8880   49.1600 C.3   117  ALA117      0.0290
    158  N          0.1650   22.4600   39.9470 N.3   137  THR137     -0.1218
    159  CA         1.1150   23.4260   39.4240 C.3   137  THR137      0.1862
    160  C          2.0070   23.8970   40.5820 C.2   137  THR137      0.2287
    161  O          1.6340   23.7070   41.7900 O.2   137  THR137     -0.2866
    162  CB         0.4010   24.6520   38.7630 C.3   137  THR137      0.1770
    163  OG1       -0.3580   25.3580   39.7590 O.3   137  THR137     -0.2211
    164  CG2       -0.5190   24.1990   37.6610 C.3   137  THR137      0.0375
    165  N         -1.0380   27.9180   35.3490 N.3   357  ASN357     -0.1240
    166  CA        -2.3600   27.3600   35.6130 C.3   357  ASN357      0.1653
    167  C         -3.2090   27.3420   34.3310 C.2   357  ASN357      0.2266
    168  O         -3.8950   26.3590   34.0170 O.2   357  ASN357     -0.2867
    169  CB        -3.0020   28.1520   36.7060 C.3   357  ASN357      0.1155
    170  CG        -2.3190   27.9300   38.0600 C.2   357  ASN357      0.2627
    171  OD1       -2.2170   26.8180   38.5270 O.2   357  ASN357     -0.2716
    172  ND2       -1.8450   28.9850   38.6710 N.am  357  ASN357     -0.0877
@<TRIPOS>BOND
     1   168   167    2
     2   167   166    1
     3   165   166    1
     4   166   169    1
     5    28    27    2
     6   169   170    1
     7    31    29    1
     8    24    23    2
     9   164   162    1
    10    27    26    1
    11    26    29    1
    12    26    25    1
    13   170   171    2
    14   170   172   am
    15    68    67    2
    16    29    30    1
    17    30    32    1
    18    23    25   am
    19    23    22    1
    20    66    67    1
    21    66    69    1
    22    66    65    1
    23    67    76   am
    24   162   159    1
    25   162   163    1
    26    78    77    1
    27    78    79    2
    28    69    70    1
    29    76    77    1
    30   159   158    1
    31   159   160    1
    32    77    80    1
    33    22    21    1
    34    20    19    2
    35   128   125    1
    36   160   161    2
    37    70    71    1
    38   125   124    1
    39   125   126    1
    40    80    81    1
    41    21    19   am
    42    71    72    1
    43    19    18    1
    44     1     2    1
    45    11    10    2
    46    81    82    1
    47    13    14    1
    48    13    16    1
    49    13    12    1
    50   126   127    2
    51   126   129   am
    52    72    73    2
    53    14    15    2
    54    14    17   am
    55    18    17    1
    56    10    12   am
    57    10     9    1
    58     4     3    2
    59     2     3    1
    60     2     5    1
    61     3     8   am
    62   129   130    1
    63    82    83    2
    64    82    84   am
    65     7     5    1
    66     5     6    1
    67    88    87    2
    68    33    34    1
    69     8     9    1
    70    73    74    1
    71    73    75    1
    72   132   131    2
    73   130   131    1
    74   130   133    1
    75    87    86    1
    76   131   137   am
    77    36    35    2
    78    34    35    1
    79    34    37    1
    80   133   134    1
    81   134   135    1
    82   134   136    1
    83    39    37    1
    84    35    41   am
    85    37    38    1
    86    86    89    1
    87    86    85    1
    88    89    90    1
    89    47    46   ar
    90    91    90    1
    91    91    92    1
    92   137   138    1
    93    45    46    1
    94    45    42    1
    95    93    92    1
    96    41    42    1
    97   138   141    1
    98   138   139    1
    99    46    48   ar
   100   141   142    1
   101   114   112    1
   102    42    43    1
   103    38    40    1
   104   139   145   am
   105   139   140    2
   106   148   147    2
   107   145   146    1
   108   156   155    2
   109   142   144   ar
   110   142   143   ar
   111   113   112    1
   112   113   115    1
   113   112   109    1
   114   155   154    1
   115    43    44    2
   116    43    49   am
   117   147   146    1
   118   146   149    1
   119    60    59    2
   120   157   154    1
   121    49    50    1
   122   109   108    1
   123   109   110    1
   124   154   153    1
   125    97    96    2
   126   152   150   am
   127   108   104   am
   128    59    58    1
   129   111   110    2
   130    61    58    1
   131    61    62    1
   132    57    58    1
   133    57    51   am
   134   149   150    1
   135   150   151    2
   136   110   116   am
   137    94    95    1
   138    50    51    1
   139    50    53    1
   140    63    62   ar
   141    96    95    1
   142    96   102   am
   143   104   105    2
   144   104   103    1
   145    98    95    1
   146    98    99    1
   147    51    52    2
   148    62    64   ar
   149   116   117    1
   150    53    54    1
   151    54    56    1
   152    54    55    1
   153   103   102    1
   154   103   106    1
   155   101    99   ar
   156    99   100   ar
   157   122   121    1
   158   122   123    1
   159   117   118    1
   160   117   120    1
   161   107   106    1
   162   121   120    1
   163   118   119    2
