@<TRIPOS>MOLECULE
tmp/3kydB00.pdb
 197 186 0 0 0
SMALL
GASTEIGER

@<TRIPOS>ATOM
      1  N         23.8440   16.5340   14.9140 N.3    20  VAL20      -0.1231
      2  CA        23.6160   16.3410   16.3410 C.3    20  VAL20       0.1692
      3  C         23.1940   17.6750   16.9390 C.2    20  VAL20       0.2592
      4  O         23.9830   18.6210   16.9840 O.2    20  VAL20      -0.2718
      5  CB        24.8690   15.7820   17.0610 C.3    20  VAL20       0.0266
      6  CG1       24.5000   15.2440   18.4390 C.3    20  VAL20       0.0020
      7  CG2       25.5250   14.6820   16.2310 C.3    20  VAL20       0.0020
      8  N         21.9390   17.7470   17.3790 N.am   21  GLY21      -0.1957
      9  CA        21.3410   19.0050   17.8370 C.3    21  GLY21       0.1869
     10  C         20.3920   19.5910   16.8030 C.2    21  GLY21       0.2309
     11  O         20.7290   19.6830   15.6190 O.2    21  GLY21      -0.2863
     12  N         18.5930   22.6890   17.5180 N.3    23  GLY23      -0.1210
     13  CA        18.2700   24.0260   18.0040 C.3    23  GLY23       0.1956
     14  C         18.4130   25.0420   16.8910 C.2    23  GLY23       0.2612
     15  O         18.0460   24.7700   15.7460 O.2    23  GLY23      -0.2717
     16  N         18.9660   26.2080   17.2240 N.am   24  GLY24      -0.1942
     17  CA        19.1590   27.2900   16.2620 C.3    24  GLY24       0.2014
     18  C         20.0570   26.8950   15.1080 C.2    24  GLY24       0.2639
     19  O         19.6550   26.9660   13.9450 O.2    24  GLY24      -0.2714
     20  N         21.2760   26.4710   15.4260 N.am   25  ILE25      -0.1963
     21  CA        22.2180   26.0320   14.4040 C.3    25  ILE25       0.1727
     22  C         21.6720   24.8300   13.6390 C.2    25  ILE25       0.2616
     23  O         21.6990   24.8180   12.4100 O.2    25  ILE25      -0.2715
     24  CB        23.5980   25.6900   15.0020 C.3    25  ILE25       0.0290
     25  CG1       24.1470   26.8840   15.7820 C.3    25  ILE25       0.0022
     26  CG2       24.5690   25.2600   13.8940 C.3    25  ILE25       0.0023
     27  CD1       25.3490   26.5550   16.6140 C.3    25  ILE25       0.0001
     28  N         21.1730   23.8330   14.3700 N.am   26  GLY26      -0.1955
     29  CA        20.6510   22.6020   13.7750 C.3    26  GLY26       0.1869
     30  C         19.5660   22.8470   12.7380 C.2    26  GLY26       0.2309
     31  O         19.6710   22.3910   11.5980 O.2    26  GLY26      -0.2863
     32  N         19.2920   14.2370   15.3870 N.3    44  ILE44      -0.1231
     33  CA        19.0240   13.8280   16.7630 C.3    44  ILE44       0.1692
     34  C         19.0050   15.0290   17.7090 C.2    44  ILE44       0.2592
     35  O         19.8370   15.9340   17.5990 O.2    44  ILE44      -0.2718
     36  CB        20.0310   12.7370   17.2380 C.3    44  ILE44       0.0266
     37  CG1       19.6690   12.2330   18.6450 C.3    44  ILE44       0.0019
     38  CG2       21.4790   13.2440   17.1540 C.3    44  ILE44       0.0020
     39  CD1       20.3170   10.9130   19.0360 C.3    44  ILE44       0.0001
     40  N         18.0300   15.0340   18.6140 N.am   45  ASP45      -0.1960
     41  CA        17.9090   16.0520   19.6600 C.3    45  ASP45       0.1840
     42  C         17.0390   15.5220   20.7990 C.2    45  ASP45       0.2622
     43  O         15.9690   14.9560   20.5630 O.2    45  ASP45      -0.2715
     44  CB        17.3260   17.3560   19.0990 C.3    45  ASP45       0.1450
     45  CG        17.4810   18.5300   20.0560 C.2    45  ASP45       0.3671
     46  OD1       18.2880   19.4340   19.7620 O.co2  45  ASP45      -0.2456
     47  OD2       16.7980   18.5540   21.1010 O.co2  45  ASP45      -0.2456
     48  N         17.5040   15.7160   22.0310 N.am   46  LEU46      -0.1963
     49  CA        16.8140   15.1990   23.2150 C.3    46  LEU46       0.1728
     50  C         15.6480   16.0630   23.6890 C.2    46  LEU46       0.2616
     51  O         14.7650   15.5840   24.3990 O.2    46  LEU46      -0.2715
     52  CB        17.8050   14.9580   24.3680 C.3    46  LEU46       0.0311
     53  CG        18.8160   16.0320   24.7930 C.3    46  LEU46       0.0022
     54  CD1       18.1810   17.1430   25.6190 C.3    46  LEU46       0.0001
     55  CD2       19.9320   15.3870   25.5830 C.3    46  LEU46       0.0001
     56  N         15.6450   17.3290   23.2820 N.am   47  ASP47      -0.1971
     57  CA        14.7480   18.3270   23.8610 C.3    47  ASP47       0.1709
     58  C         13.4170   18.4840   23.1170 C.2    47  ASP47       0.2293
     59  O         13.2840   18.0870   21.9560 O.2    47  ASP47      -0.2864
     60  CB        15.4700   19.6780   23.9520 C.3    47  ASP47       0.1436
     61  CG        14.9610   20.5460   25.0890 C.2    47  ASP47       0.3671
     62  OD1       15.0420   21.7860   24.9630 O.co2  47  ASP47      -0.2456
     63  OD2       14.4870   19.9970   26.1060 O.co2  47  ASP47      -0.2456
     64  N         11.8530   18.4440   19.0880 N.3    69  LYS69      -0.1245
     65  CA        12.5460   19.4210   18.2540 C.3    69  LYS69       0.1561
     66  C         12.9250   18.8320   16.8970 C.2    69  LYS69       0.2260
     67  O         12.6860   19.4490   15.8570 O.2    69  LYS69      -0.2867
     68  CB        13.7980   19.9420   18.9630 C.3    69  LYS69       0.0271
     69  CG        13.5290   20.9430   20.0690 C.3    69  LYS69       0.0035
     70  CD        14.8280   21.5340   20.5740 C.3    69  LYS69       0.0206
     71  CE        14.5820   22.6970   21.5040 C.3    69  LYS69       0.1093
     72  NZ        15.8610   23.2510   22.0060 N.3    69  LYS69      -0.1314
     73  N         16.0260   11.7880   21.2080 N.3    91  ASP91      -0.1225
     74  CA        16.8870   11.0550   22.1400 C.3    91  ASP91       0.1805
     75  C         18.1910   11.8070   22.4240 C.2    91  ASP91       0.2598
     76  O         18.4830   12.8240   21.7960 O.2    91  ASP91      -0.2718
     77  CB        17.2060    9.6650   21.5730 C.3    91  ASP91       0.1424
     78  CG        17.2960    8.5960   22.6490 C.2    91  ASP91       0.3668
     79  OD1       18.2670    8.6040   23.4320 O.co2  91  ASP91      -0.2456
     80  OD2       16.3940    7.7380   22.7070 O.co2  91  ASP91      -0.2456
     81  N         18.9670   11.3010   23.3800 N.am   92  SER92      -0.1938
     82  CA        20.3120   11.8060   23.6360 C.3    92  SER92       0.2055
     83  C         21.3280   11.0190   22.8220 C.2    92  SER92       0.2643
     84  O         21.2190    9.7980   22.7020 O.2    92  SER92      -0.2714
     85  CB        20.6560   11.7040   25.1220 C.3    92  SER92       0.2130
     86  OG        22.0380   11.9370   25.3310 O.3    92  SER92      -0.2179
     87  N         22.3220   11.7180   22.2780 N.am   93  ILE93      -0.1963
     88  CA        23.3720   11.0790   21.4810 C.3    93  ILE93       0.1727
     89  C         24.2620   10.1780   22.3430 C.2    93  ILE93       0.2616
     90  O         25.0000    9.3360   21.8270 O.2    93  ILE93      -0.2715
     91  CB        24.2180   12.1200   20.6760 C.3    93  ILE93       0.0290
     92  CG1       25.0740   11.4360   19.5970 C.3    93  ILE93       0.0022
     93  CG2       25.0790   12.9950   21.6060 C.3    93  ILE93       0.0023
     94  CD1       24.2830   10.8010   18.4620 C.3    93  ILE93       0.0001
     95  N         24.1650   10.3510   23.6590 N.am   94  MET94      -0.1977
     96  CA        24.9370    9.5500   24.6060 C.3    94  MET94       0.1605
     97  C         24.2580    8.2250   24.9720 C.2    94  MET94       0.2287
     98  O         24.8010    7.4430   25.7510 O.2    94  MET94      -0.2864
     99  CB        25.2660   10.3710   25.8530 C.3    94  MET94       0.0413
    100  CG        25.9970   11.6670   25.5400 C.3    94  MET94       0.0598
    101  SD        26.1550   12.7460   26.9680 S.3    94  MET94      -0.1393
    102  CE        27.6260   12.0770   27.7390 C.3    94  MET94       0.0692
    103  N         26.0610   20.4770   16.4970 N.3   112  ALA112     -0.1231
    104  CA        25.2600   21.6750   16.7460 C.3   112  ALA112      0.1694
    105  C         24.7680   21.6430   18.1970 C.2   112  ALA112      0.2592
    106  O         23.5630   21.6800   18.4650 O.2   112  ALA112     -0.2718
    107  CB        24.0900   21.7430   15.7660 C.3   112  ALA112      0.0304
    108  N         25.7160   21.5690   19.1280 N.am  113  LEU113     -0.1966
    109  CA        25.4040   21.3440   20.5410 C.3   113  LEU113      0.1728
    110  C         25.6570   22.5690   21.4180 C.2   113  LEU113      0.2616
    111  O         26.3040   23.5300   20.9920 O.2   113  LEU113     -0.2715
    112  CB        26.1940   20.1450   21.0720 C.3   113  LEU113      0.0311
    113  CG        25.9030   18.7750   20.4530 C.3   113  LEU113      0.0022
    114  CD1       26.9450   17.7580   20.9010 C.3   113  LEU113      0.0001
    115  CD2       24.4990   18.2990   20.7990 C.3   113  LEU113      0.0001
    116  N         25.1380   22.5310   22.6420 N.am  114  ASP114     -0.1957
    117  CA        25.2810   23.6460   23.5700 C.3   114  ASP114      0.1840
    118  C         26.1190   23.2960   24.8040 C.2   114  ASP114      0.2622
    119  O         26.4300   24.1740   25.6170 O.2   114  ASP114     -0.2715
    120  CB        23.9020   24.2010   23.9730 C.3   114  ASP114      0.1450
    121  CG        23.0460   23.1900   24.7360 C.2   114  ASP114      0.3671
    122  OD1       22.0580   23.6150   25.3820 O.co2 114  ASP114     -0.2456
    123  OD2       23.3490   21.9760   24.6990 O.co2 114  ASP114     -0.2456
    124  N         26.4850   22.0200   24.9400 N.am  115  ASN115     -0.1972
    125  CA        27.2430   21.5640   26.1110 C.3   115  ASN115      0.1688
    126  C         28.5040   20.7520   25.8000 C.2   115  ASN115      0.2292
    127  O         28.6900   20.2540   24.6800 O.2   115  ASN115     -0.2864
    128  CB        26.3420   20.8170   27.1050 C.3   115  ASN115      0.1181
    129  CG        25.9150   19.4510   26.6040 C.2   115  ASN115      0.2629
    130  OD1       26.4190   18.4260   27.0640 O.2   115  ASN115     -0.2716
    131  ND2       24.9800   19.4300   25.6600 N.am  115  ASN115     -0.0877
    132  N         28.5280   16.3090   25.9270 N.3   118  ALA118     -0.1231
    133  CA        27.9920   15.7090   24.7070 C.3   118  ALA118      0.1694
    134  C         28.9660   15.8600   23.5420 C.2   118  ALA118      0.2591
    135  O         29.1640   14.9190   22.7700 O.2   118  ALA118     -0.2718
    136  CB        26.6420   16.3250   24.3620 C.3   118  ALA118      0.0304
    137  N         29.5640   17.0460   23.4200 N.am  119  ARG119     -0.1980
    138  CA        30.5770   17.3130   22.4010 C.3   119  ARG119      0.1597
    139  C         31.7510   16.3560   22.5460 C.2   119  ARG119      0.2287
    140  O         32.2600   15.8340   21.5510 O.2   119  ARG119     -0.2864
    141  CB        31.0830   18.7480   22.5000 C.3   119  ARG119      0.0334
    142  CG        30.3070   19.7700   21.6910 C.3   119  ARG119      0.0492
    143  CD        31.0740   21.0750   21.7200 C.3   119  ARG119      0.2205
    144  NE        30.4410   22.1700   20.9920 N.pl3 119  ARG119     -0.0865
    145  CZ        29.8190   23.1920   21.5710 C.cat 119  ARG119      0.5346
    146  NH1       29.7290   23.2610   22.8950 N.pl3 119  ARG119      0.1354
    147  NH2       29.2860   24.1490   20.8260 N.pl3 119  ARG119      0.1354
    148  N         30.4160   26.4590   17.0410 N.3   137  GLY137     -0.1210
    149  CA        29.8730   27.1400   18.2110 C.3   137  GLY137      0.1956
    150  C         29.5710   28.6010   17.9380 C.2   137  GLY137      0.2612
    151  O         30.1130   29.1820   16.9940 O.2   137  GLY137     -0.2717
    152  N         28.7000   29.1910   18.7600 N.am  138  THR138     -0.1952
    153  CA        28.3180   30.6020   18.6330 C.3   138  THR138      0.1897
    154  C         28.0690   31.2610   19.9820 C.2   138  THR138      0.2313
    155  O         27.6250   30.6080   20.9200 O.2   138  THR138     -0.2863
    156  CB        27.0200   30.7880   17.8170 C.3   138  THR138      0.1794
    157  OG1       25.9930   29.9390   18.3430 O.3   138  THR138     -0.2208
    158  CG2       27.2370   30.4790   16.3500 C.3   138  THR138      0.0378
    159  N         26.6200   31.8530   26.6040 N.3   168  PRO168     -0.2116
    160  CA        25.8210   32.1030   25.4080 C.3   168  PRO168      0.1372
    161  C         24.3970   31.5890   25.5840 C.2   168  PRO168      0.2244
    162  O         24.1910   30.4060   25.8680 O.2   168  PRO168     -0.2868
    163  CB        26.5520   31.3100   24.3180 C.3   168  PRO168      0.0268
    164  CG        27.3820   30.3190   25.0450 C.3   168  PRO168      0.0207
    165  CD        27.7540   30.9520   26.3340 C.3   168  PRO168      0.0892
    166  N         21.1180   30.2410   24.2820 N.3   170  CYS170     -0.1221
    167  CA        20.6560   29.5380   23.0850 C.3   170  CYS170      0.1808
    168  C         19.1410   29.3610   23.0390 C.2   170  CYS170      0.2601
    169  O         18.4190   29.8700   23.9020 O.2   170  CYS170     -0.2717
    170  CB        21.3840   28.2040   22.9060 C.3   170  CYS170      0.0970
    171  SG        22.6920   28.2890   21.6610 S.3   170  CYS170     -0.0800
    172  N         18.6750   28.6380   22.0220 N.am  171  THR171     -0.1953
    173  CA        17.2460   28.4500   21.7660 C.3   171  THR171      0.1897
    174  C         16.5380   27.6990   22.9020 C.2   171  THR171      0.2313
    175  O         16.7160   26.4900   23.0740 O.2   171  THR171     -0.2863
    176  CB        17.0050   27.7720   20.3970 C.3   171  THR171      0.1794
    177  OG1       17.4380   26.4060   20.4450 O.3   171  THR171     -0.2208
    178  CG2       17.7800   28.5050   19.3140 C.3   171  THR171      0.0378
    179  N         15.6410   26.2760   26.4370 N.3   173  ARG173     -0.1245
    180  CA        15.8410   24.9080   26.9170 C.3   173  ARG173      0.1563
    181  C         14.6770   24.4080   27.7790 C.2   173  ARG173      0.2260
    182  O         14.1820   25.1320   28.6460 O.2   173  ARG173     -0.2867
    183  CB        17.1450   24.8390   27.7150 C.3   173  ARG173      0.0307
    184  CG        17.5930   23.4430   28.0870 C.3   173  ARG173      0.0489
    185  CD        18.3550   22.7880   26.9570 C.3   173  ARG173      0.2205
    186  NE        18.7730   21.4400   27.3240 N.pl3 173  ARG173     -0.0865
    187  CZ        19.8360   20.8210   26.8250 C.cat 173  ARG173      0.5346
    188  NH1       20.6080   21.4270   25.9340 N.pl3 173  ARG173      0.1354
    189  NH2       20.1340   19.5940   27.2280 N.pl3 173  ARG173      0.1354
    190  N         23.7440   32.3680   13.9520 N.3   320  ASN320     -0.1240
    191  CA        23.5430   30.9330   13.7980 C.3   320  ASN320      0.1653
    192  C         23.3080   30.5330   12.3520 C.2   320  ASN320      0.2266
    193  O         23.6610   29.4270   11.9510 O.2   320  ASN320     -0.2867
    194  CB        22.3910   30.4570   14.6810 C.3   320  ASN320      0.1155
    195  CG        22.7570   30.4590   16.1410 C.2   320  ASN320      0.2627
    196  OD1       23.9130   30.2240   16.4960 O.2   320  ASN320     -0.2716
    197  ND2       21.7810   30.7320   17.0000 N.am  320  ASN320     -0.0877
@<TRIPOS>BOND
     1    31    30    2
     2   193   192    2
     3   192   191    1
     4    23    22    2
     5    30    29    1
     6    22    28   am
     7    22    21    1
     8    29    28    1
     9   191   190    1
    10   191   194    1
    11    26    24    1
    12    19    18    2
    13    21    24    1
    14    21    20    1
    15   194   195    1
    16     1     2    1
    17    24    25    1
    18    18    20   am
    19    18    17    1
    20    32    33    1
    21    11    10    2
    22    15    14    2
    23   107   104    1
    24    25    27    1
    25    67    66    2
    26   195   196    2
    27   195   197   am
    28     7     5    1
    29    17    16    1
    30     2     3    1
    31     2     5    1
    32   158   156    1
    33   103   104    1
    34   104   105    1
    35    33    36    1
    36    33    34    1
    37    10     9    1
    38    14    16   am
    39    14    13    1
    40    66    65    1
    41     3     4    2
    42     3     8   am
    43   151   150    2
    44   148   149    1
    45     5     6    1
    46    38    36    1
    47    36    37    1
    48     8     9    1
    49    12    13    1
    50    35    34    2
    51    34    40   am
    52   156   157    1
    53   156   153    1
    54   150   149    1
    55   150   152   am
    56   105   106    2
    57   105   108   am
    58    65    68    1
    59    65    64    1
    60    94    92    1
    61    40    41    1
    62   153   152    1
    63   153   154    1
    64    37    39    1
    65    68    69    1
    66    44    41    1
    67    44    45    1
    68   108   109    1
    69   178   176    1
    70    92    91    1
    71    41    42    1
    72    46    45   ar
    73   154   155    2
    74    45    47   ar
    75    69    70    1
    76   176   177    1
    77   176   173    1
    78   113   115    1
    79   113   114    1
    80   113   112    1
    81   109   112    1
    82   109   110    1
    83    43    42    2
    84    70    71    1
    85    91    88    1
    86    91    93    1
    87    42    48   am
    88   147   145    1
    89   111   110    2
    90   144   145    2
    91   144   143    1
    92    73    74    1
    93   110   116   am
    94    88    87    1
    95    88    89    1
    96    71    72    1
    97   140   139    2
    98   145   146    1
    99    77    74    1
   100    77    78    1
   101   171   170    1
   102   142   143    1
   103   142   141    1
   104   173   172    1
   105   173   174    1
   106    76    75    2
   107    90    89    2
   108    59    58    2
   109   172   168   am
   110    48    49    1
   111    74    75    1
   112    87    83   am
   113    89    95   am
   114   138   141    1
   115   138   139    1
   116   138   137    1
   117    75    81   am
   118   116   117    1
   119    78    80   ar
   120    78    79   ar
   121    84    83    2
   122   135   134    2
   123    83    82    1
   124   174   175    2
   125   170   167    1
   126   168   167    1
   127   168   169    2
   128   167   166    1
   129    58    57    1
   130    49    50    1
   131    49    52    1
   132    56    50   am
   133    56    57    1
   134    81    82    1
   135   137   134   am
   136   134   133    1
   137   117   120    1
   138   117   118    1
   139    82    85    1
   140    95    96    1
   141    50    51    2
   142    57    60    1
   143    60    61    1
   144   120   121    1
   145   163   164    1
   146   163   160    1
   147   136   133    1
   148    52    53    1
   149    96    97    1
   150    96    99    1
   151   127   126    2
   152   123   121   ar
   153   133   132    1
   154   121   122   ar
   155    53    55    1
   156    53    54    1
   157   118   124   am
   158   118   119    2
   159   124   125    1
   160    62    61   ar
   161    97    98    2
   162   164   165    1
   163    61    63   ar
   164    85    86    1
   165   160   161    1
   166   160   159    1
   167   100    99    1
   168   100   101    1
   169   161   162    2
   170   131   129   am
   171   126   125    1
   172   188   187    1
   173   125   128    1
   174   165   159    1
   175   179   180    1
   176   129   130    2
   177   129   128    1
   178   187   189    1
   179   187   186    2
   180   180   183    1
   181   180   181    1
   182   185   186    1
   183   185   184    1
   184   101   102    1
   185   183   184    1
   186   181   182    2
