@<TRIPOS>MOLECULE
tmp/3kyfA03.pdb
 88 82 0 0 0
SMALL
GASTEIGER

@<TRIPOS>ATOM
      1  N         -5.2530   20.7090    2.7440 N.3     1  PRO1       -0.2116
      2  CA        -6.4900   21.3260    3.2790 C.3     1  PRO1        0.1372
      3  C         -7.7700   20.6110    2.8210 C.2     1  PRO1        0.2244
      4  O         -8.0690   19.5170    3.2920 O.2     1  PRO1       -0.2868
      5  CB        -6.4680   22.7810    2.8260 C.3     1  PRO1        0.0268
      6  CG        -4.9720   23.0460    2.7570 C.3     1  PRO1        0.0207
      7  CD        -4.3820   21.7510    2.1670 C.3     1  PRO1        0.0892
      8  N         -9.4600   14.2850    6.2750 N.3   115  ARG115     -0.1231
      9  CA        -8.2880   15.0570    5.8560 C.3   115  ARG115      0.1694
     10  C         -6.9930   14.3630    5.4490 C.2   115  ARG115      0.2592
     11  O         -6.1310   15.0080    4.8910 O.2   115  ARG115     -0.2718
     12  CB        -7.9510   16.0630    6.9570 C.3   115  ARG115      0.0321
     13  CG        -9.1320   16.9540    7.3360 C.3   115  ARG115      0.0489
     14  CD        -8.8350   17.8120    8.5500 C.3   115  ARG115      0.2205
     15  NE        -8.8550   17.0090    9.7700 N.pl3 115  ARG115     -0.0865
     16  CZ        -8.7430   17.5040   10.9960 C.cat 115  ARG115      0.5346
     17  NH1       -8.5970   18.8130   11.1690 N.pl3 115  ARG115      0.1354
     18  NH2       -8.7950   16.6900   12.0410 N.pl3 115  ARG115      0.1354
     19  N         -6.8430   13.0720    5.7220 N.am  116  ARG116     -0.1966
     20  CA        -5.6000   12.3660    5.3820 C.3   116  ARG116      0.1729
     21  C         -5.5570   11.7840    3.9780 C.2   116  ARG116      0.2616
     22  O         -6.4990   11.1090    3.5370 O.2   116  ARG116     -0.2715
     23  CB        -5.3500   11.2480    6.3960 C.3   116  ARG116      0.0348
     24  CG        -5.4660   11.7240    7.8370 C.3   116  ARG116      0.0492
     25  CD        -5.4640   10.5550    8.8100 C.3   116  ARG116      0.2205
     26  NE        -5.4810   11.0450   10.1780 N.pl3 116  ARG116     -0.0865
     27  CZ        -5.4790   10.2670   11.2550 C.cat 116  ARG116      0.5346
     28  NH1       -5.4670    8.9360   11.1330 N.pl3 116  ARG116      0.1354
     29  NH2       -5.4830   10.8250   12.4500 N.pl3 116  ARG116      0.1354
     30  N         -4.4440   12.0430    3.2920 N.am  117  ASN117     -0.1958
     31  CA        -4.2190   11.5800    1.9210 C.3   117  ASN117      0.1819
     32  C         -3.8400   10.1030    1.8130 C.2   117  ASN117      0.2621
     33  O         -3.7600    9.5660    0.7140 O.2   117  ASN117     -0.2715
     34  CB        -3.1180   12.4200    1.2500 C.3   117  ASN117      0.1195
     35  CG        -1.7990   12.4330    2.0440 C.2   117  ASN117      0.2630
     36  OD1       -1.5000   11.5190    2.8220 O.2   117  ASN117     -0.2716
     37  ND2       -0.9930   13.4700    1.8170 N.am  117  ASN117     -0.0877
     38  N         -3.6110    9.4510    2.9480 N.am  118  ALA118     -0.1977
     39  CA        -3.2260    8.0380    2.9520 C.3   118  ALA118      0.1597
     40  C         -3.5510    7.4490    4.3110 C.2   118  ALA118      0.2287
     41  O         -3.4230    8.1340    5.3280 O.2   118  ALA118     -0.2864
     42  CB        -1.7250    7.9020    2.6690 C.3   118  ALA118      0.0319
     43  N         -3.3220    5.5580    7.7740 N.3   120  ARG120     -0.1245
     44  CA        -2.2650    5.3610    8.7530 C.3   120  ARG120      0.1563
     45  C         -2.4570    4.0340    9.4750 C.2   120  ARG120      0.2260
     46  O         -3.4700    3.8350   10.1510 O.2   120  ARG120     -0.2867
     47  CB        -2.2570    6.5120    9.7700 C.3   120  ARG120      0.0307
     48  CG        -1.9990    7.8740    9.1400 C.3   120  ARG120      0.0489
     49  CD        -2.0780    9.0110   10.1400 C.3   120  ARG120      0.2205
     50  NE        -1.9790   10.3060    9.4690 N.pl3 120  ARG120     -0.0865
     51  CZ        -2.0450   11.4800   10.0970 C.cat 120  ARG120      0.5346
     52  NH1       -2.2050   11.5320   11.4110 N.pl3 120  ARG120      0.1354
     53  NH2       -1.9780   12.6050    9.4080 N.pl3 120  ARG120      0.1354
     54  N          1.9100    5.7900    7.2480 N.3   152  SER152     -0.1217
     55  CA         1.0480    5.8490    6.0760 C.3   152  SER152      0.1889
     56  C          2.0340    6.0160    4.9410 C.2   152  SER152      0.2288
     57  O          3.2290    6.1410    5.1900 O.2   152  SER152     -0.2866
     58  CB         0.1210    7.0720    6.1270 C.3   152  SER152      0.2089
     59  OG         0.8660    8.2630    6.0070 O.3   152  SER152     -0.2183
     60  N          2.5160    8.5320    3.2010 N.3   154  THR154     -0.1218
     61  CA         3.0340    9.9010    3.2430 C.3   154  THR154      0.1862
     62  C          3.7460   10.3710    4.5250 C.2   154  THR154      0.2287
     63  O          4.4210   11.4070    4.5210 O.2   154  THR154     -0.2866
     64  CB         1.8950   10.8960    2.9190 C.3   154  THR154      0.1770
     65  OG1        0.8610   10.7920    3.9190 O.3   154  THR154     -0.2211
     66  CG2        1.2960   10.5770    1.5500 C.3   154  THR154      0.0375
     67  N          5.6150   17.9500   11.6750 N.3   193  ARG193     -0.1245
     68  CA         4.3070   18.5710   11.4630 C.3   193  ARG193      0.1563
     69  C          3.5620   18.9080   12.7470 C.2   193  ARG193      0.2260
     70  O          2.8060   19.8890   12.8030 O.2   193  ARG193     -0.2867
     71  CB         3.4480   17.6470   10.6020 C.3   193  ARG193      0.0307
     72  CG         3.9830   17.4540    9.2020 C.3   193  ARG193      0.0489
     73  CD         3.6120   18.6410    8.3420 C.3   193  ARG193      0.2205
     74  NE         4.3160   19.8520    8.7220 N.pl3 193  ARG193     -0.0865
     75  CZ         3.8360   21.0820    8.5510 C.cat 193  ARG193      0.5346
     76  NH1        2.6390   21.2660    8.0170 N.pl3 193  ARG193      0.1354
     77  NH2        4.5750   22.1340    8.8840 N.pl3 193  ARG193      0.1354
     78  N          6.2430   14.1970    8.0550 N.3   209  ARG209     -0.1245
     79  CA         5.8970   13.9640    6.6530 C.3   209  ARG209      0.1563
     80  C          7.1940   13.6260    5.8880 C.2   209  ARG209      0.2260
     81  O          8.1990   14.3320    6.0620 O.2   209  ARG209     -0.2867
     82  CB         5.2750   15.2460    6.0730 C.3   209  ARG209      0.0307
     83  CG         5.0840   15.2550    4.5560 C.3   209  ARG209      0.0489
     84  CD         5.0290   16.6910    3.9980 C.3   209  ARG209      0.2205
     85  NE         3.8700   17.4670    4.4450 N.pl3 209  ARG209     -0.0865
     86  CZ         3.8350   18.8020    4.5080 C.cat 209  ARG209      0.5346
     87  NH1        4.8950   19.5150    4.1570 N.pl3 209  ARG209      0.1354
     88  NH2        2.7420   19.4320    4.9260 N.pl3 209  ARG209      0.1354
@<TRIPOS>BOND
     1    33    32    2
     2    34    31    1
     3    34    35    1
     4    66    64    1
     5    32    31    1
     6    32    38   am
     7    37    35   am
     8    31    30    1
     9    35    36    2
    10     7     1    1
    11     7     6    1
    12    42    39    1
    13     1     2    1
    14     6     5    1
    15     3     2    1
    16     3     4    2
    17     5     2    1
    18    64    61    1
    19    64    65    1
    20    38    39    1
    21    39    40    1
    22    60    61    1
    23    61    62    1
    24    30    21   am
    25    22    21    2
    26    21    20    1
    27    84    85    1
    28    84    83    1
    29    87    86    1
    30    40    41    2
    31    85    86    2
    32    86    88    1
    33    63    62    2
    34    83    82    1
    35    11    10    2
    36    56    57    2
    37    56    55    1
    38    20    19    1
    39    20    23    1
    40    10    19   am
    41    10     9    1
    42     9     8    1
    43     9    12    1
    44    80    81    2
    45    80    79    1
    46    59    58    1
    47    82    79    1
    48    55    58    1
    49    55    54    1
    50    23    24    1
    51    79    78    1
    52    12    13    1
    53    13    14    1
    54    43    44    1
    55    24    25    1
    56    76    75    1
    57    73    74    1
    58    73    72    1
    59    14    15    1
    60    75    74    2
    61    75    77    1
    62    44    45    1
    63    44    47    1
    64    25    26    1
    65    48    47    1
    66    48    49    1
    67    72    71    1
    68    53    51    1
    69    50    51    2
    70    50    49    1
    71    45    46    2
    72    15    16    2
    73    51    52    1
    74    26    27    2
    75    71    68    1
    76    16    17    1
    77    16    18    1
    78    28    27    1
    79    27    29    1
    80    68    67    1
    81    68    69    1
    82    69    70    2
