@<TRIPOS>MOLECULE
tmp/3kyfA02.pdb
 124 118 0 0 0
SMALL
GASTEIGER

@<TRIPOS>ATOM
      1  N         -9.4600   14.2850    6.2750 N.3   115  ARG115     -0.1231
      2  CA        -8.2880   15.0570    5.8560 C.3   115  ARG115      0.1694
      3  C         -6.9930   14.3630    5.4490 C.2   115  ARG115      0.2592
      4  O         -6.1310   15.0080    4.8910 O.2   115  ARG115     -0.2718
      5  CB        -7.9510   16.0630    6.9570 C.3   115  ARG115      0.0321
      6  CG        -9.1320   16.9540    7.3360 C.3   115  ARG115      0.0489
      7  CD        -8.8350   17.8120    8.5500 C.3   115  ARG115      0.2205
      8  NE        -8.8550   17.0090    9.7700 N.pl3 115  ARG115     -0.0865
      9  CZ        -8.7430   17.5040   10.9960 C.cat 115  ARG115      0.5346
     10  NH1       -8.5970   18.8130   11.1690 N.pl3 115  ARG115      0.1354
     11  NH2       -8.7950   16.6900   12.0410 N.pl3 115  ARG115      0.1354
     12  N         -6.8430   13.0720    5.7220 N.am  116  ARG116     -0.1966
     13  CA        -5.6000   12.3660    5.3820 C.3   116  ARG116      0.1729
     14  C         -5.5570   11.7840    3.9780 C.2   116  ARG116      0.2616
     15  O         -6.4990   11.1090    3.5370 O.2   116  ARG116     -0.2715
     16  CB        -5.3500   11.2480    6.3960 C.3   116  ARG116      0.0348
     17  CG        -5.4660   11.7240    7.8370 C.3   116  ARG116      0.0492
     18  CD        -5.4640   10.5550    8.8100 C.3   116  ARG116      0.2205
     19  NE        -5.4810   11.0450   10.1780 N.pl3 116  ARG116     -0.0865
     20  CZ        -5.4790   10.2670   11.2550 C.cat 116  ARG116      0.5346
     21  NH1       -5.4670    8.9360   11.1330 N.pl3 116  ARG116      0.1354
     22  NH2       -5.4830   10.8250   12.4500 N.pl3 116  ARG116      0.1354
     23  N         -4.4440   12.0430    3.2920 N.am  117  ASN117     -0.1972
     24  CA        -4.2190   11.5800    1.9210 C.3   117  ASN117      0.1688
     25  C         -3.8400   10.1030    1.8130 C.2   117  ASN117      0.2292
     26  O         -3.7600    9.5660    0.7140 O.2   117  ASN117     -0.2864
     27  CB        -3.1180   12.4200    1.2500 C.3   117  ASN117      0.1181
     28  CG        -1.7990   12.4330    2.0440 C.2   117  ASN117      0.2629
     29  OD1       -1.5000   11.5190    2.8220 O.2   117  ASN117     -0.2716
     30  ND2       -0.9930   13.4700    1.8170 N.am  117  ASN117     -0.0877
     31  N         -3.3220    5.5580    7.7740 N.3   120  ARG120     -0.1245
     32  CA        -2.2650    5.3610    8.7530 C.3   120  ARG120      0.1563
     33  C         -2.4570    4.0340    9.4750 C.2   120  ARG120      0.2260
     34  O         -3.4700    3.8350   10.1510 O.2   120  ARG120     -0.2867
     35  CB        -2.2570    6.5120    9.7700 C.3   120  ARG120      0.0307
     36  CG        -1.9990    7.8740    9.1400 C.3   120  ARG120      0.0489
     37  CD        -2.0780    9.0110   10.1400 C.3   120  ARG120      0.2205
     38  NE        -1.9790   10.3060    9.4690 N.pl3 120  ARG120     -0.0865
     39  CZ        -2.0450   11.4800   10.0970 C.cat 120  ARG120      0.5346
     40  NH1       -2.2050   11.5320   11.4110 N.pl3 120  ARG120      0.1354
     41  NH2       -1.9780   12.6050    9.4080 N.pl3 120  ARG120      0.1354
     42  N          2.7990    4.8310   14.1280 N.3   150  ASP150     -0.1239
     43  CA         1.9280    4.5570   12.9860 C.3   150  ASP150      0.1674
     44  C          2.6120    5.0800   11.7460 C.2   150  ASP150      0.2266
     45  O          3.5250    5.9100   11.8310 O.2   150  ASP150     -0.2867
     46  CB         0.5090    5.1400   13.1370 C.3   150  ASP150      0.1410
     47  CG         0.4510    6.6560   12.9970 C.2   150  ASP150      0.3668
     48  OD1        1.1740    7.2330   12.1540 O.co2 150  ASP150     -0.2456
     49  OD2       -0.3540    7.2680   13.7310 O.co2 150  ASP150     -0.2456
     50  N          1.9100    5.7900    7.2480 N.3   152  SER152     -0.1217
     51  CA         1.0480    5.8490    6.0760 C.3   152  SER152      0.1889
     52  C          2.0340    6.0160    4.9410 C.2   152  SER152      0.2288
     53  O          3.2290    6.1410    5.1900 O.2   152  SER152     -0.2866
     54  CB         0.1210    7.0720    6.1270 C.3   152  SER152      0.2089
     55  OG         0.8660    8.2630    6.0070 O.3   152  SER152     -0.2183
     56  N          2.5160    8.5320    3.2010 N.3   154  THR154     -0.1203
     57  CA         3.0340    9.9010    3.2430 C.3   154  THR154      0.1994
     58  C          3.7460   10.3710    4.5250 C.2   154  THR154      0.2618
     59  O          4.4210   11.4070    4.5210 O.2   154  THR154     -0.2717
     60  CB         1.8950   10.8960    2.9190 C.3   154  THR154      0.1784
     61  OG1        0.8610   10.7920    3.9190 O.3   154  THR154     -0.2211
     62  CG2        1.2960   10.5770    1.5500 C.3   154  THR154      0.0376
     63  N          3.6020    9.6320    5.6200 N.am  155  GLY155     -0.1942
     64  CA         4.2690   10.0410    6.8420 C.3   155  GLY155      0.2014
     65  C          4.1630    9.0110    7.9490 C.2   155  GLY155      0.2639
     66  O          3.7360    7.8690    7.7220 O.2   155  GLY155     -0.2714
     67  N          4.5510    9.4110    9.1520 N.am  156  CYS156     -0.1953
     68  CA         4.4970    8.5120   10.2900 C.3   156  CYS156      0.1843
     69  C          4.4150    9.2400   11.6190 C.2   156  CYS156      0.2625
     70  O          4.6460   10.4460   11.6900 O.2   156  CYS156     -0.2714
     71  CB         5.7170    7.5760   10.2850 C.3   156  CYS156      0.0997
     72  SG         7.3470    8.3750   10.2030 S.3   156  CYS156     -0.0797
     73  N          4.0630    8.4900   12.6640 N.am  157  LYS157     -0.1977
     74  CA         3.9700    9.0080   14.0220 C.3   157  LYS157      0.1596
     75  C          5.1290    8.4040   14.8310 C.2   157  LYS157      0.2287
     76  O          5.3670    7.1840   14.7900 O.2   157  LYS157     -0.2864
     77  CB         2.6320    8.6200   14.6630 C.3   157  LYS157      0.0298
     78  CG         2.4270    9.2300   16.0390 C.3   157  LYS157      0.0038
     79  CD         1.1480    8.7490   16.6830 C.3   157  LYS157      0.0206
     80  CE        -0.0680    9.1320   15.8370 C.3   157  LYS157      0.1093
     81  NZ        -0.2370   10.6120   15.6910 N.3   157  LYS157     -0.1314
     82  N          5.6150   17.9500   11.6750 N.3   193  ARG193     -0.1231
     83  CA         4.3070   18.5710   11.4630 C.3   193  ARG193      0.1694
     84  C          3.5620   18.9080   12.7470 C.2   193  ARG193      0.2592
     85  O          2.8060   19.8890   12.8030 O.2   193  ARG193     -0.2718
     86  CB         3.4480   17.6470   10.6020 C.3   193  ARG193      0.0321
     87  CG         3.9830   17.4540    9.2020 C.3   193  ARG193      0.0489
     88  CD         3.6120   18.6410    8.3420 C.3   193  ARG193      0.2205
     89  NE         4.3160   19.8520    8.7220 N.pl3 193  ARG193     -0.0865
     90  CZ         3.8360   21.0820    8.5510 C.cat 193  ARG193      0.5346
     91  NH1        2.6390   21.2660    8.0170 N.pl3 193  ARG193      0.1354
     92  NH2        4.5750   22.1340    8.8840 N.pl3 193  ARG193      0.1354
     93  N          3.7590   18.0800   13.7680 N.am  194  HIS194     -0.1976
     94  CA         3.1200   18.3000   15.0520 C.3   194  HIS194      0.1656
     95  C          3.8120   17.4970   16.1450 C.2   194  HIS194      0.2291
     96  O          4.4430   16.4710   15.8900 O.2   194  HIS194     -0.2864
     97  CB         1.6190   17.9510   14.9930 C.3   194  HIS194      0.0771
     98  CG         1.3320   16.4850   14.8560 C.ar  194  HIS194      0.0820
     99  ND1        1.2080   15.6450   15.9410 N.ar  194  HIS194     -0.2267
    100  CD2        1.1590   15.7080   13.7590 C.ar  194  HIS194      0.1154
    101  CE1        0.9710   14.4140   15.5230 C.ar  194  HIS194      0.1986
    102  NE2        0.9380   14.4230   14.2020 N.ar  194  HIS194     -0.2212
    103  N          4.5150   13.9450   14.7080 N.3   207  GLY207     -0.1210
    104  CA         4.0060   13.5150   13.4250 C.3   207  GLY207      0.1956
    105  C          4.9210   14.1580   12.4140 C.2   207  GLY207      0.2612
    106  O          5.1900   15.3660   12.4850 O.2   207  GLY207     -0.2717
    107  N          5.4300   13.3560   11.4890 N.am  208  VAL208     -0.1965
    108  CA         6.3080   13.8850   10.4580 C.3   208  VAL208      0.1727
    109  C          5.8030   13.4640    9.0740 C.2   208  VAL208      0.2616
    110  O          5.0430   12.5000    8.9470 O.2   208  VAL208     -0.2715
    111  CB         7.7580   13.3830   10.6540 C.3   208  VAL208      0.0290
    112  CG1        8.2390   13.7220   12.0690 C.3   208  VAL208      0.0023
    113  CG2        7.8340   11.8770   10.3850 C.3   208  VAL208      0.0023
    114  N          6.2430   14.1970    8.0550 N.am  209  ARG209     -0.1977
    115  CA         5.8970   13.9640    6.6530 C.3   209  ARG209      0.1597
    116  C          7.1940   13.6260    5.8880 C.2   209  ARG209      0.2287
    117  O          8.1990   14.3320    6.0620 O.2   209  ARG209     -0.2864
    118  CB         5.2750   15.2460    6.0730 C.3   209  ARG209      0.0334
    119  CG         5.0840   15.2550    4.5560 C.3   209  ARG209      0.0492
    120  CD         5.0290   16.6910    3.9980 C.3   209  ARG209      0.2205
    121  NE         3.8700   17.4670    4.4450 N.pl3 209  ARG209     -0.0865
    122  CZ         3.8350   18.8020    4.5080 C.cat 209  ARG209      0.5346
    123  NH1        4.8950   19.5150    4.1570 N.pl3 209  ARG209      0.1354
    124  NH2        2.7420   19.4320    4.9260 N.pl3 209  ARG209      0.1354
@<TRIPOS>BOND
     1    26    25    2
     2    27    24    1
     3    27    28    1
     4    62    60    1
     5    25    24    1
     6    30    28   am
     7    24    23    1
     8    28    29    2
     9    60    57    1
    10    60    61    1
    11    56    57    1
    12    57    58    1
    13    23    14   am
    14    15    14    2
    15    14    13    1
    16   120   121    1
    17   120   119    1
    18   123   122    1
    19   121   122    2
    20   122   124    1
    21    59    58    2
    22    58    63   am
    23   119   118    1
    24     4     3    2
    25    52    53    2
    26    52    51    1
    27    13    12    1
    28    13    16    1
    29     3    12   am
    30     3     2    1
    31    63    64    1
    32     2     1    1
    33     2     5    1
    34   116   117    2
    35   116   115    1
    36    55    54    1
    37   118   115    1
    38    51    54    1
    39    51    50    1
    40    16    17    1
    41   115   114    1
    42    64    65    1
    43     5     6    1
    44     6     7    1
    45    66    65    2
    46    31    32    1
    47    17    18    1
    48    65    67   am
    49    91    90    1
    50   114   109   am
    51    88    89    1
    52    88    87    1
    53     7     8    1
    54    90    89    2
    55    90    92    1
    56    32    33    1
    57    32    35    1
    58    18    19    1
    59   110   109    2
    60   109   108    1
    61    36    35    1
    62    36    37    1
    63    67    68    1
    64    87    86    1
    65    41    39    1
    66    38    39    2
    67    38    37    1
    68    33    34    2
    69     8     9    2
    70    39    40    1
    71    19    20    2
    72    72    71    1
    73    71    68    1
    74    68    69    1
    75   113   111    1
    76   108   111    1
    77   108   107    1
    78    86    83    1
    79   111   112    1
    80     9    10    1
    81     9    11    1
    82    21    20    1
    83    20    22    1
    84    83    82    1
    85    83    84    1
    86   107   105   am
    87    69    70    2
    88    69    73   am
    89    44    45    2
    90    44    43    1
    91    48    47   ar
    92   105   106    2
    93   105   104    1
    94    73    74    1
    95    84    85    2
    96    84    93   am
    97    43    46    1
    98    43    42    1
    99    47    46    1
   100    47    49   ar
   101   104   103    1
   102   100   102   ar
   103   100    98   ar
   104    93    94    1
   105    74    77    1
   106    74    75    1
   107   102   101   ar
   108    77    78    1
   109    76    75    2
   110    98    97    1
   111    98    99   ar
   112    97    94    1
   113    94    95    1
   114   101    99   ar
   115    81    80    1
   116    80    79    1
   117    96    95    2
   118    78    79    1
