@<TRIPOS>MOLECULE
tmp/3kygA02.pdb
 127 120 0 0 0
SMALL
GASTEIGER

@<TRIPOS>ATOM
      1  N          9.1430  -23.1210   -3.7460 N.3   115  ARG115     -0.1231
      2  CA         8.2640  -22.4380   -2.7850 C.3   115  ARG115      0.1694
      3  C          6.7780  -22.6080   -3.0920 C.2   115  ARG115      0.2592
      4  O          5.9680  -22.6150   -2.1740 O.2   115  ARG115     -0.2718
      5  CB         8.5840  -20.9390   -2.6860 C.3   115  ARG115      0.0321
      6  CG         9.8820  -20.5850   -1.9520 C.3   115  ARG115      0.0489
      7  CD         9.8940  -21.0760   -0.5180 C.3   115  ARG115      0.2205
      8  NE         8.7490  -20.6090    0.2660 N.pl3 115  ARG115     -0.0865
      9  CZ         8.5290  -19.3470    0.6260 C.cat 115  ARG115      0.5346
     10  NH1        9.3860  -18.3930    0.2680 N.pl3 115  ARG115      0.1354
     11  NH2        7.4560  -19.0430    1.3690 N.pl3 115  ARG115      0.1354
     12  N          6.4120  -22.7300   -4.3680 N.am  116  ARG116     -0.1966
     13  CA         4.9980  -22.9060   -4.7260 C.3   116  ARG116      0.1729
     14  C          4.5730  -24.3010   -4.3120 C.2   116  ARG116      0.2616
     15  O          5.2040  -25.2850   -4.6850 O.2   116  ARG116     -0.2715
     16  CB         4.7680  -22.7240   -6.2350 C.3   116  ARG116      0.0348
     17  CG         4.9070  -21.2840   -6.6870 C.3   116  ARG116      0.0492
     18  CD         4.6020  -21.0330   -8.1730 C.3   116  ARG116      0.2205
     19  NE         5.0130  -19.6670   -8.5150 N.pl3 116  ARG116     -0.0865
     20  CZ         4.9860  -19.1340   -9.7350 C.cat 116  ARG116      0.5346
     21  NH1        5.3910  -17.8880   -9.9190 N.pl3 116  ARG116      0.1354
     22  NH2        4.5520  -19.8300  -10.7650 N.pl3 116  ARG116      0.1354
     23  N          3.4940  -24.3860   -3.5480 N.am  117  LYS117     -0.1963
     24  CA         3.0090  -25.6670   -3.0520 C.3   117  LYS117      0.1728
     25  C          2.2190  -26.4880   -4.0640 C.2   117  LYS117      0.2616
     26  O          1.9860  -27.6780   -3.8520 O.2   117  LYS117     -0.2715
     27  CB         2.1380  -25.4370   -1.8170 C.3   117  LYS117      0.0311
     28  CG         0.8400  -24.6850   -2.1340 C.3   117  LYS117      0.0038
     29  CD        -0.0400  -24.5160   -0.9080 C.3   117  LYS117      0.0206
     30  CE        -1.4300  -24.0470   -1.2970 C.3   117  LYS117      0.1093
     31  NZ        -2.3560  -23.9780   -0.1270 N.3   117  LYS117     -0.1314
     32  N          1.8250  -25.8670   -5.1630 N.am  118  GLU118     -0.1977
     33  CA         1.0230  -26.5400   -6.1740 C.3   118  GLU118      0.1602
     34  C          1.2040  -25.8340   -7.5190 C.2   118  GLU118      0.2287
     35  O          1.7130  -24.7180   -7.5730 O.2   118  GLU118     -0.2864
     36  CB        -0.4500  -26.5100   -5.7500 C.3   118  GLU118      0.0415
     37  CG        -1.0280  -25.0920   -5.6670 C.3   118  GLU118      0.1163
     38  CD        -2.3830  -25.0330   -4.9820 C.2   118  GLU118      0.3649
     39  OE1       -3.0560  -23.9860   -5.0790 O.co2 118  GLU118     -0.2457
     40  OE2       -2.7740  -26.0250   -4.3350 O.co2 118  GLU118     -0.2457
     41  N          0.2980  -23.8680  -11.1580 N.3   120  ARG120     -0.1245
     42  CA        -0.5920  -22.8030  -11.5830 C.3   120  ARG120      0.1563
     43  C         -0.7910  -23.0360  -13.0620 C.2   120  ARG120      0.2260
     44  O          0.1740  -23.2360  -13.7930 O.2   120  ARG120     -0.2867
     45  CB         0.0460  -21.4370  -11.3510 C.3   120  ARG120      0.0307
     46  CG         0.4470  -21.2230   -9.9070 C.3   120  ARG120      0.0489
     47  CD         1.0160  -19.8480   -9.6760 C.3   120  ARG120      0.2205
     48  NE         1.3850  -19.6840   -8.2770 N.pl3 120  ARG120     -0.0865
     49  CZ         1.9740  -18.6020   -7.7920 C.cat 120  ARG120      0.5346
     50  NH1        2.2510  -17.5900   -8.6040 N.pl3 120  ARG120      0.1354
     51  NH2        2.3000  -18.5400   -6.5050 N.pl3 120  ARG120      0.1354
     52  N         -3.3640  -16.9730  -14.8910 N.3   142  ASP142     -0.1239
     53  CA        -3.0510  -18.3100  -14.4170 C.3   142  ASP142      0.1674
     54  C         -3.9570  -18.6010  -13.2430 C.2   142  ASP142      0.2266
     55  O         -4.4750  -17.6800  -12.5920 O.2   142  ASP142     -0.2867
     56  CB        -1.5420  -18.5260  -14.1410 C.3   142  ASP142      0.1410
     57  CG        -1.0440  -17.9230  -12.8420 C.2   142  ASP142      0.3668
     58  OD1        0.1250  -17.5000  -12.8690 O.co2 142  ASP142     -0.2456
     59  OD2       -1.7490  -17.8940  -11.8030 O.co2 142  ASP142     -0.2456
     60  N         -4.6950  -21.4820   -9.9150 N.3   144  SER144     -0.1217
     61  CA        -4.2940  -22.6510   -9.1470 C.3   144  SER144      0.1889
     62  C         -5.4620  -22.9310   -8.2220 C.2   144  SER144      0.2288
     63  O         -6.4540  -22.1910   -8.2240 O.2   144  SER144     -0.2866
     64  CB        -3.0320  -22.3460   -8.3350 C.3   144  SER144      0.2089
     65  OG        -3.2510  -21.3180   -7.3770 O.3   144  SER144     -0.2183
     66  N         -5.4320  -22.5260   -5.1090 N.3   146  SER146     -0.1202
     67  CA        -5.4190  -21.5460   -4.0250 C.3   146  SER146      0.2020
     68  C         -5.3140  -20.0950   -4.4200 C.2   146  SER146      0.2619
     69  O         -5.4420  -19.2030   -3.5700 O.2   146  SER146     -0.2717
     70  CB        -4.2870  -21.8600   -3.0360 C.3   146  SER146      0.2103
     71  OG        -4.4190  -23.1740   -2.5290 O.3   146  SER146     -0.2182
     72  N         -5.0790  -19.8300   -5.6970 N.am  147  GLY147     -0.1942
     73  CA        -4.9830  -18.4390   -6.0990 C.3   147  GLY147      0.2014
     74  C         -4.9780  -18.2890   -7.5930 C.2   147  GLY147      0.2639
     75  O         -5.2560  -19.2460   -8.2970 O.2   147  GLY147     -0.2714
     76  N         -4.6670  -17.0870   -8.0690 N.am  148  CYS148     -0.1953
     77  CA        -4.6140  -16.8200   -9.5000 C.3   148  CYS148      0.1843
     78  C         -3.7900  -15.5640   -9.7900 C.2   148  CYS148      0.2625
     79  O         -3.4180  -14.8220   -8.8740 O.2   148  CYS148     -0.2714
     80  CB        -6.0330  -16.6320  -10.0550 C.3   148  CYS148      0.0997
     81  SG        -6.9460  -15.1830   -9.3880 S.3   148  CYS148     -0.0797
     82  N         -3.5070  -15.3480  -11.0690 N.am  149  ARG149     -0.1977
     83  CA        -2.7760  -14.1710  -11.5340 C.3   149  ARG149      0.1597
     84  C         -3.6960  -13.4770  -12.5210 C.2   149  ARG149      0.2287
     85  O         -4.3190  -14.1340  -13.3720 O.2   149  ARG149     -0.2864
     86  CB        -1.4710  -14.5760  -12.2290 C.3   149  ARG149      0.0334
     87  CG        -0.7120  -13.4540  -12.9870 C.3   149  ARG149      0.0492
     88  CD         0.8110  -13.7580  -12.9820 C.3   149  ARG149      0.2205
     89  NE         1.2140  -13.8320  -11.5860 N.pl3 149  ARG149     -0.0865
     90  CZ         1.7570  -12.8290  -10.9050 C.cat 149  ARG149      0.5346
     91  NH1        2.0300  -11.6690  -11.5150 N.pl3 149  ARG149      0.1354
     92  NH2        1.8660  -12.9300   -9.5750 N.pl3 149  ARG149      0.1354
     93  N         -2.1010  -10.5260   -2.9790 N.3   187  CYS187     -0.1221
     94  CA        -0.8760  -10.9820   -2.3080 C.3   187  CYS187      0.1808
     95  C          0.3490  -10.2410   -2.8610 C.2   187  CYS187      0.2601
     96  O          1.2750   -9.8830   -2.1150 O.2   187  CYS187     -0.2717
     97  CB        -0.7050  -12.4780   -2.5240 C.3   187  CYS187      0.0970
     98  SG         0.9530  -13.0740   -2.1520 S.3   187  CYS187     -0.0800
     99  N          0.3700  -10.0250   -4.1730 N.am  188  ASN188     -0.1974
    100  CA         1.4840   -9.3140   -4.7800 C.3   188  ASN188      0.1688
    101  C          1.0370   -8.5600   -6.0170 C.2   188  ASN188      0.2292
    102  O         -0.0200   -8.8200   -6.5690 O.2   188  ASN188     -0.2864
    103  CB         2.6440  -10.2780   -5.1010 C.3   188  ASN188      0.1181
    104  CG         2.2460  -11.4000   -6.0380 C.2   188  ASN188      0.2629
    105  OD1        2.2710  -11.2400   -7.2580 O.2   188  ASN188     -0.2716
    106  ND2        1.8700  -12.5490   -5.4690 N.am  188  ASN188     -0.0877
    107  N         -1.1400  -10.8660   -8.1210 N.3   199  GLY199     -0.1210
    108  CA        -1.1710  -12.2500   -7.6550 C.3   199  GLY199      0.1956
    109  C         -2.1940  -12.2270   -6.5190 C.2   199  GLY199      0.2612
    110  O         -2.0740  -11.4250   -5.5860 O.2   199  GLY199     -0.2717
    111  N         -3.1890  -13.1070   -6.5860 N.am  200  LEU200     -0.1965
    112  CA        -4.2730  -13.1530   -5.5970 C.3   200  LEU200      0.1728
    113  C         -4.3080  -14.4600   -4.8230 C.2   200  LEU200      0.2616
    114  O         -4.0530  -15.5200   -5.3900 O.2   200  LEU200     -0.2715
    115  CB        -5.6100  -12.9830   -6.3360 C.3   200  LEU200      0.0311
    116  CG        -6.8770  -12.6970   -5.5530 C.3   200  LEU200      0.0022
    117  CD1       -6.8700  -11.2450   -5.1230 C.3   200  LEU200      0.0001
    118  CD2       -8.0840  -12.9590   -6.4390 C.3   200  LEU200      0.0001
    119  N         -4.6140  -14.3950   -3.5300 N.am  201  GLU201     -0.1977
    120  CA        -4.7240  -15.6250   -2.7320 C.3   201  GLU201      0.1602
    121  C         -6.1920  -15.7650   -2.3260 C.2   201  GLU201      0.2287
    122  O         -6.7270  -14.9210   -1.6120 O.2   201  GLU201     -0.2864
    123  CB        -3.8380  -15.5540   -1.4870 C.3   201  GLU201      0.0415
    124  CG        -4.0200  -16.7430   -0.5260 C.3   201  GLU201      0.1163
    125  CD        -2.9820  -16.7590    0.5890 C.2   201  GLU201      0.3649
    126  OE1       -2.5810  -15.6640    1.0540 O.co2 201  GLU201     -0.2457
    127  OE2       -2.5670  -17.8600    1.0060 O.co2 201  GLU201     -0.2457
@<TRIPOS>BOND
     1    52    53    1
     2    53    56    1
     3    53    54    1
     4    56    57    1
     5    44    43    2
     6    85    84    2
     7    54    55    2
     8    43    42    1
     9    87    88    1
    10    87    86    1
    11    88    89    1
    12    58    57   ar
    13    57    59   ar
    14    84    83    1
    15    86    83    1
    16    89    90    2
    17    42    45    1
    18    42    41    1
    19    83    82    1
    20    91    90    1
    21    45    46    1
    22    82    78   am
    23    90    92    1
    24    22    20    1
    25    80    77    1
    26    80    81    1
    27    21    20    1
    28    60    61    1
    29    46    47    1
    30    78    77    1
    31    78    79    2
    32    20    19    2
    33    47    48    1
    34    77    76    1
    35    61    64    1
    36    61    62    1
    37    50    49    1
    38    19    18    1
    39    64    65    1
    40    75    74    2
    41    48    49    2
    42    63    62    2
    43    18    17    1
    44   107   108    1
    45    76    74   am
    46    49    51    1
    47   108   109    1
    48    74    73    1
    49    35    34    2
    50    34    33    1
    51   105   104    2
    52    17    16    1
    53   111   109   am
    54   111   112    1
    55   102   101    2
    56   109   110    2
    57   118   116    1
    58   115   112    1
    59   115   116    1
    60    16    13    1
    61    33    36    1
    62    33    32    1
    63    73    72    1
    64   104   106   am
    65   104   103    1
    66   101   100    1
    67    36    37    1
    68    72    68   am
    69    37    38    1
    70   112   113    1
    71   116   117    1
    72   114   113    2
    73    32    25   am
    74    66    67    1
    75   103   100    1
    76    39    38   ar
    77    38    40   ar
    78   113   119   am
    79   100    99    1
    80    13    12    1
    81    13    14    1
    82    15    14    2
    83    68    67    1
    84    68    69    2
    85    12     3   am
    86    14    23   am
    87    99    95   am
    88    25    26    2
    89    25    24    1
    90    67    70    1
    91     1     2    1
    92    23    24    1
    93   119   120    1
    94     3     2    1
    95     3     4    2
    96    24    27    1
    97    70    71    1
    98    93    94    1
    99    95    94    1
   100    95    96    2
   101     2     5    1
   102   120   121    1
   103   120   123    1
   104     5     6    1
   105    97    94    1
   106    97    98    1
   107   121   122    2
   108    28    27    1
   109    28    29    1
   110     6     7    1
   111   123   124    1
   112    30    29    1
   113    30    31    1
   114   124   125    1
   115     7     8    1
   116     8     9    2
   117    10     9    1
   118   125   127   ar
   119   125   126   ar
   120     9    11    1
