@<TRIPOS>MOLECULE
tmp/3kyqA00.pdb
 148 141 0 0 0
SMALL
GASTEIGER

@<TRIPOS>ATOM
      1  N         -0.3970    5.9750   16.0010 N.3     5  TYR5       -0.1241
      2  CA        -0.3890    7.2730   16.6530 C.3     5  TYR5        0.1605
      3  C         -1.5410    7.4520   17.6200 C.2     5  TYR5        0.2264
      4  O         -1.3960    8.1220   18.6450 O.2     5  TYR5       -0.2867
      5  CB        -0.4110    8.3850   15.6110 C.3     5  TYR5        0.0534
      6  CG         0.7670    8.3500   14.6730 C.ar    5  TYR5       -0.0201
      7  CD1        0.6660    7.7380   13.4300 C.ar    5  TYR5       -0.0009
      8  CD2        1.9880    8.9270   15.0340 C.ar    5  TYR5       -0.0009
      9  CE1        1.7400    7.7030   12.5660 C.ar    5  TYR5        0.0417
     10  CE2        3.0690    8.9010   14.1750 C.ar    5  TYR5        0.0417
     11  CZ         2.9390    8.2870   12.9400 C.ar    5  TYR5        0.1957
     12  OH         4.0060    8.2470   12.0790 O.3     5  TYR5       -0.2866
     13  N          6.8680   10.8510   18.5040 N.3    28  SER28      -0.1202
     14  CA         7.7080   11.1000   17.3240 C.3    28  SER28       0.2020
     15  C          7.5930   12.5320   16.7910 C.2    28  SER28       0.2618
     16  O          8.4030   12.9470   15.9550 O.2    28  SER28      -0.2717
     17  CB         7.4520   10.0730   16.2140 C.3    28  SER28       0.2103
     18  OG         6.1200   10.1320   15.7420 O.3    28  SER28      -0.2182
     19  N          6.5980   13.2750   17.2800 N.am   29  PHE29      -0.1975
     20  CA         6.4050   14.6820   16.9180 C.3    29  PHE29       0.1639
     21  C          7.2030   15.6010   17.8410 C.2    29  PHE29       0.2290
     22  O          7.5790   15.2100   18.9530 O.2    29  PHE29      -0.2864
     23  CB         4.9210   15.0600   16.9840 C.3    29  PHE29       0.0560
     24  CG         4.0630   14.3670   15.9570 C.ar   29  PHE29      -0.0200
     25  CD1        3.5290   13.1080   16.2100 C.ar   29  PHE29      -0.0042
     26  CD2        3.7740   14.9850   14.7410 C.ar   29  PHE29      -0.0042
     27  CE1        2.7350   12.4680   15.2630 C.ar   29  PHE29      -0.0003
     28  CE2        2.9790   14.3480   13.7890 C.ar   29  PHE29      -0.0003
     29  CZ         2.4600   13.0860   14.0530 C.ar   29  PHE29      -0.0000
     30  N          4.3650   20.4480   19.1400 N.3    33  GLN33      -0.1245
     31  CA         3.2880   20.0180   18.2380 C.3    33  GLN33       0.1566
     32  C          2.3250   19.0310   18.8900 C.2    33  GLN33       0.2260
     33  O          1.1450   18.9900   18.5350 O.2    33  GLN33      -0.2867
     34  CB         3.8770   19.3920   16.9730 C.3    33  GLN33       0.0367
     35  CG         4.6240   20.3780   16.0920 C.3    33  GLN33       0.0905
     36  CD         5.3450   19.7200   14.9350 C.2    33  GLN33       0.2608
     37  OE1        5.7970   18.5770   15.0250 O.2    33  GLN33      -0.2717
     38  NE2        5.4620   20.4470   13.8370 N.am   33  GLN33      -0.0878
     39  N         -1.4260   17.8800   17.7290 N.3    37  VAL37      -0.1245
     40  CA        -1.5260   16.6640   16.9180 C.3    37  VAL37       0.1561
     41  C         -2.5250   15.6810   17.5440 C.2    37  VAL37       0.2260
     42  O         -3.2560   14.9960   16.8330 O.2    37  VAL37      -0.2867
     43  CB        -0.1280   16.0100   16.6990 C.3    37  VAL37       0.0252
     44  CG1       -0.2410   14.6470   16.0140 C.3    37  VAL37       0.0019
     45  CG2        0.7710   16.9400   15.8730 C.3    37  VAL37       0.0019
     46  N         -6.0420   17.0690   16.8850 N.3    40  PHE40      -0.1227
     47  CA        -6.3970   16.8500   15.4920 C.3    40  PHE40       0.1736
     48  C         -6.6760   15.3880   15.1560 C.2    40  PHE40       0.2595
     49  O         -7.4610   15.1000   14.2550 O.2    40  PHE40      -0.2718
     50  CB        -5.3620   17.4340   14.5340 C.3    40  PHE40       0.0547
     51  CG        -5.9690   17.9200   13.2580 C.ar   40  PHE40      -0.0202
     52  CD1       -6.0580   17.0830   12.1500 C.ar   40  PHE40      -0.0042
     53  CD2       -6.5080   19.2010   13.1810 C.ar   40  PHE40      -0.0042
     54  CE1       -6.6530   17.5230   10.9710 C.ar   40  PHE40      -0.0003
     55  CE2       -7.1000   19.6520   12.0130 C.ar   40  PHE40      -0.0003
     56  CZ        -7.1740   18.8120   10.9040 C.ar   40  PHE40      -0.0000
     57  N         -6.0490   14.4710   15.8830 N.am   41  MET41      -0.1979
     58  CA        -6.3430   13.0560   15.7010 C.3    41  MET41       0.1605
     59  C         -7.6610   12.6640   16.3520 C.2    41  MET41       0.2287
     60  O         -8.3480   11.7840   15.8620 O.2    41  MET41      -0.2864
     61  CB        -5.1960   12.1810   16.1940 C.3    41  MET41       0.0413
     62  CG        -4.0180   12.1910   15.2440 C.3    41  MET41       0.0598
     63  SD        -2.6220   11.2370   15.8140 S.3    41  MET41      -0.1393
     64  CE        -2.5420   11.6830   17.5420 C.3    41  MET41       0.0692
     65  N        -10.2030   14.2640   13.9100 N.3    44  THR44      -0.1218
     66  CA       -10.2490   13.4470   12.7050 C.3    44  THR44       0.1862
     67  C        -10.9850   12.1340   12.9670 C.2    44  THR44       0.2287
     68  O        -11.8010   11.7070   12.1480 O.2    44  THR44      -0.2866
     69  CB        -8.8210   13.1740   12.1530 C.3    44  THR44       0.1770
     70  OG1       -8.1710   14.4190   11.8520 O.3    44  THR44      -0.2211
     71  CG2       -8.8740   12.3260   10.8940 C.3    44  THR44       0.0375
     72  N         -5.0110   10.3090    4.0630 N.3    62  GLU62      -0.1231
     73  CA        -4.8170   11.7460    4.0040 C.3    62  GLU62       0.1699
     74  C         -3.4140   12.0750    3.4980 C.2    62  GLU62       0.2592
     75  O         -3.2020   12.1720    2.2840 O.2    62  GLU62      -0.2718
     76  CB        -5.1330   12.4130    5.3500 C.3    62  GLU62       0.0402
     77  CG        -5.3930   13.9250    5.2590 C.3    62  GLU62       0.1161
     78  CD        -6.1580   14.3190    3.9970 C.2    62  GLU62       0.3649
     79  OE1       -5.6050   15.1070    3.1990 O.co2  62  GLU62      -0.2457
     80  OE2       -7.2920   13.8260    3.7910 O.co2  62  GLU62      -0.2457
     81  N         -2.4560   12.2420    4.4020 N.am   63  GLN63      -0.1966
     82  CA        -1.0920   12.5100    3.9650 C.3    63  GLN63       0.1733
     83  C         -0.3540   11.1710    3.8710 C.2    63  GLN63       0.2616
     84  O         -0.6940   10.3340    3.0270 O.2    63  GLN63      -0.2715
     85  CB        -0.3960   13.5330    4.8830 C.3    63  GLN63       0.0408
     86  CG        -1.1160   14.8960    4.9710 C.3    63  GLN63       0.0908
     87  CD        -0.9470   15.7550    3.7140 C.2    63  GLN63       0.2608
     88  OE1        0.0960   16.3830    3.5100 O.2    63  GLN63      -0.2717
     89  NE2       -1.9830   15.7970    2.8790 N.am   63  GLN63      -0.0878
     90  N          0.6320   10.9620    4.7370 N.am   64  GLU64      -0.1963
     91  CA         1.3050    9.6680    4.8430 C.3    64  GLU64       0.1733
     92  C          0.5930    8.7540    5.8540 C.2    64  GLU64       0.2616
     93  O          1.0790    7.6630    6.1720 O.2    64  GLU64      -0.2715
     94  CB         2.7740    9.8630    5.2300 C.3    64  GLU64       0.0429
     95  CG         3.0160   11.0290    6.1900 C.3    64  GLU64       0.1163
     96  CD         4.0240   10.6890    7.2720 C.2    64  GLU64       0.3649
     97  OE1        3.7650    9.7340    8.0420 O.co2  64  GLU64      -0.2457
     98  OE2        5.0640   11.3800    7.3580 O.co2  64  GLU64      -0.2457
     99  N         -0.5630    9.2130    6.3380 N.am   65  TYR65      -0.1974
    100  CA        -1.3270    8.5210    7.3720 C.3    65  TYR65       0.1639
    101  C         -2.4980    7.7300    6.8020 C.2    65  TYR65       0.2290
    102  O         -2.9810    8.0040    5.7060 O.2    65  TYR65      -0.2864
    103  CB        -1.8470    9.5200    8.4180 C.3    65  TYR65       0.0560
    104  CG        -0.7730   10.4030    9.0140 C.ar   65  TYR65      -0.0198
    105  CD1        0.0920    9.9190    9.9960 C.ar   65  TYR65      -0.0009
    106  CD2       -0.6220   11.7260    8.5940 C.ar   65  TYR65      -0.0009
    107  CE1        1.0870   10.7270   10.5390 C.ar   65  TYR65       0.0417
    108  CE2        0.3680   12.5460    9.1320 C.ar   65  TYR65       0.0417
    109  CZ         1.2170   12.0400   10.1030 C.ar   65  TYR65       0.1957
    110  OH         2.1950   12.8460   10.6340 O.3    65  TYR65      -0.2866
    111  N         -6.2340    6.2760    8.3830 N.3    67  CYS67      -0.1235
    112  CA        -7.1690    6.1840    9.5070 C.3    67  CYS67       0.1677
    113  C         -8.1840    5.0780    9.2950 C.2    67  CYS67       0.2270
    114  O         -9.0600    5.1900    8.4410 O.2    67  CYS67      -0.2867
    115  CB        -7.9000    7.5090    9.7300 C.3    67  CYS67       0.0956
    116  SG        -6.8250    8.9320    9.7000 S.3    67  CYS67      -0.0801
    117  N         -5.3440    5.5310   14.1090 N.3    81  ILE81      -0.1245
    118  CA        -4.5570    6.3310   13.1770 C.3    81  ILE81       0.1561
    119  C         -3.1120    5.8230   13.1500 C.2    81  ILE81       0.2260
    120  O         -2.4370    5.7600   14.1810 O.2    81  ILE81      -0.2867
    121  CB        -4.6690    7.8510   13.4670 C.3    81  ILE81       0.0252
    122  CG1       -6.1240    8.2970   13.2710 C.3    81  ILE81       0.0019
    123  CG2       -3.7150    8.6530   12.5640 C.3    81  ILE81       0.0019
    124  CD1       -6.4350    9.6990   13.7350 C.3    81  ILE81       0.0001
    125  N         -9.9920   13.1250    2.9940 N.3   158  MET158     -0.1245
    126  CA       -11.0060   13.4570    3.9830 C.3   158  MET158      0.1570
    127  C        -12.1930   14.1040    3.2770 C.2   158  MET158      0.2261
    128  O        -13.3220   14.0380    3.7650 O.2   158  MET158     -0.2867
    129  CB       -10.4360   14.3840    5.0580 C.3   158  MET158      0.0387
    130  CG       -11.1840   14.3390    6.3990 C.3   158  MET158      0.0595
    131  SD       -11.1550   12.7270    7.2360 S.3   158  MET158     -0.1393
    132  CE        -9.3850   12.4610    7.4210 C.3   158  MET158      0.0692
    133  N         -2.5660   26.1590   14.1140 N.3   185  PHE185     -0.1241
    134  CA        -1.6470   25.1510   13.5660 C.3   185  PHE185      0.1605
    135  C         -2.1500   24.5600   12.2510 C.2   185  PHE185      0.2264
    136  O         -1.3630   24.3000   11.3440 O.2   185  PHE185     -0.2867
    137  CB        -1.4740   24.0030   14.5670 C.3   185  PHE185      0.0534
    138  CG        -0.3530   24.1900   15.5530 C.ar  185  PHE185     -0.0203
    139  CD1        0.5820   23.1740   15.7450 C.ar  185  PHE185     -0.0042
    140  CD2       -0.2330   25.3580   16.3070 C.ar  185  PHE185     -0.0042
    141  CE1        1.6230   23.3200   16.6690 C.ar  185  PHE185     -0.0003
    142  CE2        0.8030   25.5100   17.2240 C.ar  185  PHE185     -0.0003
    143  CZ         1.7290   24.4870   17.4060 C.ar  185  PHE185     -0.0000
    144  N         -0.4480   25.3500    8.5380 N.3   189  ALA189     -0.1245
    145  CA        -0.0720   24.1710    7.7490 C.3   189  ALA189      0.1562
    146  C         -0.7710   24.1570    6.3830 C.2   189  ALA189      0.2260
    147  O         -0.2730   23.5490    5.4270 O.2   189  ALA189     -0.2867
    148  CB        -0.3670   22.8890    8.5180 C.3   189  ALA189      0.0290
@<TRIPOS>BOND
     1    75    74    2
     2    89    87   am
     3   125   126    1
     4    84    83    2
     5    79    78   ar
     6   127   128    2
     7   127   126    1
     8    74    73    1
     9    74    81   am
    10    88    87    2
    11    87    86    1
    12    80    78   ar
    13    83    82    1
    14    83    90   am
    15    82    81    1
    16    82    85    1
    17   126   129    1
    18    78    77    1
    19    73    72    1
    20    73    76    1
    21    90    91    1
    22    91    94    1
    23    91    92    1
    24    85    86    1
    25   129   130    1
    26    94    95    1
    27    77    76    1
    28   147   146    2
    29   102   101    2
    30    92    93    2
    31    92    99   am
    32    95    96    1
    33    99   100    1
    34   146   145    1
    35   130   131    1
    36   101   100    1
    37   131   132    1
    38    96    98   ar
    39    96    97   ar
    40   100   103    1
    41   145   148    1
    42   145   144    1
    43   111   112    1
    44   103   104    1
    45   114   113    2
    46   106   104   ar
    47   106   108   ar
    48   104   105   ar
    49   108   109   ar
    50   113   112    1
    51   112   115    1
    52   116   115    1
    53   105   107   ar
    54   109   107   ar
    55   109   110    1
    56    71    69    1
    57    56    54   ar
    58    56    55   ar
    59    54    52   ar
    60   136   135    2
    61    70    69    1
    62    55    53   ar
    63    12    11    1
    64    68    67    2
    65    52    51   ar
    66    69    66    1
    67   135   134    1
    68   123   121    1
    69     9    11   ar
    70     9     7   ar
    71    66    67    1
    72    66    65    1
    73    11    10   ar
    74   119   118    1
    75   119   120    2
    76   118   121    1
    77   118   117    1
    78    53    51   ar
    79    51    50    1
    80   122   121    1
    81   122   124    1
    82     7     6   ar
    83   134   133    1
    84   134   137    1
    85    28    29   ar
    86    28    26   ar
    87    38    36   am
    88    29    27   ar
    89    10     8   ar
    90    49    48    2
    91    50    47    1
    92   137   138    1
    93     6     8   ar
    94     6     5    1
    95    26    24   ar
    96    36    37    2
    97    36    35    1
    98    48    47    1
    99    48    57   am
   100    62    63    1
   101    62    61    1
   102    27    25   ar
   103    47    46    1
   104   138   139   ar
   105   138   140   ar
   106     5     2    1
   107    58    57    1
   108    58    61    1
   109    58    59    1
   110    18    17    1
   111   139   141   ar
   112    63    64    1
   113    60    59    2
   114    45    43    1
   115    16    15    2
   116    24    25   ar
   117    24    23    1
   118     1     2    1
   119    44    43    1
   120    35    34    1
   121    17    14    1
   122   140   142   ar
   123     2     3    1
   124   141   143   ar
   125    43    40    1
   126    15    19   am
   127    15    14    1
   128    42    41    2
   129    20    23    1
   130    20    19    1
   131    20    21    1
   132    40    41    1
   133    40    39    1
   134    34    31    1
   135   142   143   ar
   136    14    13    1
   137     3     4    2
   138    21    22    2
   139    31    32    1
   140    31    30    1
   141    33    32    2
