@<TRIPOS>MOLECULE
tmp/3kyrB00.pdb
 185 176 0 0 0
SMALL
GASTEIGER

@<TRIPOS>ATOM
      1  N         19.1940   16.7690   -6.7950 N.3    35  ASP35      -0.1239
      2  CA        20.3090   17.4330   -6.1190 C.3    35  ASP35       0.1674
      3  C         21.6920   16.9720   -6.5590 C.2    35  ASP35       0.2266
      4  O         22.1060   15.8660   -6.2450 O.2    35  ASP35      -0.2867
      5  CB        20.1840   17.3120   -4.6050 C.3    35  ASP35       0.1410
      6  CG        21.3490   17.9860   -3.8790 C.2    35  ASP35       0.3668
      7  OD1       21.8470   19.0490   -4.3740 O.co2  35  ASP35      -0.2456
      8  OD2       21.7640   17.4640   -2.8090 O.co2  35  ASP35      -0.2456
      9  N         24.4060   18.1830   -5.4290 N.3    37  GLY37      -0.1210
     10  CA        25.3240   18.4390   -4.2920 C.3    37  GLY37       0.1956
     11  C         25.2680   17.3450   -3.2210 C.2    37  GLY37       0.2613
     12  O         25.7360   17.5390   -2.0880 O.2    37  GLY37      -0.2717
     13  N         24.6920   16.1960   -3.5700 N.am   38  SER38      -0.1938
     14  CA        24.7110   15.0260   -2.7120 C.3    38  SER38       0.2055
     15  C         24.5990   13.7850   -3.5820 C.2    38  SER38       0.2644
     16  O         24.4410   13.9010   -4.7710 O.2    38  SER38      -0.2714
     17  CB        23.5850   15.0780   -1.6780 C.3    38  SER38       0.2130
     18  OG        22.3050   15.0410   -2.2950 O.3    38  SER38      -0.2179
     19  N         24.6510   12.6110   -2.9860 N.am   39  SER39      -0.1935
     20  CA        24.7420   11.3560   -3.7190 C.3    39  SER39       0.2055
     21  C         23.9130   10.2670   -3.0910 C.2    39  SER39       0.2643
     22  O         24.0640    9.1230   -3.4500 O.2    39  SER39      -0.2714
     23  CB        26.1890   10.8480   -3.7500 C.3    39  SER39       0.2130
     24  OG        27.1080   11.9210   -3.8510 O.3    39  SER39      -0.2179
     25  N         23.0420   10.5920   -2.1560 N.am   40  ASN40      -0.1971
     26  CA        22.1840    9.5800   -1.5840 C.3    40  ASN40       0.1688
     27  C         20.7630    9.6820   -2.1670 C.2    40  ASN40       0.2292
     28  O         20.2240   10.7790   -2.2870 O.2    40  ASN40      -0.2864
     29  CB        22.1290    9.7520   -0.0660 C.3    40  ASN40       0.1181
     30  CG        23.2770    9.1010    0.6360 C.2    40  ASN40       0.2629
     31  OD1       24.3550    9.6330    0.7290 O.2    40  ASN40      -0.2716
     32  ND2       23.0330    7.9420    1.1620 N.am   40  ASN40      -0.0877
     33  N         23.0100    8.4330    8.5080 N.3    71  TYR71      -0.1227
     34  CA        22.7580    9.8000    8.8850 C.3    71  TYR71       0.1736
     35  C         23.2920   10.6450    7.7260 C.2    71  TYR71       0.2595
     36  O         24.4430   10.4500    7.2830 O.2    71  TYR71      -0.2718
     37  CB        23.5480   10.1450   10.1470 C.3    71  TYR71       0.0548
     38  CG        23.5430   11.6070   10.5210 C.ar   71  TYR71      -0.0200
     39  CD1       22.3710   12.2320   10.9890 C.ar   71  TYR71      -0.0009
     40  CD2       24.6880   12.3760   10.4080 C.ar   71  TYR71      -0.0009
     41  CE1       22.3550   13.5940   11.3390 C.ar   71  TYR71       0.0417
     42  CE2       24.6880   13.7420   10.7640 C.ar   71  TYR71       0.0417
     43  CZ        23.5270   14.3380   11.2240 C.ar   71  TYR71       0.1957
     44  OH        23.5240   15.6780   11.6140 O.3    71  TYR71      -0.2866
     45  N         22.4720   11.5830    7.2300 N.am   72  VAL72      -0.1966
     46  CA        22.9450   12.5250    6.1900 C.3    72  VAL72       0.1712
     47  C         22.6110   13.9380    6.6020 C.2    72  VAL72       0.2458
     48  O         21.4320   14.2610    6.7590 O.2    72  VAL72      -0.2730
     49  CB        22.3400   12.2080    4.7940 C.3    72  VAL72       0.0289
     50  CG1       23.0390   12.9910    3.6920 C.3    72  VAL72       0.0023
     51  CG2       22.4900   10.7180    4.4880 C.3    72  VAL72       0.0023
     52  N         23.6450   14.7690    6.8250 N.am   73  PRO73      -0.2716
     53  CA        23.4940   16.1840    7.1100 C.3    73  PRO73       0.1536
     54  C         23.6790   17.0430    5.8320 C.2    73  PRO73       0.2599
     55  O         24.5540   16.7330    4.9840 O.2    73  PRO73      -0.2715
     56  CB        24.6670   16.4400    8.0670 C.3    73  PRO73       0.0310
     57  CG        25.7680   15.5370    7.5600 C.3    73  PRO73       0.0237
     58  CD        25.0740   14.3780    6.8400 C.3    73  PRO73       0.0939
     59  N         22.9040   18.1220    5.7010 N.am   74  TYR74      -0.1960
     60  CA        23.0110   18.9880    4.5060 C.3    74  TYR74       0.1771
     61  C         23.1820   20.4210    4.9130 C.2    74  TYR74       0.2620
     62  O         23.0160   20.7440    6.0770 O.2    74  TYR74      -0.2715
     63  CB        21.7570   18.9080    3.6510 C.3    74  TYR74       0.0574
     64  CG        21.4190   17.5410    3.1360 C.ar   74  TYR74      -0.0198
     65  CD1       20.7280   16.6150    3.9420 C.ar   74  TYR74      -0.0009
     66  CD2       21.7270   17.1860    1.8300 C.ar   74  TYR74      -0.0009
     67  CE1       20.3860   15.3440    3.4650 C.ar   74  TYR74       0.0417
     68  CE2       21.3710   15.9200    1.3100 C.ar   74  TYR74       0.0417
     69  CZ        20.7040   14.9990    2.1420 C.ar   74  TYR74       0.1957
     70  OH        20.3900   13.7470    1.6580 O.3    74  TYR74      -0.2866
     71  N         23.4840   21.3020    3.9580 N.am   75  THR75      -0.1951
     72  CA        23.5010   22.7260    4.2320 C.3    75  THR75       0.1897
     73  C         22.2600   23.1470    5.0540 C.2    75  THR75       0.2313
     74  O         22.3770   23.8620    6.0460 O.2    75  THR75      -0.2863
     75  CB        23.5630   23.5020    2.9310 C.3    75  THR75       0.1794
     76  OG1       24.7150   23.0750    2.1870 O.3    75  THR75      -0.2208
     77  CG2       23.6200   25.0080    3.2040 C.3    75  THR75       0.0378
     78  N         18.7830   17.5850    7.9690 N.3    78  LYS78      -0.1245
     79  CA        19.4500   16.2990    8.1430 C.3    78  LYS78       0.1561
     80  C         18.3780   15.2540    8.3870 C.2    78  LYS78       0.2260
     81  O         17.2400   15.5900    8.7710 O.2    78  LYS78      -0.2867
     82  CB        20.4850   16.3430    9.3010 C.3    78  LYS78       0.0271
     83  CG        19.9510   16.9050   10.5990 C.3    78  LYS78       0.0035
     84  CD        20.9940   17.5810   11.5010 C.3    78  LYS78       0.0206
     85  CE        20.5800   17.3500   12.9580 C.3    78  LYS78       0.1093
     86  NZ        21.3580   18.0360   14.0280 N.3    78  LYS78      -0.1314
     87  N         31.1400   10.8370   -1.6520 N.3   129  ILE129     -0.1245
     88  CA        30.4450   11.6550   -0.6650 C.3   129  ILE129      0.1561
     89  C         29.1270   11.0160   -0.2750 C.2   129  ILE129      0.2260
     90  O         28.3550   11.6100    0.4500 O.2   129  ILE129     -0.2867
     91  CB        30.2380   13.1580   -1.1100 C.3   129  ILE129      0.0252
     92  CG1       29.3230   13.2700   -2.3360 C.3   129  ILE129      0.0019
     93  CG2       31.5790   13.8450   -1.3920 C.3   129  ILE129      0.0019
     94  CD1       29.0110   14.6780   -2.7690 C.3   129  ILE129      0.0001
     95  N         26.7190    8.4630    1.8690 N.3   131  ARG131     -0.1245
     96  CA        26.7090    7.9940    3.2410 C.3   131  ARG131      0.1563
     97  C         26.0680    6.6380    3.2800 C.2   131  ARG131      0.2260
     98  O         25.0900    6.4250    2.5890 O.2   131  ARG131     -0.2867
     99  CB        25.9340    8.9510    4.1310 C.3   131  ARG131      0.0307
    100  CG        26.5680   10.3450    4.2640 C.3   131  ARG131      0.0489
    101  CD        27.7800   10.3530    5.1480 C.3   131  ARG131      0.2205
    102  NE        28.3120   11.7010    5.1990 N.pl3 131  ARG131     -0.0865
    103  CZ        28.3270   12.4720    6.2770 C.cat 131  ARG131      0.5346
    104  NH1       27.8710   12.0300    7.4370 N.pl3 131  ARG131      0.1354
    105  NH2       28.8180   13.6930    6.1940 N.pl3 131  ARG131      0.1354
    106  N         31.9490   15.9060   -5.1010 N.3   190  TYR190     -0.1241
    107  CA        30.9950   16.9320   -5.4540 C.3   190  TYR190      0.1605
    108  C         31.1990   17.1600   -6.9620 C.2   190  TYR190      0.2264
    109  O         32.1320   16.5800   -7.5490 O.2   190  TYR190     -0.2867
    110  CB        31.3230   18.2090   -4.6690 C.3   190  TYR190      0.0534
    111  CG        31.1030   18.0870   -3.1700 C.ar  190  TYR190     -0.0201
    112  CD1       32.1660   17.8590   -2.2900 C.ar  190  TYR190     -0.0009
    113  CD2       29.8150   18.1780   -2.6340 C.ar  190  TYR190     -0.0009
    114  CE1       31.9330   17.7270   -0.9060 C.ar  190  TYR190      0.0417
    115  CE2       29.5870   18.0660   -1.3020 C.ar  190  TYR190      0.0417
    116  CZ        30.6410   17.8460   -0.4350 C.ar  190  TYR190      0.1957
    117  OH        30.3400   17.7360    0.8840 O.3   190  TYR190     -0.2866
    118  N         37.8570   26.1310   -0.1180 N.3   215  ASP215     -0.1225
    119  CA        37.7220   24.7000    0.1520 C.3   215  ASP215      0.1805
    120  C         37.5370   23.8930   -1.1680 C.2   215  ASP215      0.2597
    121  O         38.2740   22.9500   -1.4560 O.2   215  ASP215     -0.2718
    122  CB        36.5070   24.5380    1.0920 C.3   215  ASP215      0.1424
    123  CG        36.4650   23.2150    1.7680 C.2   215  ASP215      0.3668
    124  OD1       37.4430   22.4770    1.6600 O.co2 215  ASP215     -0.2456
    125  OD2       35.4440   22.8910    2.4160 O.co2 215  ASP215     -0.2456
    126  N         36.5520   24.3130   -1.9670 N.am  216  LYS216     -0.1979
    127  CA        36.1630   23.6800   -3.2340 C.3   216  LYS216      0.1596
    128  C         34.9610   24.4830   -3.7160 C.2   216  LYS216      0.2287
    129  O         34.1500   24.9230   -2.9110 O.2   216  LYS216     -0.2864
    130  CB        35.7420   22.2130   -3.0460 C.3   216  LYS216      0.0298
    131  CG        34.4710   22.0960   -2.1960 C.3   216  LYS216      0.0038
    132  CD        34.1570   20.7290   -1.7020 C.3   216  LYS216      0.0206
    133  CE        33.1000   20.8580   -0.5980 C.3   216  LYS216      0.1093
    134  NZ        33.6800   20.8240    0.7840 N.3   216  LYS216     -0.1314
    135  N         31.6370   24.2630   -6.1400 N.3   218  ILE218     -0.1245
    136  CA        30.7430   23.2310   -6.6660 C.3   218  ILE218      0.1561
    137  C         29.4630   23.7710   -7.3300 C.2   218  ILE218      0.2260
    138  O         29.0210   24.8810   -7.0360 O.2   218  ILE218     -0.2867
    139  CB        30.3450   22.2210   -5.5430 C.3   218  ILE218      0.0252
    140  CG1       29.3600   22.8370   -4.5610 C.3   218  ILE218      0.0019
    141  CG2       31.5700   21.6870   -4.8020 C.3   218  ILE218      0.0019
    142  CD1       28.7790   21.8050   -3.6590 C.3   218  ILE218      0.0001
    143  N         25.6930   23.0240   -7.2080 N.3   220  ASP220     -0.1239
    144  CA        24.7200   22.3910   -6.2670 C.3   220  ASP220      0.1674
    145  C         23.2260   22.7810   -6.5310 C.2   220  ASP220      0.2266
    146  O         22.7550   23.8270   -6.0810 O.2   220  ASP220     -0.2867
    147  CB        25.1810   22.7590   -4.8340 C.3   220  ASP220      0.1410
    148  CG        24.2300   22.2990   -3.7170 C.2   220  ASP220      0.3668
    149  OD1       23.6950   21.1680   -3.7630 O.co2 220  ASP220     -0.2456
    150  OD2       24.0600   23.0850   -2.7500 O.co2 220  ASP220     -0.2456
    151  N         20.5010   21.3990   -5.3560 N.3   222  GLY222     -0.1210
    152  CA        19.6610   21.2520   -4.1650 C.3   222  GLY222      0.1956
    153  C         19.7290   22.4490   -3.2380 C.2   222  GLY222      0.2612
    154  O         19.1310   22.4490   -2.1700 O.2   222  GLY222     -0.2717
    155  N         20.4420   23.4850   -3.6570 N.am  223  THR223     -0.1952
    156  CA        20.5250   24.7390   -2.9170 C.3   223  THR223      0.1897
    157  C         20.1110   25.9250   -3.8290 C.2   223  THR223      0.2313
    158  O         20.1560   25.8370   -5.0580 O.2   223  THR223     -0.2863
    159  CB        21.9580   24.8770   -2.3480 C.3   223  THR223      0.1794
    160  OG1       21.9780   24.3180   -1.0340 O.3   223  THR223     -0.2208
    161  CG2       22.4270   26.2940   -2.2750 C.3   223  THR223      0.0378
    162  N         26.6490   31.1820   -3.3260 N.3   227  ARG227     -0.1245
    163  CA        27.4120   31.3650   -2.0870 C.3   227  ARG227      0.1563
    164  C         28.9140   31.5790   -2.3880 C.2   227  ARG227      0.2260
    165  O         29.5290   30.8220   -3.1520 O.2   227  ARG227     -0.2867
    166  CB        27.2200   30.1900   -1.1230 C.3   227  ARG227      0.0307
    167  CG        25.7820   29.9390   -0.6270 C.3   227  ARG227      0.0489
    168  CD        25.7650   28.7970    0.3860 C.3   227  ARG227      0.2205
    169  NE        25.4480   27.5060   -0.2330 N.pl3 227  ARG227     -0.0865
    170  CZ        25.8860   26.3300    0.2140 C.cat 227  ARG227      0.5346
    171  NH1       26.6710   26.2850    1.2790 N.pl3 227  ARG227      0.1354
    172  NH2       25.5570   25.1960   -0.4120 N.pl3 227  ARG227      0.1354
    173  N         30.6040   28.7320    3.7700 N.3   309  SER309     -0.1202
    174  CA        31.5530   28.1290    4.7190 C.3   309  SER309      0.2020
    175  C         32.5730   27.3250    3.9270 C.2   309  SER309      0.2619
    176  O         33.6780   27.0740    4.3830 O.2   309  SER309     -0.2717
    177  CB        30.8220   27.2360    5.7240 C.3   309  SER309      0.2103
    178  OG        29.5380   26.8890    5.2390 O.3   309  SER309     -0.2182
    179  N         32.2030   26.9390    2.7210 N.am  310  THR310     -0.1952
    180  CA        33.1270   26.2630    1.8460 C.3   310  THR310      0.1897
    181  C         33.6490   27.2600    0.7510 C.2   310  THR310      0.2313
    182  O         33.8280   28.4630    1.0360 O.2   310  THR310     -0.2863
    183  CB        32.4590   24.9440    1.3200 C.3   310  THR310      0.1794
    184  OG1       33.4210   24.1400    0.6130 O.3   310  THR310     -0.2208
    185  CG2       31.1710   25.2090    0.4790 C.3   310  THR310      0.0378
@<TRIPOS>BOND
     1   109   108    2
     2   137   138    2
     3   137   136    1
     4   143   144    1
     5   108   107    1
     6     1     2    1
     7   136   135    1
     8   136   139    1
     9     3     4    2
    10     3     2    1
    11   145   144    1
    12   145   146    2
    13   144   147    1
    14     2     5    1
    15   139   141    1
    16   139   140    1
    17   107   106    1
    18   107   110    1
    19     9    10    1
    20   151   152    1
    21   158   157    2
    22   147   148    1
    23    16    15    2
    24   110   111    1
    25     5     6    1
    26   140   142    1
    27     7     6   ar
    28    10    11    1
    29   152   153    1
    30     6     8   ar
    31    24    23    1
    32   157   156    1
    33   149   148   ar
    34    23    20    1
    35    20    21    1
    36    20    19    1
    37   148   150   ar
    38   128   127    1
    39   128   129    2
    40   155   153   am
    41   155   156    1
    42    15    19   am
    43    15    14    1
    44    13    11   am
    45    13    14    1
    46    22    21    2
    47   162   163    1
    48   153   154    2
    49   127   130    1
    50   127   126    1
    51    11    12    2
    52   111   113   ar
    53   111   112   ar
    54   165   164    2
    55    21    25   am
    56   130   131    1
    57   156   159    1
    58    94    92    1
    59    14    17    1
    60   113   115   ar
    61   164   163    1
    62   159   161    1
    63   159   160    1
    64    92    91    1
    65    18    17    1
    66   112   114   ar
    67    28    27    2
    68   131   132    1
    69    27    26    1
    70    25    26    1
    71   163   166    1
    72   126   120   am
    73   132   133    1
    74    87    88    1
    75    26    29    1
    76   121   120    2
    77    93    91    1
    78   115   116   ar
    79   120   119    1
    80   166   167    1
    81    91    88    1
    82   114   116   ar
    83    88    89    1
    84   167   168    1
    85   133   134    1
    86   116   117    1
    87   172   170    1
    88    89    90    2
    89   169   170    2
    90   169   168    1
    91   118   119    1
    92    29    30    1
    93   119   122    1
    94   170   171    1
    95   185   183    1
    96   184   183    1
    97    30    31    2
    98    30    32   am
    99   181   182    2
   100   181   180    1
   101   122   123    1
   102    68    66   ar
   103    68    69   ar
   104   183   180    1
   105    70    69    1
   106   124   123   ar
   107   123   125   ar
   108    66    64   ar
   109   180   179    1
   110    95    96    1
   111    69    67   ar
   112    76    75    1
   113    98    97    2
   114   179   175   am
   115    75    77    1
   116    75    72    1
   117    64    63    1
   118    64    65   ar
   119    96    97    1
   120    96    99    1
   121    67    65   ar
   122    63    60    1
   123    50    49    1
   124   173   174    1
   125   175   176    2
   126   175   174    1
   127    71    72    1
   128    71    61   am
   129    99   100    1
   130    72    73    1
   131   100   101    1
   132    51    49    1
   133    60    61    1
   134    60    59    1
   135   174   177    1
   136    49    46    1
   137    61    62    2
   138    55    54    2
   139    73    74    2
   140   101   102    1
   141   102   103    2
   142   178   177    1
   143    59    54   am
   144    54    53    1
   145    46    47    1
   146    46    45    1
   147   105   103    1
   148   103   104    1
   149    47    48    2
   150    47    52   am
   151    52    58    1
   152    52    53    1
   153    58    57    1
   154    53    56    1
   155    45    35   am
   156    36    35    2
   157    57    56    1
   158    35    34    1
   159    78    79    1
   160    79    80    1
   161    79    82    1
   162    80    81    2
   163    33    34    1
   164    34    37    1
   165    82    83    1
   166    37    38    1
   167    40    38   ar
   168    40    42   ar
   169    38    39   ar
   170    83    84    1
   171    42    43   ar
   172    39    41   ar
   173    43    41   ar
   174    43    44    1
   175    84    85    1
   176    85    86    1
