@<TRIPOS>MOLECULE
tmp/3kyrC00.pdb
 188 178 0 0 0
SMALL
GASTEIGER

@<TRIPOS>ATOM
      1  N          6.4460  -28.2390   35.8360 N.3    35  ASP35      -0.1239
      2  CA         6.5850  -28.3390   34.3470 C.3    35  ASP35       0.1674
      3  C          6.9460  -27.0270   33.6980 C.2    35  ASP35       0.2266
      4  O          6.1400  -26.1390   33.6060 O.2    35  ASP35      -0.2867
      5  CB         5.3020  -28.8840   33.7140 C.3    35  ASP35       0.1410
      6  CG         5.4600  -29.2740   32.2040 C.2    35  ASP35       0.3668
      7  OD1        6.6020  -29.4090   31.6930 O.co2  35  ASP35      -0.2456
      8  OD2        4.3980  -29.4740   31.5210 O.co2  35  ASP35      -0.2456
      9  N          7.4180  -26.8990   30.7200 N.3    37  GLY37      -0.1210
     10  CA         6.9970  -27.1390   29.3420 C.3    37  GLY37       0.1956
     11  C          5.5530  -26.7880   29.0700 C.2    37  GLY37       0.2613
     12  O          5.0850  -27.0440   27.9710 O.2    37  GLY37      -0.2717
     13  N          4.8570  -26.2130   30.0640 N.am   38  SER38      -0.1938
     14  CA         3.4610  -25.7550   29.9160 C.3    38  SER38       0.2055
     15  C          3.1630  -24.5820   30.8560 C.2    38  SER38       0.2644
     16  O          4.0630  -24.1280   31.5360 O.2    38  SER38      -0.2714
     17  CB         2.4810  -26.8900   30.1920 C.3    38  SER38       0.2130
     18  OG         2.4110  -27.2190   31.5760 O.3    38  SER38      -0.2179
     19  N          1.9060  -24.1330   30.9110 N.am   39  SER39      -0.1935
     20  CA         1.5240  -22.9090   31.6250 C.3    39  SER39       0.2055
     21  C          0.1380  -22.9050   32.2700 C.2    39  SER39       0.2643
     22  O         -0.3400  -21.8800   32.7230 O.2    39  SER39      -0.2714
     23  CB         1.6560  -21.6850   30.7190 C.3    39  SER39       0.2130
     24  OG         2.9850  -21.5520   30.2150 O.3    39  SER39      -0.2179
     25  N         -0.4860  -24.0620   32.3470 N.am   40  ASN40      -0.1971
     26  CA        -1.6750  -24.2230   33.1370 C.3    40  ASN40       0.1688
     27  C         -1.3930  -24.8550   34.4840 C.2    40  ASN40       0.2292
     28  O         -0.6240  -25.8370   34.5670 O.2    40  ASN40      -0.2864
     29  CB        -2.7100  -25.0210   32.3710 C.3    40  ASN40       0.1181
     30  CG        -3.3730  -24.1890   31.3310 C.2    40  ASN40       0.2629
     31  OD1       -2.7740  -23.8650   30.3190 O.2    40  ASN40      -0.2716
     32  ND2       -4.5880  -23.7450   31.6150 N.am   40  ASN40      -0.0877
     33  N         -9.1590  -27.3180   27.8940 N.3    71  TYR71      -0.1227
     34  CA        -8.6090  -28.5950   27.4070 C.3    71  TYR71       0.1736
     35  C         -7.1560  -28.4460   27.1540 C.2    71  TYR71       0.2595
     36  O         -6.7260  -27.5240   26.4610 O.2    71  TYR71      -0.2718
     37  CB        -9.2660  -29.0140   26.0820 C.3    71  TYR71       0.0548
     38  CG        -8.6160  -30.1890   25.3320 C.ar   71  TYR71      -0.0200
     39  CD1       -8.7810  -31.5140   25.7660 C.ar   71  TYR71      -0.0009
     40  CD2       -7.8440  -29.9640   24.1850 C.ar   71  TYR71      -0.0009
     41  CE1       -8.1860  -32.5890   25.0710 C.ar   71  TYR71       0.0417
     42  CE2       -7.2490  -31.0280   23.4860 C.ar   71  TYR71       0.0417
     43  CZ        -7.4310  -32.3360   23.9230 C.ar   71  TYR71       0.1957
     44  OH        -6.8410  -33.3910   23.1980 O.3    71  TYR71      -0.2866
     45  N         -6.3680  -29.3640   27.6790 N.am   72  VAL72      -0.1966
     46  CA        -4.9270  -29.2580   27.4840 C.3    72  VAL72       0.1712
     47  C         -4.3270  -30.5580   26.9710 C.2    72  VAL72       0.2458
     48  O         -4.4640  -31.5870   27.6150 O.2    72  VAL72      -0.2730
     49  CB        -4.2020  -28.7580   28.7610 C.3    72  VAL72       0.0289
     50  CG1       -2.7720  -28.3540   28.4260 C.3    72  VAL72       0.0023
     51  CG2       -4.9390  -27.5290   29.3630 C.3    72  VAL72       0.0023
     52  N         -3.6920  -30.5170   25.7910 N.am   73  PRO73      -0.2716
     53  CA        -2.9270  -31.6650   25.2700 C.3    73  PRO73       0.1536
     54  C         -1.4180  -31.5640   25.5290 C.2    73  PRO73       0.2599
     55  O         -0.8300  -30.4980   25.3320 O.2    73  PRO73      -0.2715
     56  CB        -3.2080  -31.6110   23.7580 C.3    73  PRO73       0.0310
     57  CG        -3.4580  -30.0790   23.4900 C.3    73  PRO73       0.0237
     58  CD        -3.7300  -29.3990   24.8310 C.3    73  PRO73       0.0939
     59  N         -0.8010  -32.6690   25.9400 N.am   74  TYR74      -0.1960
     60  CA         0.6510  -32.6800   26.2260 C.3    74  TYR74       0.1771
     61  C          1.3260  -33.7260   25.3460 C.2    74  TYR74       0.2620
     62  O          0.6460  -34.5970   24.8250 O.2    74  TYR74      -0.2715
     63  CB         0.9230  -33.0040   27.7050 C.3    74  TYR74       0.0574
     64  CG         0.2920  -32.0710   28.6930 C.ar   74  TYR74      -0.0198
     65  CD1       -1.0140  -32.2360   29.1300 C.ar   74  TYR74      -0.0009
     66  CD2        1.0140  -31.0300   29.2270 C.ar   74  TYR74      -0.0009
     67  CE1       -1.5670  -31.3710   30.1020 C.ar   74  TYR74       0.0417
     68  CE2        0.4670  -30.1380   30.1550 C.ar   74  TYR74       0.0417
     69  CZ        -0.8060  -30.3200   30.6040 C.ar   74  TYR74       0.1957
     70  OH        -1.2830  -29.4150   31.5210 O.3    74  TYR74      -0.2866
     71  N          2.6430  -33.6510   25.1760 N.am   75  THR75      -0.1951
     72  CA         3.3800  -34.7140   24.4930 C.3    75  THR75       0.1897
     73  C          2.8190  -36.0760   24.8930 C.2    75  THR75       0.2313
     74  O          2.5260  -36.8980   24.0260 O.2    75  THR75      -0.2863
     75  CB         4.9080  -34.6980   24.8340 C.3    75  THR75       0.1794
     76  OG1        5.4720  -33.4440   24.4590 O.3    75  THR75      -0.2208
     77  CG2        5.6870  -35.8510   24.1310 C.3    75  THR75       0.0378
     78  N         -3.4550  -35.9240   28.1370 N.3    78  LYS78      -0.1245
     79  CA        -4.3500  -34.8060   28.0250 C.3    78  LYS78       0.1561
     80  C         -5.4060  -34.9270   29.0750 C.2    78  LYS78       0.2260
     81  O         -5.6640  -36.0460   29.5580 O.2    78  LYS78      -0.2867
     82  CB        -4.9970  -34.7490   26.6500 C.3    78  LYS78       0.0271
     83  CG        -5.3860  -36.0540   25.9560 C.3    78  LYS78       0.0035
     84  CD        -5.0760  -35.8230   24.4440 C.3    78  LYS78       0.0206
     85  CE        -5.8590  -36.6860   23.4700 C.3    78  LYS78       0.1093
     86  NZ        -5.8730  -38.0900   23.9520 N.3    78  LYS78      -0.1314
     87  N          1.3670  -19.6810   25.7440 N.3   129  ILE129     -0.1245
     88  CA         0.9700  -21.0960   25.5140 C.3   129  ILE129      0.1561
     89  C         -0.0960  -21.6690   26.4830 C.2   129  ILE129      0.2260
     90  O         -0.4240  -22.8140   26.4340 O.2   129  ILE129     -0.2867
     91  CB         2.2060  -22.0110   25.3910 C.3   129  ILE129      0.0252
     92  CG1        3.0240  -21.9980   26.6990 C.3   129  ILE129      0.0019
     93  CG2        3.0470  -21.5650   24.1810 C.3   129  ILE129      0.0019
     94  CD1        4.1190  -23.0110   26.7680 C.3   129  ILE129      0.0001
     95  N         -3.8400  -22.4670   27.8900 N.3   131  ARG131     -0.1245
     96  CA        -5.1740  -22.8430   27.4460 C.3   131  ARG131      0.1563
     97  C         -6.2660  -22.4000   28.4250 C.2   131  ARG131      0.2260
     98  O         -6.0900  -22.4770   29.6260 O.2   131  ARG131     -0.2867
     99  CB        -5.2250  -24.3390   27.3510 C.3   131  ARG131      0.0307
    100  CG        -4.1590  -24.8630   26.4630 C.3   131  ARG131      0.0489
    101  CD        -4.6620  -24.8490   25.0620 C.3   131  ARG131      0.2205
    102  NE        -3.7130  -25.4610   24.1500 N.pl3 131  ARG131     -0.0865
    103  CZ        -4.0730  -26.2630   23.1680 C.cat 131  ARG131      0.5346
    104  NH1       -5.3630  -26.5500   23.0210 N.pl3 131  ARG131      0.1354
    105  NH2       -3.1610  -26.7870   22.3600 N.pl3 131  ARG131      0.1354
    106  N          7.1560  -21.0620   25.2280 N.3   190  TYR190     -0.1241
    107  CA         8.0280  -22.0190   25.8900 C.3   190  TYR190      0.1605
    108  C          9.2350  -21.2430   26.3690 C.2   190  TYR190      0.2264
    109  O          9.4510  -20.0720   25.9830 O.2   190  TYR190     -0.2867
    110  CB         8.5010  -23.1330   24.9450 C.3   190  TYR190      0.0534
    111  CG         7.3260  -23.8180   24.3440 C.ar  190  TYR190     -0.0201
    112  CD1        6.8200  -23.3990   23.1310 C.ar  190  TYR190     -0.0009
    113  CD2        6.6520  -24.8310   25.0370 C.ar  190  TYR190     -0.0009
    114  CE1        5.6750  -23.9790   22.6070 C.ar  190  TYR190      0.0417
    115  CE2        5.5130  -25.4040   24.5260 C.ar  190  TYR190      0.0417
    116  CZ         5.0370  -24.9570   23.3040 C.ar  190  TYR190      0.1957
    117  OH         3.9480  -25.5040   22.7490 O.3   190  TYR190     -0.2866
    118  N         11.3730  -26.1080   14.0570 N.3   215  ASP215     -0.1225
    119  CA        10.1720  -25.7100   14.7630 C.3   215  ASP215      0.1805
    120  C         10.5390  -24.8750   16.0210 C.2   215  ASP215      0.2597
    121  O         10.2620  -23.6710   16.0660 O.2   215  ASP215     -0.2718
    122  CB         9.2960  -26.9430   15.0600 C.3   215  ASP215      0.1424
    123  CG         7.9640  -26.5890   15.6940 C.2   215  ASP215      0.3668
    124  OD1        7.4260  -25.4770   15.4500 O.co2 215  ASP215     -0.2456
    125  OD2        7.4480  -27.4300   16.4510 O.co2 215  ASP215     -0.2456
    126  N         11.1740  -25.4970   17.0220 N.am  216  LYS216     -0.1979
    127  CA        11.5550  -24.8040   18.2820 C.3   216  LYS216      0.1596
    128  C         12.3190  -25.7390   19.2170 C.2   216  LYS216      0.2287
    129  O         12.0050  -26.9120   19.2970 O.2   216  LYS216     -0.2864
    130  CB        10.3190  -24.2650   19.0200 C.3   216  LYS216      0.0298
    131  CG         9.4150  -25.3600   19.6120 C.3   216  LYS216      0.0038
    132  CD         8.0020  -24.8350   19.8730 C.3   216  LYS216      0.0206
    133  CE         7.0680  -25.9260   20.4240 C.3   216  LYS216      0.1093
    134  NZ         6.5740  -26.8880   19.4150 N.3   216  LYS216     -0.1314
    135  N         13.2910  -26.2050   23.3120 N.3   218  ILE218     -0.1245
    136  CA        12.7860  -25.7060   24.5780 C.3   218  ILE218      0.1561
    137  C         13.3300  -26.4600   25.7640 C.2   218  ILE218      0.2260
    138  O         13.7880  -27.5840   25.6060 O.2   218  ILE218     -0.2867
    139  CB        11.2660  -25.8110   24.6330 C.3   218  ILE218      0.0252
    140  CG1       10.8570  -27.2820   24.8180 C.3   218  ILE218      0.0019
    141  CG2       10.6710  -25.1450   23.4060 C.3   218  ILE218      0.0019
    142  CD1        9.3870  -27.6190   24.5190 C.3   218  ILE218      0.0001
    143  N         12.1010  -28.3660   29.1880 N.3   220  ASP220     -0.1239
    144  CA        10.8080  -28.9920   29.5550 C.3   220  ASP220      0.1674
    145  C         11.0100  -29.9660   30.7090 C.2   220  ASP220      0.2266
    146  O         11.3380  -31.1260   30.4960 O.2   220  ASP220     -0.2867
    147  CB        10.2200  -29.6750   28.3030 C.3   220  ASP220      0.1410
    148  CG         8.9100  -30.4690   28.5520 C.2   220  ASP220      0.3668
    149  OD1        8.1610  -30.2410   29.5380 O.co2 220  ASP220     -0.2456
    150  OD2        8.6220  -31.3450   27.6950 O.co2 220  ASP220     -0.2456
    151  N          8.9410  -33.6350   30.7330 N.3   223  THR223     -0.1218
    152  CA         9.0450  -34.8960   29.9920 C.3   223  THR223      0.1862
    153  C         10.3930  -35.4760   30.3130 C.2   223  THR223      0.2287
    154  O         11.2710  -34.7480   30.7720 O.2   223  THR223     -0.2866
    155  CB         8.8320  -34.7470   28.4640 C.3   223  THR223      0.1770
    156  OG1        9.7730  -33.8110   27.9490 O.3   223  THR223     -0.2211
    157  CG2        7.3820  -34.2890   28.1500 C.3   223  THR223      0.0375
    158  N         14.9030  -35.0700   23.5410 N.3   227  ARG227     -0.1245
    159  CA        14.3000  -35.3710   22.2640 C.3   227  ARG227      0.1563
    160  C         15.0400  -34.5910   21.1530 C.2   227  ARG227      0.2260
    161  O         15.2280  -33.3900   21.2670 O.2   227  ARG227     -0.2867
    162  CB        12.7800  -35.0780   22.2860 C.3   227  ARG227      0.0307
    163  CG        11.8930  -36.1360   23.0270 C.3   227  ARG227      0.0489
    164  CD        10.4160  -35.7330   23.0940 C.3   227  ARG227      0.2205
    165  NE        10.1080  -34.8600   24.2390 N.pl3 227  ARG227     -0.0865
    166  CZ         9.2430  -33.8310   24.2210 C.cat 227  ARG227      0.5346
    167  NH1        8.5960  -33.5080   23.1070 N.pl3 227  ARG227      0.1354
    168  NH2        9.0370  -33.1030   25.3190 N.pl3 227  ARG227      0.1354
    169  N          9.0010  -34.4780   17.4300 N.3   303  SER303     -0.1202
    170  CA         8.2170  -33.9640   16.2970 C.3   303  SER303      0.2020
    171  C          8.2680  -32.4430   16.3050 C.2   303  SER303      0.2619
    172  O          7.5940  -31.7590   15.5180 O.2   303  SER303     -0.2717
    173  CB         6.7840  -34.4710   16.3760 C.3   303  SER303      0.2103
    174  OG         6.4560  -34.6620   17.7470 O.3   303  SER303     -0.2182
    175  N          9.0840  -31.9360   17.2180 N.am  304  THR304     -0.1952
    176  CA         9.4130  -30.5140   17.2940 C.3   304  THR304      0.1897
    177  C         10.9540  -30.3760   17.1770 C.2   304  THR304      0.2313
    178  O         11.6230  -31.2890   16.6840 O.2   304  THR304     -0.2863
    179  CB         8.7460  -29.8440   18.5650 C.3   304  THR304      0.1794
    180  OG1        8.4960  -28.4670   18.3170 O.3   304  THR304     -0.2208
    181  CG2        9.5850  -29.9640   19.8360 C.3   304  THR304      0.0378
    182  N         14.2850  -30.8490   22.5440 N.3   307  VAL307     -0.1245
    183  CA        13.7280  -30.6360   23.8540 C.3   307  VAL307      0.1561
    184  C         14.6450  -31.2180   24.9130 C.2   307  VAL307      0.2260
    185  O         14.8510  -32.4180   24.9730 O.2   307  VAL307     -0.2867
    186  CB        12.3690  -31.3100   23.9950 C.3   307  VAL307      0.0252
    187  CG1       11.8800  -31.1360   25.4140 C.3   307  VAL307      0.0019
    188  CG2       11.3650  -30.7480   22.9660 C.3   307  VAL307      0.0019
@<TRIPOS>BOND
     1   118   119    1
     2   119   122    1
     3   119   120    1
     4   122   123    1
     5   124   123   ar
     6   172   171    2
     7   123   125   ar
     8   120   121    2
     9   120   126   am
    10   170   171    1
    11   170   173    1
    12   170   169    1
    13   171   175   am
    14   173   174    1
    15   178   177    2
    16   126   127    1
    17   177   176    1
    18   175   176    1
    19   176   179    1
    20   127   130    1
    21   127   128    1
    22   180   179    1
    23   179   181    1
    24   130   131    1
    25   128   129    2
    26   134   133    1
    27   131   132    1
    28   132   133    1
    29   160   161    2
    30   160   159    1
    31   159   162    1
    32   159   158    1
    33   162   163    1
    34   105   103    1
    35   182   183    1
    36   114   112   ar
    37   114   116   ar
    38   117   116    1
    39   188   186    1
    40   104   103    1
    41   163   164    1
    42   164   165    1
    43   167   166    1
    44   112   111   ar
    45   103   102    2
    46    44    43    1
    47   116   115   ar
    48   135   136    1
    49   141   139    1
    50    85    86    1
    51    85    84    1
    52    42    43   ar
    53    42    40   ar
    54    57    56    1
    55    57    58    1
    56    56    53    1
    57   183   186    1
    58   183   184    1
    59    43    41   ar
    60   186   187    1
    61    74    73    2
    62    77    75    1
    63   102   101    1
    64    93    91    1
    65    40    38   ar
    66   166   165    2
    67   166   168    1
    68   111   110    1
    69   111   113   ar
    70    84    83    1
    71    76    75    1
    72    72    75    1
    73    72    73    1
    74    72    71    1
    75   142   140    1
    76   115   113   ar
    77   136   139    1
    78   136   137    1
    79   139   140    1
    80    62    61    2
    81    58    52    1
    82   184   185    2
    83   110   107    1
    84   101   100    1
    85    41    39   ar
    86    71    61   am
    87   106   107    1
    88    53    54    1
    89    53    52    1
    90    38    39   ar
    91    38    37    1
    92    55    54    2
    93    61    60    1
    94    91    88    1
    95    91    92    1
    96    88    87    1
    97    88    89    1
    98    54    59   am
    99   138   137    2
   100    52    47   am
   101   107   108    1
   102    59    60    1
   103    83    82    1
   104   109   108    2
   105    37    34    1
   106    60    63    1
   107    90    89    2
   108    36    35    2
   109   100    99    1
   110    82    79    1
   111    92    94    1
   112    47    46    1
   113    47    48    2
   114    35    34    1
   115    35    45   am
   116    99    96    1
   117    34    33    1
   118    96    95    1
   119    96    97    1
   120    46    45    1
   121    46    49    1
   122   150   148   ar
   123    63    64    1
   124   156   155    1
   125    12    11    2
   126    79    78    1
   127    79    80    1
   128   157   155    1
   129   147   148    1
   130   147   144    1
   131    97    98    2
   132    50    49    1
   133   155   152    1
   134   148   149   ar
   135    64    65   ar
   136    64    66   ar
   137    49    51    1
   138    11    10    1
   139    11    13   am
   140    80    81    2
   141    65    67   ar
   142   143   144    1
   143    66    68   ar
   144    10     9    1
   145   144   145    1
   146    14    13    1
   147    14    17    1
   148    14    15    1
   149   152   153    1
   150   152   151    1
   151    67    69   ar
   152    68    69   ar
   153    17    18    1
   154    24    23    1
   155   153   154    2
   156    31    30    2
   157   146   145    2
   158    69    70    1
   159    23    20    1
   160    15    19   am
   161    15    16    2
   162    19    20    1
   163    30    32   am
   164    30    29    1
   165     8     6   ar
   166    20    21    1
   167     7     6   ar
   168     6     5    1
   169    21    25   am
   170    21    22    2
   171    25    26    1
   172    29    26    1
   173    26    27    1
   174     4     3    2
   175     3     2    1
   176     5     2    1
   177     2     1    1
   178    27    28    2
