@<TRIPOS>MOLECULE
tmp/3kz7A00.pdb
 143 140 0 0 0
SMALL
GASTEIGER

@<TRIPOS>ATOM
      1  N         19.6580   32.3560   17.4140 N.3    30  TYR30      -0.1241
      2  CA        19.0590   32.9680   18.5720 C.3    30  TYR30       0.1605
      3  C         20.0630   33.6500   19.5150 C.2    30  TYR30       0.2264
      4  O         21.2340   33.3420   19.5390 O.2    30  TYR30      -0.2867
      5  CB        18.2390   31.9600   19.3550 C.3    30  TYR30       0.0534
      6  CG        19.0710   30.9950   20.1210 C.ar   30  TYR30      -0.0201
      7  CD1       19.5780   29.8820   19.5230 C.ar   30  TYR30      -0.0009
      8  CD2       19.3850   31.2160   21.4170 C.ar   30  TYR30      -0.0009
      9  CE1       20.3320   29.0400   20.1820 C.ar   30  TYR30       0.0417
     10  CE2       20.1240   30.3680   22.0950 C.ar   30  TYR30       0.0417
     11  CZ        20.6170   29.2700   21.4800 C.ar   30  TYR30       0.1957
     12  OH        21.3770   28.4330   22.1760 O.3    30  TYR30      -0.2866
     13  N         22.6020   35.5280   28.2170 N.3    40  PHE40      -0.1227
     14  CA        22.9170   34.2470   28.7740 C.3    40  PHE40       0.1736
     15  C         23.3800   33.1870   27.7630 C.2    40  PHE40       0.2595
     16  O         24.0590   32.2980   28.1230 O.2    40  PHE40      -0.2718
     17  CB        21.8260   33.7330   29.7180 C.3    40  PHE40       0.0547
     18  CG        20.5030   33.4780   29.0660 C.ar   40  PHE40      -0.0202
     19  CD1       20.2480   32.3010   28.4280 C.ar   40  PHE40      -0.0042
     20  CD2       19.5010   34.3920   29.1310 C.ar   40  PHE40      -0.0042
     21  CE1       19.0520   32.0870   27.8590 C.ar   40  PHE40      -0.0003
     22  CE2       18.3240   34.1560   28.5600 C.ar   40  PHE40      -0.0003
     23  CZ        18.1020   33.0220   27.9260 C.ar   40  PHE40      -0.0000
     24  N         22.9610   33.2900   26.5200 N.am   41  ASP41      -0.1974
     25  CA        23.3650   32.3750   25.4900 C.3    41  ASP41       0.1709
     26  C         23.1220   32.9550   24.1140 C.2    41  ASP41       0.2293
     27  O         22.2570   33.7520   23.9340 O.2    41  ASP41      -0.2864
     28  CB        22.6010   31.0720   25.6730 C.3    41  ASP41       0.1436
     29  CG        23.0710   29.9530   24.7640 C.2    41  ASP41       0.3671
     30  OD1       24.2090   29.9280   24.3410 O.co2  41  ASP41      -0.2456
     31  OD2       22.2840   29.0920   24.4830 O.co2  41  ASP41      -0.2456
     32  N         20.6180   26.1510   15.3830 N.3    57  LEU57      -0.1231
     33  CA        19.9130   25.2020   16.1760 C.3    57  LEU57       0.1693
     34  C         18.8820   24.4950   15.2800 C.2    57  LEU57       0.2593
     35  O         18.2460   25.1300   14.4790 O.2    57  LEU57      -0.2718
     36  CB        19.2240   25.9240   17.3160 C.3    57  LEU57       0.0284
     37  CG        18.5600   25.1220   18.4060 C.3    57  LEU57       0.0019
     38  CD1       19.5390   24.4660   19.2770 C.3    57  LEU57       0.0001
     39  CD2       17.6450   25.9690   19.1900 C.3    57  LEU57       0.0001
     40  N         18.7350   23.1910   15.4320 N.am   58  SER58      -0.1938
     41  CA        17.9630   22.3050   14.7610 C.3    58  SER58       0.2055
     42  C         17.0590   21.5340   15.6200 C.2    58  SER58       0.2643
     43  O         17.5220   20.9450   16.5440 O.2    58  SER58      -0.2714
     44  CB        18.7390   21.3320   13.8660 C.3    58  SER58       0.2130
     45  OG        19.2620   21.9890   12.7220 O.3    58  SER58      -0.2179
     46  N         15.7610   21.5200   15.3680 N.am   59  PHE59      -0.1973
     47  CA        14.8260   20.7730   16.2120 C.3    59  PHE59       0.1639
     48  C         13.5580   20.6350   15.4500 C.2    59  PHE59       0.2290
     49  O         13.1480   21.4090   14.6570 O.2    59  PHE59      -0.2864
     50  CB        14.6290   21.3850   17.6040 C.3    59  PHE59       0.0560
     51  CG        14.0400   22.7700   17.5850 C.ar   59  PHE59      -0.0200
     52  CD1       14.8490   23.8780   17.4100 C.ar   59  PHE59      -0.0042
     53  CD2       12.6790   22.9600   17.7490 C.ar   59  PHE59      -0.0042
     54  CE1       14.3110   25.1500   17.3940 C.ar   59  PHE59      -0.0003
     55  CE2       12.1360   24.2320   17.7340 C.ar   59  PHE59      -0.0003
     56  CZ        12.9540   25.3250   17.5560 C.ar   59  PHE59      -0.0000
     57  N          7.6280   19.4400   21.9680 N.3    64  GLY64      -0.1210
     58  CA         8.2390   19.5000   23.2670 C.3    64  GLY64       0.1956
     59  C          9.7270   19.3240   23.3590 C.2    64  GLY64       0.2612
     60  O         10.2230   18.9920   24.3850 O.2    64  GLY64      -0.2717
     61  N         10.4190   19.4970   22.2640 N.am   65  LYS65      -0.1965
     62  CA        11.8610   19.5080   22.2500 C.3    65  LYS65       0.1728
     63  C         12.4970   20.7640   22.8440 C.2    65  LYS65       0.2616
     64  O         13.6070   20.7380   23.2430 O.2    65  LYS65      -0.2715
     65  CB        12.4060   19.1830   20.8850 C.3    65  LYS65       0.0311
     66  CG        12.1430   17.7530   20.5190 C.3    65  LYS65       0.0038
     67  CD        13.0790   17.2360   19.5430 C.3    65  LYS65       0.0206
     68  CE        12.8720   15.7540   19.2830 C.3    65  LYS65       0.1093
     69  NZ        12.9260   14.9130   20.4910 N.3    65  LYS65      -0.1314
     70  N         11.7330   21.8450   22.8560 N.am   66  VAL66      -0.1963
     71  CA        12.1450   23.1420   23.3510 C.3    66  VAL66       0.1727
     72  C         11.0670   23.6800   24.2750 C.2    66  VAL66       0.2616
     73  O          9.9800   23.2100   24.2720 O.2    66  VAL66      -0.2715
     74  CB        12.3880   24.1520   22.2510 C.3    66  VAL66       0.0290
     75  CG1       13.5810   23.8260   21.4520 C.3    66  VAL66       0.0023
     76  CG2       11.2010   24.3210   21.4070 C.3    66  VAL66       0.0023
     77  N         11.3900   24.7200   25.0130 N.am   67  ILE67      -0.1977
     78  CA        10.4640   25.3130   25.9490 C.3    67  ILE67       0.1596
     79  C          9.1860   25.7820   25.2190 C.2    67  ILE67       0.2287
     80  O          9.1930   26.0350   24.0670 O.2    67  ILE67      -0.2864
     81  CB        11.1140   26.4600   26.7570 C.3    67  ILE67       0.0276
     82  CG1       11.6360   27.5580   25.8500 C.3    67  ILE67       0.0022
     83  CG2       12.2450   25.9280   27.6530 C.3    67  ILE67       0.0022
     84  CD1       12.1470   28.7080   26.5520 C.3    67  ILE67       0.0001
     85  N          8.9830   28.8630   22.8450 N.3    70  TRP70      -0.1241
     86  CA         9.5850   28.6610   21.5510 C.3    70  TRP70       0.1605
     87  C          8.7130   27.7880   20.6380 C.2    70  TRP70       0.2264
     88  O          8.5190   28.0770   19.5240 O.2    70  TRP70      -0.2867
     89  CB        10.9640   28.0400   21.6800 C.3    70  TRP70       0.0550
     90  CG        12.1270   28.9540   21.7800 C.ar   70  TRP70       0.0003
     91  CD1       12.4070   29.8010   22.7720 C.ar   70  TRP70       0.0946
     92  CD2       13.1920   29.0440   20.8670 C.ar   70  TRP70       0.0152
     93  NE1       13.5790   30.4410   22.5460 N.ar   70  TRP70      -0.2442
     94  CE2       14.0950   29.9720   21.3740 C.ar   70  TRP70       0.0810
     95  CE3       13.4810   28.4250   19.6610 C.ar   70  TRP70       0.0012
     96  CZ2       15.2470   30.3050   20.7120 C.ar   70  TRP70       0.0191
     97  CZ3       14.6180   28.7470   19.0190 C.ar   70  TRP70       0.0001
     98  CH2       15.4970   29.6780   19.5490 C.ar   70  TRP70       0.0015
     99  N         11.2750   27.7250   31.9330 N.3    93  TYR93      -0.1241
    100  CA        11.8320   26.7250   32.8400 C.3    93  TYR93       0.1605
    101  C         11.1260   26.6600   34.1970 C.2    93  TYR93       0.2264
    102  O         11.6030   26.0740   35.1280 O.2    93  TYR93      -0.2867
    103  CB        13.3650   26.8380   32.9660 C.3    93  TYR93       0.0534
    104  CG        14.0850   26.6460   31.6660 C.ar   93  TYR93      -0.0201
    105  CD1       14.3300   25.4030   31.1810 C.ar   93  TYR93      -0.0009
    106  CD2       14.4590   27.7120   30.9080 C.ar   93  TYR93      -0.0009
    107  CE1       14.9380   25.2240   29.9940 C.ar   93  TYR93       0.0417
    108  CE2       15.0500   27.5380   29.7300 C.ar   93  TYR93       0.0417
    109  CZ        15.3000   26.2920   29.2710 C.ar   93  TYR93       0.1957
    110  OH        15.9050   26.0930   28.1030 O.3    93  TYR93      -0.2866
    111  N         16.3030   27.1580   35.8110 N.3    98  GLN98      -0.1245
    112  CA        17.2580   26.0920   35.5220 C.3    98  GLN98       0.1566
    113  C         18.6690   26.5760   35.8920 C.2    98  GLN98       0.2260
    114  O         19.4320   26.9640   35.0830 O.2    98  GLN98      -0.2867
    115  CB        17.1630   25.5920   34.0810 C.3    98  GLN98       0.0367
    116  CG        17.8540   24.2780   33.8110 C.3    98  GLN98       0.0905
    117  CD        17.2090   23.1470   34.4950 C.2    98  GLN98       0.2608
    118  OE1       16.0340   23.0670   34.5510 O.2    98  GLN98      -0.2717
    119  NE2       17.9760   22.2870   35.0410 N.am   98  GLN98      -0.0878
    120  N         21.9090   25.7090   34.2370 N.3   101  ALA101     -0.1245
    121  CA        21.9630   26.2750   32.9110 C.3   101  ALA101      0.1562
    122  C         21.9560   27.8060   32.9160 C.2   101  ALA101      0.2260
    123  O         21.7640   28.4250   31.8930 O.2   101  ALA101     -0.2867
    124  CB        20.8410   25.7690   32.1120 C.3   101  ALA101      0.0290
    125  N         19.7380   29.8520   34.3350 N.3   103  ILE103     -0.1245
    126  CA        18.4610   30.4890   34.2900 C.3   103  ILE103      0.1561
    127  C         17.9060   30.6310   35.6940 C.2   103  ILE103      0.2260
    128  O         17.5580   29.6850   36.3060 O.2   103  ILE103     -0.2867
    129  CB        17.4930   29.6930   33.4300 C.3   103  ILE103      0.0252
    130  CG1       18.1020   29.3800   32.0650 C.3   103  ILE103      0.0019
    131  CG2       16.2130   30.4170   33.3180 C.3   103  ILE103      0.0019
    132  CD1       18.3780   30.5300   31.2800 C.3   103  ILE103      0.0001
    133  N         14.2350   36.2640   24.1120 N.3   111  PHE111     -0.1241
    134  CA        14.9750   35.7180   22.9860 C.3   111  PHE111      0.1605
    135  C         14.7220   36.5070   21.6960 C.2   111  PHE111      0.2264
    136  O         13.6420   36.9240   21.4370 O.2   111  PHE111     -0.2867
    137  CB        14.6500   34.2590   22.6830 C.3   111  PHE111      0.0534
    138  CG        14.9670   33.2810   23.7630 C.ar  111  PHE111     -0.0203
    139  CD1       16.0980   32.5150   23.7260 C.ar  111  PHE111     -0.0042
    140  CD2       14.0960   33.0460   24.7530 C.ar  111  PHE111     -0.0042
    141  CE1       16.3330   31.6120   24.6740 C.ar  111  PHE111     -0.0003
    142  CE2       14.3520   32.1300   25.7010 C.ar  111  PHE111     -0.0003
    143  CZ        15.4730   31.4210   25.6490 C.ar  111  PHE111     -0.0000
@<TRIPOS>BOND
     1    45    44    1
     2    44    41    1
     3    35    34    2
     4    49    48    2
     5    41    40    1
     6    41    42    1
     7    34    40   am
     8    34    33    1
     9    46    42   am
    10    46    47    1
    11    32    33    1
    12    48    47    1
    13    42    43    2
    14    33    36    1
    15    47    50    1
    16    36    37    1
    17    54    52   ar
    18    54    56   ar
    19    52    51   ar
    20     1     2    1
    21    56    55   ar
    22    51    50    1
    23    51    53   ar
    24    55    53   ar
    25    37    39    1
    26    37    38    1
    27     2     5    1
    28     2     3    1
    29    97    98   ar
    30    97    95   ar
    31    68    67    1
    32    68    69    1
    33     5     6    1
    34     3     4    2
    35     7     6   ar
    36     7     9   ar
    37    88    87    2
    38    67    66    1
    39    98    96   ar
    40    95    92   ar
    41     6     8   ar
    42     9    11   ar
    43    66    65    1
    44    87    86    1
    45    96    94   ar
    46    92    94   ar
    47    92    90   ar
    48    65    62    1
    49    94    93   ar
    50    76    74    1
    51     8    10   ar
    52   136   135    2
    53    75    74    1
    54    11    10   ar
    55    11    12    1
    56    86    89    1
    57    86    85    1
    58    89    90    1
    59   135   134    1
    60    90    91   ar
    61    57    58    1
    62    62    61    1
    63    62    63    1
    64    74    71    1
    65    61    59   am
    66    93    91   ar
    67   137   134    1
    68   137   138    1
    69    63    70   am
    70    63    64    2
    71    70    71    1
    72   134   133    1
    73    58    59    1
    74    71    72    1
    75    59    60    2
    76   139   138   ar
    77   139   141   ar
    78   138   140   ar
    79    27    26    2
    80    80    79    2
    81    26    25    1
    82    73    72    2
    83    72    77   am
    84    30    29   ar
    85    31    29   ar
    86   141   143   ar
    87   140   142   ar
    88    29    28    1
    89    77    78    1
    90    79    78    1
    91    25    28    1
    92    25    24    1
    93   143   142   ar
    94    82    84    1
    95    82    81    1
    96    78    81    1
    97    24    15   am
    98    81    83    1
    99    15    16    2
   100    15    14    1
   101    21    23   ar
   102    21    19   ar
   103    23    22   ar
   104   110   109    1
   105    13    14    1
   106    19    18   ar
   107    22    20   ar
   108    14    17    1
   109    18    20   ar
   110    18    17    1
   111   109   108   ar
   112   109   107   ar
   113   108   106   ar
   114   107   105   ar
   115   106   104   ar
   116   105   104   ar
   117   132   130    1
   118   104   103    1
   119   123   122    2
   120    99   100    1
   121   130   129    1
   122   124   121    1
   123   100   103    1
   124   100   101    1
   125   121   122    1
   126   121   120    1
   127   131   129    1
   128   129   126    1
   129   116   115    1
   130   116   117    1
   131   115   112    1
   132   101   102    2
   133   126   125    1
   134   126   127    1
   135   117   118    2
   136   117   119   am
   137   114   113    2
   138   112   111    1
   139   112   113    1
   140   127   128    2
