@<TRIPOS>MOLECULE
tmp/3kzbA00.pdb
 102 96 0 0 0
SMALL
GASTEIGER

@<TRIPOS>ATOM
      1  N         15.5060   21.8680    7.7280 N.3   258  HIS258     -0.1241
      2  CA        16.2100   21.1300    6.7080 C.3   258  HIS258      0.1621
      3  C         15.5040   19.7930    6.5210 C.2   258  HIS258      0.2264
      4  O         15.5380   18.9380    7.4060 O.2   258  HIS258     -0.2867
      5  CB        17.6730   20.9490    7.0910 C.3   258  HIS258      0.0745
      6  CG        18.4440   20.1370    6.1030 C.ar  258  HIS258      0.0817
      7  ND1       19.3670   20.6900    5.2430 N.ar  258  HIS258     -0.2268
      8  CD2       18.3970   18.8140    5.8050 C.ar  258  HIS258      0.1154
      9  CE1       19.8640   19.7420    4.4660 C.ar  258  HIS258      0.1986
     10  NE2       19.2910   18.5940    4.7860 N.ar  258  HIS258     -0.2212
     11  N         15.9490   16.9450    4.3410 N.3   260  GLY260     -0.1210
     12  CA        16.5780   15.9850    3.4490 C.3   260  GLY260      0.1956
     13  C         16.1510   14.5700    3.7890 C.2   260  GLY260      0.2613
     14  O         15.0830   14.3660    4.3680 O.2   260  GLY260     -0.2717
     15  N         16.9760   13.5860    3.4390 N.am  261  THR261     -0.1938
     16  CA        16.6900   12.1960    3.7830 C.3   261  THR261      0.2028
     17  C         16.5110   12.1430    5.2790 C.2   261  THR261      0.2642
     18  O         15.5720   11.5430    5.7960 O.2   261  THR261     -0.2714
     19  CB        17.8280   11.2690    3.3740 C.3   261  THR261      0.1808
     20  OG1       17.9000   11.2140    1.9480 O.3   261  THR261     -0.2208
     21  CG2       17.6030    9.8730    3.8960 C.3   261  THR261      0.0379
     22  N         17.4190   12.7920    5.9800 N.am  262  THR262     -0.1950
     23  CA        17.1990   13.0940    7.3770 C.3   262  THR262      0.1897
     24  C         17.0050   14.6000    7.4530 C.2   262  THR262      0.2313
     25  O         16.9940   15.2680    6.4230 O.2   262  THR262     -0.2863
     26  CB        18.3740   12.6610    8.2410 C.3   262  THR262      0.1794
     27  OG1       19.5580   13.3520    7.8230 O.3   262  THR262     -0.2208
     28  CG2       18.5860   11.1690    8.1010 C.3   262  THR262      0.0378
     29  N         12.6700   12.8950    5.3340 N.3   302  GLY302     -0.1210
     30  CA        12.3630   12.5950    3.9790 C.3   302  GLY302      0.1956
     31  C         12.5070   11.1640    3.6190 C.2   302  GLY302      0.2611
     32  O         12.1600   10.7590    2.5670 O.2   302  GLY302     -0.2717
     33  N         13.0460   10.3990    4.5200 N.am  303  ASN303     -0.1974
     34  CA        13.2190    8.9950    4.3170 C.3   303  ASN303      0.1688
     35  C         11.9480    8.2460    4.6110 C.2   303  ASN303      0.2292
     36  O         11.7610    7.1510    4.1870 O.2   303  ASN303     -0.2864
     37  CB        14.4200    8.4810    5.1100 C.3   303  ASN303      0.1181
     38  CG        14.3380    8.7490    6.5820 C.2   303  ASN303      0.2629
     39  OD1       13.3610    9.1620    7.0860 O.2   303  ASN303     -0.2716
     40  ND2       15.3680    8.4480    7.2570 N.am  303  ASN303     -0.0877
     41  N          8.8330    9.3060    3.5850 N.3   305  LEU305     -0.1231
     42  CA         8.2050    9.4170    2.2700 C.3   305  LEU305      0.1693
     43  C          8.8340    8.4750    1.2640 C.2   305  LEU305      0.2591
     44  O          8.1370    7.8030    0.5170 O.2   305  LEU305     -0.2718
     45  CB         8.3290   10.8330    1.7380 C.3   305  LEU305      0.0284
     46  CG         7.3500   11.8570    2.2920 C.3   305  LEU305      0.0019
     47  CD1        7.7920   12.3310    3.6820 C.3   305  LEU305      0.0001
     48  CD2        7.2200   13.0330    1.3110 C.3   305  LEU305      0.0001
     49  N         10.1580    8.4420    1.2400 N.am  306  GLN306     -0.1979
     50  CA        10.8630    7.5680    0.3290 C.3   306  GLN306      0.1601
     51  C         10.4350    6.1320    0.5880 C.2   306  GLN306      0.2287
     52  O         10.2790    5.3400   -0.3360 O.2   306  GLN306     -0.2864
     53  CB        12.3730    7.7050    0.5180 C.3   306  GLN306      0.0394
     54  CG        13.2050    6.8870   -0.4760 C.3   306  GLN306      0.0908
     55  CD        13.7160    7.7220   -1.6480 C.2   306  GLN306      0.2608
     56  OE1       13.5170    7.3640   -2.8110 O.2   306  GLN306     -0.2717
     57  NE2       14.3860    8.8410   -1.3430 N.am  306  GLN306     -0.0878
     58  N         11.2820    8.5670   -9.4560 N.3   321  ALA321     -0.1245
     59  CA        10.5540    9.7010  -10.0250 C.3   321  ALA321      0.1562
     60  C          9.0590    9.4520  -10.2230 C.2   321  ALA321      0.2260
     61  O          8.2340   10.2440   -9.7750 O.2   321  ALA321     -0.2867
     62  CB        11.2010   10.1420  -11.3370 C.3   321  ALA321      0.0290
     63  N          7.0660    9.0650   -6.6960 N.3   324  PHE324     -0.1241
     64  CA         6.7850   10.3390   -6.0410 C.3   324  PHE324      0.1605
     65  C          5.6280   11.0260   -6.7410 C.2   324  PHE324      0.2264
     66  O          4.8010   11.6840   -6.1230 O.2   324  PHE324     -0.2867
     67  CB         7.9970   11.2590   -6.0850 C.3   324  PHE324      0.0534
     68  CG         9.0620   10.8930   -5.1130 C.ar  324  PHE324     -0.0203
     69  CD1        8.8340   10.9920   -3.7550 C.ar  324  PHE324     -0.0042
     70  CD2       10.2970   10.4540   -5.5560 C.ar  324  PHE324     -0.0042
     71  CE1        9.8170   10.6620   -2.8580 C.ar  324  PHE324     -0.0003
     72  CE2       11.2860   10.1180   -4.6590 C.ar  324  PHE324     -0.0003
     73  CZ        11.0480   10.2250   -3.3130 C.ar  324  PHE324     -0.0000
     74  N         15.6520   21.5920    1.1460 N.3   403  GLY403     -0.1210
     75  CA        15.8060   20.1630    0.9980 C.3   403  GLY403      0.1956
     76  C         14.8510   19.5390    0.0100 C.2   403  GLY403      0.2612
     77  O         13.8740   20.1810   -0.4160 O.2   403  GLY403     -0.2717
     78  N         15.1470   18.2900   -0.3510 N.am  404  GLY404     -0.1942
     79  CA        14.3820   17.5720   -1.3450 C.3   404  GLY404      0.2014
     80  C         13.0090   17.2470   -0.8170 C.2   404  GLY404      0.2639
     81  O         12.0490   17.1380   -1.5850 O.2   404  GLY404     -0.2714
     82  N         12.9230   17.0950    0.5000 N.am  405  GLY405     -0.1954
     83  CA        11.6550   16.8920    1.1640 C.3   405  GLY405      0.1869
     84  C         10.5890   17.8930    0.7490 C.2   405  GLY405      0.2309
     85  O          9.4180   17.5360    0.6210 O.2   405  GLY405     -0.2863
     86  N          9.9390   18.9780   -1.9270 N.3   407  ARG407     -0.1231
     87  CA         9.3340   18.6790   -3.2150 C.3   407  ARG407      0.1694
     88  C          7.8970   18.1470   -3.0760 C.2   407  ARG407      0.2592
     89  O          7.0950   18.2610   -4.0010 O.2   407  ARG407     -0.2718
     90  CB        10.2230   17.7580   -4.0320 C.3   407  ARG407      0.0321
     91  CG        11.4110   18.5030   -4.5850 C.3   407  ARG407      0.0489
     92  CD        12.0720   17.7450   -5.7180 C.3   407  ARG407      0.2205
     93  NE        13.2360   16.9860   -5.2710 N.pl3 407  ARG407     -0.0865
     94  CZ        14.0070   16.2690   -6.0860 C.cat 407  ARG407      0.5346
     95  NH1       13.7160   16.2120   -7.3860 N.pl3 407  ARG407      0.1354
     96  NH2       15.0590   15.6020   -5.6090 N.pl3 407  ARG407      0.1354
     97  N          7.5650   17.6070   -1.9070 N.am  408  SER408     -0.1952
     98  CA         6.2050   17.1570   -1.6490 C.3   408  SER408      0.1924
     99  C          5.3210   18.3190   -1.1820 C.2   408  SER408      0.2314
    100  O          5.3010   18.6480    0.0000 O.2   408  SER408     -0.2863
    101  CB         6.2020   16.0070   -0.6270 C.3   408  SER408      0.2116
    102  OG         4.9620   15.9030    0.0420 O.3   408  SER408     -0.2180
@<TRIPOS>BOND
     1    62    59    1
     2    60    59    1
     3    60    61    2
     4    59    58    1
     5    95    94    1
     6    65    66    2
     7    65    64    1
     8    63    64    1
     9    94    96    1
    10    94    93    2
    11    67    64    1
    12    67    68    1
    13    92    93    1
    14    92    91    1
    15    70    68   ar
    16    70    72   ar
    17    68    69   ar
    18    72    73   ar
    19    91    90    1
    20    90    87    1
    21    89    88    2
    22    69    71   ar
    23    73    71   ar
    24    87    88    1
    25    87    86    1
    26    88    97   am
    27    56    55    2
    28    97    98    1
    29    98    99    1
    30    98   101    1
    31    55    57   am
    32    55    54    1
    33    81    80    2
    34    79    80    1
    35    79    78    1
    36    99   100    2
    37    80    82   am
    38   101   102    1
    39    54    53    1
    40    77    76    2
    41    78    76   am
    42    52    51    2
    43    76    75    1
    44    50    53    1
    45    50    51    1
    46    50    49    1
    47    82    83    1
    48    44    43    2
    49    85    84    2
    50    84    83    1
    51    75    74    1
    52    49    43   am
    53    43    42    1
    54    48    46    1
    55    45    42    1
    56    45    46    1
    57    20    19    1
    58    42    41    1
    59    46    47    1
    60    32    31    2
    61    19    16    1
    62    19    21    1
    63    15    16    1
    64    15    13   am
    65    12    13    1
    66    12    11    1
    67    31    30    1
    68    31    33   am
    69    16    17    1
    70    13    14    2
    71    30    29    1
    72    36    35    2
    73    34    33    1
    74    34    35    1
    75    34    37    1
    76     9    10   ar
    77     9     7   ar
    78    10     8   ar
    79    37    38    1
    80     7     6   ar
    81    17    18    2
    82    17    22   am
    83     8     6   ar
    84    22    23    1
    85     6     5    1
    86    25    24    2
    87     3     2    1
    88     3     4    2
    89    38    39    2
    90    38    40   am
    91     2     5    1
    92     2     1    1
    93    23    24    1
    94    23    26    1
    95    27    26    1
    96    28    26    1
