@<TRIPOS>MOLECULE
tmp/3kzeC00.pdb
 138 133 0 0 0
SMALL
GASTEIGER

@<TRIPOS>ATOM
      1  N        -28.2000   20.8140  -20.0980 N.3    12  LYS12      -0.1245
      2  CA       -29.6170   20.9410  -19.8070 C.3    12  LYS12       0.1561
      3  C        -29.7820   21.4050  -18.3700 C.2    12  LYS12       0.2260
      4  O        -29.0830   20.9310  -17.4780 O.2    12  LYS12      -0.2867
      5  CB       -30.3260   19.6000  -19.9810 C.3    12  LYS12       0.0271
      6  CG       -30.3270   19.0700  -21.3910 C.3    12  LYS12       0.0035
      7  CD       -31.1720   17.8130  -21.4830 C.3    12  LYS12       0.0206
      8  CE       -30.7470   16.7940  -20.4520 C.3    12  LYS12       0.1093
      9  NZ       -31.6470   15.6190  -20.4640 N.3    12  LYS12      -0.1314
     10  N        -35.5300   17.5340  -23.2950 N.3    17  THR17      -0.1203
     11  CA       -34.5520   16.7270  -24.0130 C.3    17  THR17       0.1994
     12  C        -33.5940   17.6260  -24.8030 C.2    17  THR17       0.2618
     13  O        -33.7380   18.8490  -24.7920 O.2    17  THR17      -0.2717
     14  CB       -35.2560   15.7290  -24.9650 C.3    17  THR17       0.1784
     15  OG1      -35.6720   16.3990  -26.1610 O.3    17  THR17      -0.2211
     16  CG2      -36.4670   15.0980  -24.2840 C.3    17  THR17       0.0376
     17  N        -32.6190   17.0340  -25.4880 N.am   18  TYR18      -0.1961
     18  CA       -31.6600   17.8350  -26.2570 C.3    18  TYR18       0.1771
     19  C        -32.2200   18.2530  -27.6170 C.2    18  TYR18       0.2620
     20  O        -31.6160   19.0570  -28.3300 O.2    18  TYR18      -0.2715
     21  CB       -30.3010   17.1170  -26.4140 C.3    18  TYR18       0.0574
     22  CG       -29.4460   17.1280  -25.1660 C.ar   18  TYR18      -0.0198
     23  CD1      -28.8400   18.3050  -24.7200 C.ar   18  TYR18      -0.0009
     24  CD2      -29.2230   15.9600  -24.4370 C.ar   18  TYR18      -0.0009
     25  CE1      -28.0540   18.3160  -23.5900 C.ar   18  TYR18       0.0417
     26  CE2      -28.4330   15.9680  -23.2950 C.ar   18  TYR18       0.0417
     27  CZ       -27.8570   17.1510  -22.8760 C.ar   18  TYR18       0.1957
     28  OH       -27.0790   17.1850  -21.7440 O.3    18  TYR18      -0.2866
     29  N        -33.3730   17.7060  -27.9800 N.am   19  GLY19      -0.1940
     30  CA       -34.0380   18.1050  -29.2060 C.3    19  GLY19       0.2014
     31  C        -33.3590   17.6150  -30.4700 C.2    19  GLY19       0.2639
     32  O        -33.2250   18.3610  -31.4380 O.2    19  GLY19      -0.2714
     33  N        -32.9230   16.3620  -30.4720 N.am   20  PHE20      -0.1959
     34  CA       -32.4540   15.7510  -31.7090 C.3    20  PHE20       0.1771
     35  C        -32.5290   14.2350  -31.6150 C.2    20  PHE20       0.2620
     36  O        -32.6780   13.6600  -30.5250 O.2    20  PHE20      -0.2715
     37  CB       -31.0300   16.2080  -32.0630 C.3    20  PHE20       0.0574
     38  CG       -29.9580   15.5750  -31.2090 C.ar   20  PHE20      -0.0200
     39  CD1      -29.2630   14.4600  -31.6520 C.ar   20  PHE20      -0.0042
     40  CD2      -29.6570   16.0900  -29.9540 C.ar   20  PHE20      -0.0042
     41  CE1      -28.2700   13.8680  -30.8400 C.ar   20  PHE20      -0.0003
     42  CE2      -28.6680   15.5090  -29.1430 C.ar   20  PHE20      -0.0003
     43  CZ       -27.9740   14.4020  -29.5880 C.ar   20  PHE20      -0.0000
     44  N        -32.4150   13.5970  -32.7700 N.am   21  SER21      -0.1936
     45  CA       -32.4430   12.1480  -32.8630 C.3    21  SER21       0.2055
     46  C        -31.3000   11.6830  -33.7560 C.2    21  SER21       0.2643
     47  O        -30.8000   12.4410  -34.5940 O.2    21  SER21      -0.2714
     48  CB       -33.7940   11.6490  -33.3990 C.3    21  SER21       0.2130
     49  OG       -34.0960   12.2090  -34.6660 O.3    21  SER21      -0.2179
     50  N        -30.8780   10.4410  -33.5580 N.am   22  LEU22      -0.1963
     51  CA       -29.7590    9.8860  -34.3010 C.3    22  LEU22       0.1728
     52  C        -30.1750    8.6120  -35.0270 C.2    22  LEU22       0.2617
     53  O        -31.0260    7.8690  -34.5380 O.2    22  LEU22      -0.2715
     54  CB       -28.6020    9.5720  -33.3490 C.3    22  LEU22       0.0311
     55  CG       -27.9090   10.7320  -32.6290 C.3    22  LEU22       0.0022
     56  CD1      -26.9210   10.2240  -31.5890 C.3    22  LEU22       0.0001
     57  CD2      -27.2040   11.6100  -33.6440 C.3    22  LEU22       0.0001
     58  N        -29.5700    8.3710  -36.1890 N.am   23  SER23      -0.1936
     59  CA       -29.7730    7.1270  -36.9240 C.3    23  SER23       0.2055
     60  C        -28.4480    6.3730  -37.0630 C.2    23  SER23       0.2644
     61  O        -27.3750    6.9820  -37.0460 O.2    23  SER23      -0.2714
     62  CB       -30.3710    7.4020  -38.3070 C.3    23  SER23       0.2130
     63  OG       -31.7140    7.8610  -38.2180 O.3    23  SER23      -0.2179
     64  N        -28.5300    5.0480  -37.2110 N.am   24  SER24      -0.1935
     65  CA       -27.3420    4.1880  -37.3170 C.3    24  SER24       0.2055
     66  C        -27.2360    3.4130  -38.6350 C.2    24  SER24       0.2643
     67  O        -28.2240    3.2230  -39.3490 O.2    24  SER24      -0.2714
     68  CB       -27.2960    3.1980  -36.1500 C.3    24  SER24       0.2130
     69  OG       -27.2360    3.8670  -34.9030 O.3    24  SER24      -0.2179
     70  N        -26.0250    2.9580  -38.9460 N.am   25  VAL25      -0.1963
     71  CA       -25.7870    2.1700  -40.1540 C.3    25  VAL25       0.1727
     72  C        -24.4140    1.4810  -40.0970 C.2    25  VAL25       0.2616
     73  O        -23.5470    1.8660  -39.3060 O.2    25  VAL25      -0.2715
     74  CB       -25.9500    3.0260  -41.4420 C.3    25  VAL25       0.0290
     75  CG1      -24.8040    4.0080  -41.6050 C.3    25  VAL25       0.0023
     76  CG2      -26.0810    2.1420  -42.6660 C.3    25  VAL25       0.0023
     77  N        -24.2290    0.4510  -40.9200 N.am   26  GLU26      -0.1977
     78  CA       -22.9840   -0.3180  -40.9260 C.3    26  GLU26       0.1602
     79  C        -22.1630   -0.1260  -42.2050 C.2    26  GLU26       0.2287
     80  O        -22.6540   -0.3400  -43.3170 O.2    26  GLU26      -0.2864
     81  CB       -23.2620   -1.8060  -40.6780 C.3    26  GLU26       0.0415
     82  CG       -23.5550   -2.1610  -39.2120 C.3    26  GLU26       0.1163
     83  CD       -25.0150   -1.9740  -38.8040 C.2    26  GLU26       0.3649
     84  OE1      -25.9210   -2.2940  -39.6090 O.co2  26  GLU26      -0.2457
     85  OE2      -25.2550   -1.5230  -37.6610 O.co2  26  GLU26      -0.2457
     86  N        -22.9960    6.9310  -36.8610 N.3    31  LEU31      -0.1245
     87  CA       -24.1320    7.6750  -36.3330 C.3    31  LEU31       0.1561
     88  C        -24.3330    8.9540  -37.1140 C.2    31  LEU31       0.2260
     89  O        -23.3770    9.7050  -37.3260 O.2    31  LEU31      -0.2867
     90  CB       -23.9130    8.0250  -34.8600 C.3    31  LEU31       0.0270
     91  CG       -23.9220    6.8730  -33.8600 C.3    31  LEU31       0.0019
     92  CD1      -23.6000    7.3770  -32.4790 C.3    31  LEU31       0.0001
     93  CD2      -25.2820    6.1890  -33.8760 C.3    31  LEU31       0.0001
     94  N        -30.4230   12.4950  -37.3690 N.3    34  ASN34      -0.1225
     95  CA       -31.6300   12.1890  -38.0840 C.3    34  ASN34       0.1785
     96  C        -32.4760   13.4460  -38.2000 C.2    34  ASN34       0.2597
     97  O        -32.7930   13.8960  -39.3030 O.2    34  ASN34      -0.2718
     98  CB       -32.3850   11.0810  -37.3620 C.3    34  ASN34       0.1169
     99  CG       -33.7250   10.7950  -37.9950 C.2    34  ASN34       0.2627
    100  OD1      -34.4010   11.7050  -38.4650 O.2    34  ASN34      -0.2716
    101  ND2      -34.1210    9.5300  -38.0070 N.am   34  ASN34      -0.0877
    102  N        -32.8240   14.0220  -37.0580 N.am   35  SER35      -0.1952
    103  CA       -33.6160   15.2400  -37.0490 C.3    35  SER35       0.1924
    104  C        -33.1750   16.1740  -35.9400 C.2    35  SER35       0.2314
    105  O        -32.6190   15.7500  -34.9210 O.2    35  SER35      -0.2863
    106  CB       -35.1030   14.9230  -36.8840 C.3    35  SER35       0.2116
    107  OG       -35.3760   14.5180  -35.5530 O.3    35  SER35      -0.2180
    108  N        -26.2530    0.7370  -27.5120 N.3    66  SER66      -0.1217
    109  CA       -27.5420    1.3640  -27.2160 C.3    66  SER66       0.1889
    110  C        -27.6550    1.8370  -25.7680 C.2    66  SER66       0.2288
    111  O        -28.1820    2.9140  -25.5040 O.2    66  SER66      -0.2866
    112  CB       -28.7030    0.4250  -27.5600 C.3    66  SER66       0.2089
    113  OG       -28.5430   -0.8250  -26.9210 O.3    66  SER66      -0.2183
    114  N        -25.5420    4.9990  -25.3650 N.3    69  LEU69      -0.1231
    115  CA       -26.1930    6.0810  -26.0980 C.3    69  LEU69       0.1693
    116  C        -27.3630    6.6320  -25.3070 C.2    69  LEU69       0.2591
    117  O        -27.4880    7.8400  -25.1360 O.2    69  LEU69      -0.2718
    118  CB       -26.6670    5.6040  -27.4700 C.3    69  LEU69       0.0284
    119  CG       -25.6250    5.6250  -28.5820 C.3    69  LEU69       0.0019
    120  CD1      -26.1800    4.9610  -29.8390 C.3    69  LEU69       0.0001
    121  CD2      -25.2120    7.0520  -28.8610 C.3    69  LEU69       0.0001
    122  N        -28.2110    5.7370  -24.8160 N.am   70  LYS70      -0.1980
    123  CA       -29.3650    6.1300  -24.0280 C.3    70  LYS70       0.1596
    124  C        -28.9430    6.8810  -22.7740 C.2    70  LYS70       0.2287
    125  O        -29.5360    7.8940  -22.4330 O.2    70  LYS70      -0.2864
    126  CB       -30.2040    4.9030  -23.6670 C.3    70  LYS70       0.0298
    127  CG       -30.8540    4.2450  -24.8690 C.3    70  LYS70       0.0038
    128  CD       -31.5190    2.9300  -24.4950 C.3    70  LYS70       0.0206
    129  CE       -32.0570    2.2170  -25.7250 C.3    70  LYS70       0.1093
    130  NZ       -33.0750    3.0430  -26.4290 N.3    70  LYS70      -0.1314
    131  N        -27.3270   10.3940  -23.8090 N.3    73  LEU73      -0.1245
    132  CA       -28.2920   11.3430  -24.3620 C.3    73  LEU73       0.1561
    133  C        -29.2620   11.8680  -23.3100 C.2    73  LEU73       0.2260
    134  O        -29.9660   12.8510  -23.5460 O.2    73  LEU73      -0.2867
    135  CB       -29.0590   10.7250  -25.5270 C.3    73  LEU73       0.0270
    136  CG       -28.1390   10.3330  -26.6810 C.3    73  LEU73       0.0019
    137  CD1      -28.9160    9.7000  -27.8390 C.3    73  LEU73       0.0001
    138  CD2      -27.3610   11.5410  -27.1500 C.3    73  LEU73       0.0001
@<TRIPOS>BOND
     1    80    79    2
     2    76    74    1
     3    79    78    1
     4    75    74    1
     5    74    71    1
     6    78    77    1
     7    78    81    1
     8    77    72   am
     9    81    82    1
    10    71    72    1
    11    71    70    1
    12    72    73    2
    13    84    83   ar
    14    67    66    2
    15    97    96    2
    16    82    83    1
    17    70    66   am
    18    83    85   ar
    19    66    65    1
    20   100    99    2
    21    62    63    1
    22    62    59    1
    23    96    95    1
    24    96   102   am
    25    95    94    1
    26    95    98    1
    27   101    99   am
    28    99    98    1
    29    89    88    2
    30    65    64    1
    31    65    68    1
    32    64    60   am
    33    88    87    1
    34    60    61    2
    35    60    59    1
    36   102   103    1
    37   103   106    1
    38   103   104    1
    39    59    58    1
    40   106   107    1
    41    86    87    1
    42    87    90    1
    43    58    52   am
    44    68    69    1
    45   104   105    2
    46    52    53    2
    47    52    51    1
    48    90    91    1
    49    49    48    1
    50    47    46    2
    51    51    50    1
    52    51    54    1
    53    93    91    1
    54    91    92    1
    55    46    50   am
    56    46    45    1
    57    57    55    1
    58    48    45    1
    59    54    55    1
    60    45    44    1
    61    44    35   am
    62    55    56    1
    63    37    34    1
    64    37    38    1
    65    34    35    1
    66    34    33    1
    67    39    38   ar
    68    39    41   ar
    69    35    36    2
    70    32    31    2
    71    38    40   ar
    72    41    43   ar
    73    33    31   am
    74    31    30    1
    75    40    42   ar
    76   120   119    1
    77    43    42   ar
    78    30    29    1
    79   121   119    1
    80   119   118    1
    81    20    19    2
    82    29    19   am
    83   137   136    1
    84    19    18    1
    85   112   109    1
    86   112   113    1
    87   108   109    1
    88   118   115    1
    89   109   110    1
    90   138   136    1
    91   136   135    1
    92   130   129    1
    93    21    18    1
    94    21    22    1
    95    18    17    1
    96    15    14    1
    97   115   114    1
    98   115   116    1
    99   110   111    2
   100   129   128    1
   101   135   132    1
   102    17    12   am
   103   116   117    2
   104   116   122   am
   105    22    23   ar
   106    22    24   ar
   107    14    16    1
   108    14    11    1
   109   127   128    1
   110   127   126    1
   111   122   123    1
   112    12    13    2
   113    12    11    1
   114    23    25   ar
   115    24    26   ar
   116   132   131    1
   117   132   133    1
   118   123   126    1
   119   123   124    1
   120    11    10    1
   121    25    27   ar
   122   134   133    2
   123    26    27   ar
   124    27    28    1
   125   124   125    2
   126     7     6    1
   127     7     8    1
   128     6     5    1
   129     9     8    1
   130     1     2    1
   131     5     2    1
   132     2     3    1
   133     3     4    2
