@<TRIPOS>MOLECULE
tmp/3kzhA00.pdb
 104 99 0 0 0
SMALL
GASTEIGER

@<TRIPOS>ATOM
      1  N         22.8720   64.0290  -14.4290 N.3   155  ASP155     -0.1225
      2  CA        23.8900   63.1860  -13.8020 C.3   155  ASP155      0.1790
      3  C         23.0400   61.9250  -13.4990 C.2   155  ASP155      0.2440
      4  O         22.3110   61.9020  -12.5120 O.2   155  ASP155     -0.2733
      5  CB        24.4090   63.8260  -12.5000 C.3   155  ASP155      0.1423
      6  CG        25.6010   63.0680  -11.8860 C.2   155  ASP155      0.3668
      7  OD1       25.6950   61.8360  -12.0560 O.co2 155  ASP155     -0.2456
      8  OD2       26.4570   63.7090  -11.2310 O.co2 155  ASP155     -0.2456
      9  N         23.1190   60.8690  -14.3430 N.am  156  PRO156     -0.2718
     10  CA        22.3400   59.6330  -14.1470 C.3   156  PRO156      0.1535
     11  C         22.5050   58.7910  -12.8780 C.2   156  PRO156      0.2598
     12  O         21.6910   57.8990  -12.6560 O.2   156  PRO156     -0.2715
     13  CB        22.6620   58.8080  -15.4020 C.3   156  PRO156      0.0310
     14  CG        23.0230   59.8290  -16.4100 C.3   156  PRO156      0.0237
     15  CD        23.8740   60.7760  -15.6030 C.3   156  PRO156      0.0939
     16  N         23.5270   59.0700  -12.0600 N.am  157  VAL157     -0.1978
     17  CA        23.8220   58.3530  -10.7910 C.3   157  VAL157      0.1596
     18  C         24.1890   56.8450  -10.9130 C.2   157  VAL157      0.2287
     19  O         25.2290   56.4180  -10.3960 O.2   157  VAL157     -0.2864
     20  CB        22.7210   58.6240   -9.6850 C.3   157  VAL157      0.0276
     21  CG1       23.0520   57.9210   -8.3670 C.3   157  VAL157      0.0022
     22  CG2       22.6060   60.1220   -9.4300 C.3   157  VAL157      0.0022
     23  N         25.3770   63.4910  -18.8750 N.3   176  LYS176     -0.1231
     24  CA        26.7170   63.1120  -18.4950 C.3   176  LYS176      0.1678
     25  C         26.7410   61.6310  -17.9550 C.2   176  LYS176      0.2434
     26  O         26.8560   61.3910  -16.7210 O.2   176  LYS176     -0.2733
     27  CB        27.3110   64.0880  -17.4710 C.3   176  LYS176      0.0284
     28  CG        28.8690   64.1990  -17.5620 C.3   176  LYS176      0.0035
     29  CD        29.6030   63.1560  -16.7970 C.3   176  LYS176      0.0206
     30  CE        29.2540   63.1240  -15.3260 C.3   176  LYS176      0.1093
     31  NZ        29.0700   61.8040  -14.8280 N.3   176  LYS176     -0.1314
     32  N         26.6160   60.6540  -18.8650 N.am  177  PRO177     -0.2718
     33  CA        26.6550   59.2890  -18.3590 C.3   177  PRO177      0.1535
     34  C         28.0160   58.6170  -18.4660 C.2   177  PRO177      0.2598
     35  O         28.9310   59.1860  -19.0380 O.2   177  PRO177     -0.2715
     36  CB        25.6230   58.5910  -19.2560 C.3   177  PRO177      0.0310
     37  CG        25.8270   59.2530  -20.5580 C.3   177  PRO177      0.0237
     38  CD        25.9230   60.6840  -20.1680 C.3   177  PRO177      0.0939
     39  N         28.1710   57.4610  -17.8210 N.am  178  ASN178     -0.1973
     40  CA        29.4070   56.7140  -17.9850 C.3   178  ASN178      0.1688
     41  C         29.1300   55.7010  -19.1060 C.2   178  ASN178      0.2292
     42  O         28.0360   55.7210  -19.6840 O.2   178  ASN178     -0.2864
     43  CB        29.9490   56.1010  -16.6740 C.3   178  ASN178      0.1181
     44  CG        29.0340   55.0590  -16.0430 C.2   178  ASN178      0.2629
     45  OD1       28.0330   54.6360  -16.6120 O.2   178  ASN178     -0.2716
     46  ND2       29.4070   54.6230  -14.8550 N.am  178  ASN178     -0.0877
     47  N         25.8970   53.4950  -18.3230 N.3   181  GLU181     -0.1245
     48  CA        24.6840   54.3250  -18.2440 C.3   181  GLU181      0.1567
     49  C         24.2750   54.8190  -19.6350 C.2   181  GLU181      0.2260
     50  O         23.0880   54.9840  -19.9100 O.2   181  GLU181     -0.2867
     51  CB        24.8880   55.5200  -17.3100 C.3   181  GLU181      0.0388
     52  CG        25.0690   55.1880  -15.8370 C.3   181  GLU181      0.1160
     53  CD        25.6200   56.3490  -15.0030 C.2   181  GLU181      0.3649
     54  OE1       25.7210   57.4920  -15.5000 O.co2 181  GLU181     -0.2457
     55  OE2       25.9760   56.1110  -13.8340 O.co2 181  GLU181     -0.2457
     56  N         31.7330   59.4270  -19.6800 N.3   214  SER214     -0.1217
     57  CA        32.8930   59.0620  -18.8510 C.3   214  SER214      0.1889
     58  C         33.2840   57.6350  -19.1980 C.2   214  SER214      0.2288
     59  O         32.4160   56.7740  -19.2990 O.2   214  SER214     -0.2866
     60  CB        32.5610   59.1290  -17.3560 C.3   214  SER214      0.2089
     61  OG        32.1390   60.4100  -16.9740 O.3   214  SER214     -0.2183
     62  N         35.9300   55.9460  -17.5250 N.3   216  ASP216     -0.1239
     63  CA        36.8200   55.6130  -16.4000 C.3   216  ASP216      0.1674
     64  C         38.2900   56.0110  -16.6270 C.2   216  ASP216      0.2266
     65  O         38.6110   57.2030  -16.6300 O.2   216  ASP216     -0.2867
     66  CB        36.6790   54.1310  -15.9900 C.3   216  ASP216      0.1410
     67  CG        35.3950   53.8380  -15.2010 C.2   216  ASP216      0.3668
     68  OD1       34.5220   54.7270  -15.0490 O.co2 216  ASP216     -0.2456
     69  OD2       35.2650   52.6920  -14.7150 O.co2 216  ASP216     -0.2456
     70  N         36.9210   56.5920   -5.8390 N.3   241  VAL241     -0.1245
     71  CA        36.1470   57.0700   -6.9910 C.3   241  VAL241      0.1561
     72  C         34.8700   57.8440   -6.6280 C.2   241  VAL241      0.2260
     73  O         34.4370   58.7050   -7.3940 O.2   241  VAL241     -0.2867
     74  CB        35.8050   55.8880   -7.9570 C.3   241  VAL241      0.0252
     75  CG1       35.3010   56.3980   -9.3050 C.3   241  VAL241      0.0019
     76  CG2       37.0330   55.0280   -8.1910 C.3   241  VAL241      0.0019
     77  N         33.7780   61.6270   -7.7720 N.3   244  ALA244     -0.1231
     78  CA        34.5680   62.0830   -8.9230 C.3   244  ALA244      0.1694
     79  C         33.7110   62.6240  -10.0640 C.2   244  ALA244      0.2593
     80  O         34.0280   63.6660  -10.6410 O.2   244  ALA244     -0.2718
     81  CB        35.4730   60.9690   -9.4260 C.3   244  ALA244      0.0304
     82  N         32.6260   61.9100  -10.3690 N.am  245  GLY245     -0.1942
     83  CA        31.6950   62.3150  -11.4080 C.3   245  GLY245      0.2014
     84  C         30.8930   63.5420  -11.0040 C.2   245  GLY245      0.2638
     85  O         30.4080   64.2810  -11.8690 O.2   245  GLY245     -0.2714
     86  N         30.7770   63.7600   -9.6910 N.am  246  ASP246     -0.1971
     87  CA        30.0750   64.9120   -9.1160 C.3   246  ASP246      0.1709
     88  C         30.8700   66.1790   -9.4440 C.2   246  ASP246      0.2293
     89  O         30.3070   67.2000   -9.8370 O.2   246  ASP246     -0.2864
     90  CB        29.9730   64.8040   -7.5810 C.3   246  ASP246      0.1436
     91  CG        29.2100   63.5750   -7.0970 C.2   246  ASP246      0.3671
     92  OD1       28.5000   62.9080   -7.8820 O.co2 246  ASP246     -0.2456
     93  OD2       29.3300   63.2830   -5.8870 O.co2 246  ASP246     -0.2456
     94  N         33.0170   66.4030  -11.8430 N.3   248  PHE248     -0.1241
     95  CA        33.0410   66.5740  -13.3020 C.3   248  PHE248      0.1605
     96  C         31.8600   67.4180  -13.7420 C.2   248  PHE248      0.2264
     97  O         32.0350   68.2920  -14.5830 O.2   248  PHE248     -0.2867
     98  CB        33.0340   65.2340  -14.0760 C.3   248  PHE248      0.0534
     99  CG        33.2620   65.3890  -15.5690 C.ar  248  PHE248     -0.0203
    100  CD1       34.5620   65.4820  -16.0820 C.ar  248  PHE248     -0.0042
    101  CD2       32.1780   65.5360  -16.4600 C.ar  248  PHE248     -0.0042
    102  CE1       34.7880   65.7390  -17.4650 C.ar  248  PHE248     -0.0003
    103  CE2       32.3860   65.7890  -17.8390 C.ar  248  PHE248     -0.0003
    104  CZ        33.6940   65.8940  -18.3430 C.ar  248  PHE248     -0.0000
@<TRIPOS>BOND
     1    37    38    1
     2    37    36    1
     3    38    32    1
     4    50    49    2
     5    42    41    2
     6    56    57    1
     7    49    48    1
     8    59    58    2
     9    36    33    1
    10    58    57    1
    11    41    40    1
    12    35    34    2
    13    23    24    1
    14    32    33    1
    15    32    25   am
    16    57    60    1
    17    24    25    1
    18    24    27    1
    19    34    33    1
    20    34    39   am
    21   104   103   ar
    22   104   102   ar
    23    47    48    1
    24    48    51    1
    25    40    39    1
    26    40    43    1
    27    25    26    2
    28   103   101   ar
    29    28    27    1
    30    28    29    1
    31    62    63    1
    32   102   100   ar
    33    60    61    1
    34    51    52    1
    35    29    30    1
    36    43    44    1
    37    65    64    2
    38    64    63    1
    39    45    44    2
    40   101    99   ar
    41    14    15    1
    42    14    13    1
    43    63    66    1
    44   100    99   ar
    45    44    46   am
    46    66    67    1
    47    52    53    1
    48    15     9    1
    49    99    98    1
    50    54    53   ar
    51    13    10    1
    52    30    31    1
    53    67    68   ar
    54    67    69   ar
    55    53    55   ar
    56    97    96    2
    57     1     2    1
    58     9    10    1
    59     9     3   am
    60    10    11    1
    61    98    95    1
    62     2     3    1
    63     2     5    1
    64    96    95    1
    65     3     4    2
    66    95    94    1
    67    11    12    2
    68    11    16   am
    69     5     6    1
    70    16    17    1
    71     7     6   ar
    72     6     8   ar
    73    85    84    2
    74    83    84    1
    75    83    82    1
    76    84    86   am
    77    18    17    1
    78    18    19    2
    79    17    20    1
    80    80    79    2
    81    82    79   am
    82    79    78    1
    83    89    88    2
    84    86    87    1
    85    20    22    1
    86    20    21    1
    87    88    87    1
    88    81    78    1
    89    75    74    1
    90    87    90    1
    91    78    77    1
    92    76    74    1
    93    74    71    1
    94    92    91   ar
    95    90    91    1
    96    73    72    2
    97    91    93   ar
    98    71    72    1
    99    71    70    1
