@<TRIPOS>MOLECULE
tmp/3kziB11.pdb
 155 149 0 0 0
SMALL
GASTEIGER

@<TRIPOS>ATOM
      1  N         52.1700    7.8510  -43.1020 N.3    36  MET36      -0.1245
      2  CA        52.9010    6.7780  -43.7600 C.3    36  MET36       0.1570
      3  C         53.6480    7.4660  -44.8980 C.2    36  MET36       0.2261
      4  O         54.7350    7.0540  -45.2900 O.2    36  MET36      -0.2867
      5  CB        51.9680    5.7110  -44.3350 C.3    36  MET36       0.0387
      6  CG        52.6910    4.5930  -45.0930 C.3    36  MET36       0.0595
      7  SD        53.7360    3.5540  -44.0380 S.3    36  MET36      -0.1393
      8  CE        53.8010    1.9640  -44.9900 C.3    36  MET36       0.0692
      9  N         56.8530    9.1430  -43.7760 N.3    39  TYR39      -0.1241
     10  CA        57.8390    8.1110  -43.4830 C.3    39  TYR39       0.1605
     11  C         58.5580    7.7130  -44.7620 C.2    39  TYR39       0.2264
     12  O         59.7590    7.4950  -44.7600 O.2    39  TYR39      -0.2867
     13  CB        57.1610    6.8800  -42.8760 C.3    39  TYR39       0.0534
     14  CG        58.1260    5.7690  -42.5700 C.ar   39  TYR39      -0.0201
     15  CD1       59.0310    5.8860  -41.5230 C.ar   39  TYR39      -0.0009
     16  CD2       58.1730    4.6170  -43.3670 C.ar   39  TYR39      -0.0009
     17  CE1       59.9540    4.9010  -41.2710 C.ar   39  TYR39       0.0417
     18  CE2       59.1030    3.6210  -43.1280 C.ar   39  TYR39       0.0417
     19  CZ        59.9940    3.7740  -42.0680 C.ar   39  TYR39       0.1957
     20  OH        60.9240    2.7950  -41.7900 O.3    39  TYR39      -0.2866
     21  N         62.6730    8.5660  -46.1620 N.3    43  THR43      -0.1218
     22  CA        63.5790    7.4490  -46.4390 C.3    43  THR43       0.1862
     23  C         63.7390    7.0310  -47.9040 C.2    43  THR43       0.2287
     24  O         64.6470    6.2450  -48.2290 O.2    43  THR43      -0.2866
     25  CB        63.1500    6.1920  -45.6590 C.3    43  THR43       0.1770
     26  OG1       61.9020    5.7210  -46.1760 O.3    43  THR43      -0.2211
     27  CG2       62.9910    6.5010  -44.1710 C.3    43  THR43       0.0375
     28  N         58.8000  -13.6330  -43.3340 N.3   324  PHE324     -0.1241
     29  CA        59.4800  -12.8550  -42.3120 C.3   324  PHE324      0.1605
     30  C         60.7880  -12.2500  -42.8000 C.2   324  PHE324      0.2264
     31  O         61.6360  -11.8520  -42.0020 O.2   324  PHE324     -0.2867
     32  CB        59.6730  -13.7200  -41.0670 C.3   324  PHE324      0.0534
     33  CG        58.3850  -14.1140  -40.4240 C.ar  324  PHE324     -0.0203
     34  CD1       57.6710  -13.1990  -39.6690 C.ar  324  PHE324     -0.0042
     35  CD2       57.8480  -15.3660  -40.6320 C.ar  324  PHE324     -0.0042
     36  CE1       56.4290  -13.5280  -39.1310 C.ar  324  PHE324     -0.0003
     37  CE2       56.6080  -15.7100  -40.1030 C.ar  324  PHE324     -0.0003
     38  CZ        55.8960  -14.7900  -39.3520 C.ar  324  PHE324     -0.0000
     39  N         61.6860   -9.4030  -43.9500 N.3   326  THR326     -0.1203
     40  CA        61.2570   -8.0240  -43.9090 C.3   326  THR326      0.1994
     41  C         62.0180   -6.9750  -44.7150 C.2   326  THR326      0.2618
     42  O         63.0940   -7.2210  -45.2360 O.2   326  THR326     -0.2717
     43  CB        61.2400   -7.5830  -42.4610 C.3   326  THR326      0.1784
     44  OG1       62.4630   -7.9960  -41.8280 O.3   326  THR326     -0.2211
     45  CG2       60.0710   -8.2120  -41.7470 C.3   326  THR326      0.0376
     46  N         61.4340   -5.7880  -44.8000 N.am  327  GLY327     -0.1942
     47  CA        62.0720   -4.6980  -45.5060 C.3   327  GLY327      0.1998
     48  C         61.9310   -4.6200  -47.0210 C.2   327  GLY327      0.2480
     49  O         61.2010   -5.4060  -47.6540 O.2   327  GLY327     -0.2729
     50  N         62.6420   -3.6520  -47.6290 N.am  328  PRO328     -0.2726
     51  CA        62.6960   -3.3520  -49.0650 C.3   328  PRO328      0.1402
     52  C         63.4220   -4.4680  -49.7900 C.2   328  PRO328      0.2269
     53  O         64.0020   -5.3490  -49.1590 O.2   328  PRO328     -0.2865
     54  CB        63.4680   -2.0470  -49.1120 C.3   328  PRO328      0.0296
     55  CG        64.4090   -2.2050  -47.9810 C.3   328  PRO328      0.0237
     56  CD        63.5720   -2.7870  -46.8860 C.3   328  PRO328      0.0939
     57  N         67.4020   -4.8820  -48.9330 N.3   331  LYS331     -0.1245
     58  CA        68.0460   -5.4850  -47.7830 C.3   331  LYS331      0.1561
     59  C         68.4200   -6.8860  -48.2120 C.2   331  LYS331      0.2260
     60  O         69.1330   -7.5870  -47.5130 O.2   331  LYS331     -0.2867
     61  CB        67.1040   -5.5400  -46.5800 C.3   331  LYS331      0.0271
     62  CG        67.7400   -6.0880  -45.2800 C.3   331  LYS331      0.0035
     63  CD        68.8570   -5.1930  -44.7340 C.3   331  LYS331      0.0206
     64  CE        69.1700   -5.4580  -43.2610 C.3   331  LYS331      0.1093
     65  NZ        69.6560   -6.8380  -42.9970 N.3   331  LYS331     -0.1314
     66  N         75.9160   -0.2920  -47.7210 N.3   435  THR435     -0.1203
     67  CA        74.9120    0.6270  -47.2200 C.3   435  THR435      0.1994
     68  C         73.8480    0.0400  -46.3120 C.2   435  THR435      0.2617
     69  O         73.8660    0.2620  -45.1130 O.2   435  THR435     -0.2717
     70  CB        74.1930    1.3030  -48.3520 C.3   435  THR435      0.1784
     71  OG1       75.0970    1.4780  -49.4480 O.3   435  THR435     -0.2211
     72  CG2       73.6730    2.6380  -47.8840 C.3   435  THR435      0.0376
     73  N         72.9190   -0.7090  -46.8820 N.am  436  LEU436     -0.1979
     74  CA        71.8370   -1.2770  -46.0990 C.3   436  LEU436      0.1596
     75  C         72.2230   -2.5200  -45.3110 C.2   436  LEU436      0.2287
     76  O         71.3870   -3.1310  -44.6570 O.2   436  LEU436     -0.2864
     77  CB        70.6650   -1.5950  -47.0290 C.3   436  LEU436      0.0297
     78  CG        70.3510   -0.4110  -47.9370 C.3   436  LEU436      0.0022
     79  CD1       69.2160   -0.7530  -48.8520 C.3   436  LEU436      0.0001
     80  CD2       70.0150    0.7990  -47.0910 C.3   436  LEU436      0.0001
     81  N         71.8350   -8.9640  -46.7190 N.3   439  ASP439     -0.1239
     82  CA        72.1740  -10.3350  -46.4060 C.3   439  ASP439      0.1674
     83  C         72.1790  -11.2560  -47.6060 C.2   439  ASP439      0.2266
     84  O         72.5950  -12.4170  -47.5040 O.2   439  ASP439     -0.2867
     85  CB        71.2210  -10.8880  -45.3390 C.3   439  ASP439      0.1410
     86  CG        69.7630  -10.6960  -45.7000 C.2   439  ASP439      0.3668
     87  OD1       69.4060  -10.9600  -46.8690 O.co2 439  ASP439     -0.2456
     88  OD2       68.9740  -10.2950  -44.8160 O.co2 439  ASP439     -0.2456
     89  N         63.8330  -10.7210  -51.1910 N.3   443  ARG443     -0.1245
     90  CA        62.6490  -10.2280  -50.4940 C.3   443  ARG443      0.1563
     91  C         61.6470   -9.8400  -51.5840 C.2   443  ARG443      0.2260
     92  O         62.0520   -9.5670  -52.7150 O.2   443  ARG443     -0.2867
     93  CB        63.0060   -9.0200  -49.6260 C.3   443  ARG443      0.0307
     94  CG        63.8320   -9.3790  -48.4050 C.3   443  ARG443      0.0489
     95  CD        64.3660   -8.1470  -47.7260 C.3   443  ARG443      0.2205
     96  NE        64.9010   -8.4270  -46.3980 N.pl3 443  ARG443     -0.0865
     97  CZ        65.9100   -9.2520  -46.1530 C.cat 443  ARG443      0.5346
     98  NH1       66.5020   -9.8890  -47.1530 N.pl3 443  ARG443      0.1354
     99  NH2       66.3360   -9.4330  -44.9100 N.pl3 443  ARG443      0.1354
    100  N         53.5570   -7.7500  -51.3900 N.3   449  TRP449     -0.1241
    101  CA        52.9620   -7.5540  -50.0690 C.3   449  TRP449      0.1605
    102  C         51.5000   -7.1530  -50.1060 C.2   449  TRP449      0.2264
    103  O         50.6790   -7.7360  -49.4050 O.2   449  TRP449     -0.2867
    104  CB        53.7450   -6.5220  -49.2510 C.3   449  TRP449      0.0550
    105  CG        55.0140   -7.0510  -48.6980 C.ar  449  TRP449      0.0003
    106  CD1       56.2600   -6.7370  -49.0970 C.ar  449  TRP449      0.0946
    107  CD2       55.1550   -8.0310  -47.6780 C.ar  449  TRP449      0.0152
    108  NE1       57.1820   -7.4550  -48.3980 N.ar  449  TRP449     -0.2442
    109  CE2       56.5270   -8.2620  -47.5140 C.ar  449  TRP449      0.0810
    110  CE3       54.2520   -8.7390  -46.8860 C.ar  449  TRP449      0.0012
    111  CZ2       57.0300   -9.1740  -46.5850 C.ar  449  TRP449      0.0191
    112  CZ3       54.7460   -9.6430  -45.9700 C.ar  449  TRP449      0.0001
    113  CH2       56.1280   -9.8520  -45.8260 C.ar  449  TRP449      0.0015
    114  N         49.4340  -10.1030  -50.7260 N.3   452  PHE452     -0.1227
    115  CA        49.2970  -11.0160  -49.6090 C.3   452  PHE452      0.1736
    116  C         48.3300  -10.4420  -48.6000 C.2   452  PHE452      0.2595
    117  O         47.3990  -11.1160  -48.1670 O.2   452  PHE452     -0.2718
    118  CB        50.6320  -11.2280  -48.9200 C.3   452  PHE452      0.0547
    119  CG        50.5160  -11.8710  -47.5600 C.ar  452  PHE452     -0.0202
    120  CD1       50.1270  -13.2030  -47.4280 C.ar  452  PHE452     -0.0042
    121  CD2       50.7690  -11.1390  -46.4090 C.ar  452  PHE452     -0.0042
    122  CE1       49.9950  -13.7820  -46.1830 C.ar  452  PHE452     -0.0003
    123  CE2       50.6360  -11.7190  -45.1510 C.ar  452  PHE452     -0.0003
    124  CZ        50.2500  -13.0350  -45.0410 C.ar  452  PHE452     -0.0000
    125  N         48.5560   -9.1940  -48.2120 N.am  453  ALA453     -0.1980
    126  CA        47.6940   -8.5480  -47.2300 C.3   453  ALA453      0.1597
    127  C         46.2150   -8.5290  -47.6230 C.2   453  ALA453      0.2287
    128  O         45.3560   -8.8510  -46.8160 O.2   453  ALA453     -0.2864
    129  CB        48.1790   -7.1250  -46.9670 C.3   453  ALA453      0.0319
    130  N         44.4370  -11.9540  -47.6290 N.3   456  VAL456     -0.1231
    131  CA        44.1300  -12.4370  -46.2920 C.3   456  VAL456      0.1692
    132  C         42.9290  -11.6740  -45.7670 C.2   456  VAL456      0.2592
    133  O         41.8830  -12.2710  -45.5200 O.2   456  VAL456     -0.2718
    134  CB        45.3380  -12.2840  -45.3260 C.3   456  VAL456      0.0266
    135  CG1       44.9490  -12.6700  -43.9050 C.3   456  VAL456      0.0020
    136  CG2       46.4550  -13.1950  -45.7720 C.3   456  VAL456      0.0020
    137  N         43.0570  -10.3620  -45.6090 N.am  457  PHE457     -0.1976
    138  CA        41.9390   -9.5610  -45.1250 C.3   457  PHE457      0.1639
    139  C         40.6200   -9.9940  -45.7780 C.2   457  PHE457      0.2290
    140  O         39.6230  -10.2030  -45.0970 O.2   457  PHE457     -0.2864
    141  CB        42.1650   -8.0830  -45.4120 C.3   457  PHE457      0.0560
    142  CG        43.2550   -7.4590  -44.5920 C.ar  457  PHE457     -0.0200
    143  CD1       43.4260   -7.7940  -43.2510 C.ar  457  PHE457     -0.0042
    144  CD2       44.0750   -6.4870  -45.1430 C.ar  457  PHE457     -0.0042
    145  CE1       44.4070   -7.1600  -42.4650 C.ar  457  PHE457     -0.0003
    146  CE2       45.0550   -5.8490  -44.3740 C.ar  457  PHE457     -0.0003
    147  CZ        45.2200   -6.1870  -43.0330 C.ar  457  PHE457     -0.0000
    148  N         39.4220  -13.1900  -44.5630 N.3   460  LEU460     -0.1245
    149  CA        39.0610  -13.0310  -43.1630 C.3   460  LEU460      0.1561
    150  C         37.6910  -12.3460  -43.1000 C.2   460  LEU460      0.2260
    151  O         36.8320  -12.6960  -42.2910 O.2   460  LEU460     -0.2867
    152  CB        40.0910  -12.1640  -42.4320 C.3   460  LEU460      0.0270
    153  CG        41.2690  -12.7900  -41.6820 C.3   460  LEU460      0.0019
    154  CD1       42.0250  -11.6870  -40.9820 C.3   460  LEU460      0.0001
    155  CD2       40.7810  -13.7910  -40.6520 C.3   460  LEU460      0.0001
@<TRIPOS>BOND
     1    92    91    2
     2    91    90    1
     3   100   101    1
     4    89    90    1
     5   114   115    1
     6    90    93    1
     7   102   101    1
     8   102   103    2
     9   101   104    1
    10    52    53    2
    11    52    51    1
    12    93    94    1
    13   115   118    1
    14   115   116    1
    15    71    70    1
    16   104   105    1
    17    54    51    1
    18    54    55    1
    19   106   105   ar
    20   106   108   ar
    21    51    50    1
    22    57    58    1
    23   118   119    1
    24    79    78    1
    25   105   107   ar
    26   116   125   am
    27   116   117    2
    28    94    95    1
    29   108   109   ar
    30    70    72    1
    31    70    67    1
    32    24    23    2
    33    59    58    1
    34    59    60    2
    35   125   126    1
    36    55    56    1
    37    78    80    1
    38    78    77    1
    39    23    22    1
    40    58    61    1
    41    95    96    1
    42    66    67    1
    43   107   109   ar
    44   107   110   ar
    45    49    48    2
    46   130   131    1
    47    50    48   am
    48    50    56    1
    49   127   126    1
    50   127   128    2
    51    83    84    2
    52    83    82    1
    53   119   120   ar
    54   119   121   ar
    55   109   111   ar
    56   120   122   ar
    57   126   129    1
    58    67    68    1
    59    98    97    1
    60    77    74    1
    61    48    47    1
    62   110   112   ar
    63    73    68   am
    64    73    74    1
    65    87    86   ar
    66    81    82    1
    67   111   113   ar
    68    61    62    1
    69    22    21    1
    70    22    25    1
    71   121   123   ar
    72    82    85    1
    73    96    97    2
    74    68    69    2
    75   131   132    1
    76   131   134    1
    77   122   124   ar
    78    26    25    1
    79    97    99    1
    80    74    75    1
    81   112   113   ar
    82   139   138    1
    83   139   140    2
    84   136   134    1
    85   132   137   am
    86   132   133    2
    87    86    85    1
    88    86    88   ar
    89    25    27    1
    90   137   138    1
    91    47    46    1
    92   141   138    1
    93   141   142    1
    94   134   135    1
    95    75    76    2
    96     4     3    2
    97    62    63    1
    98    42    41    2
    99   123   124   ar
   100   144   142   ar
   101   144   146   ar
   102     6     5    1
   103     6     7    1
   104     8     7    1
   105     3     2    1
   106    46    41   am
   107    11    12    2
   108    11    10    1
   109    63    64    1
   110    41    40    1
   111   142   143   ar
   112   148   149    1
   113   146   147   ar
   114     5     2    1
   115    39    40    1
   116    40    43    1
   117     9    10    1
   118     2     1    1
   119    10    13    1
   120    16    18   ar
   121    16    14   ar
   122    28    29    1
   123    64    65    1
   124   143   145   ar
   125   149   150    1
   126   149   152    1
   127    18    19   ar
   128   150   151    2
   129   147   145   ar
   130    13    14    1
   131    30    29    1
   132    30    31    2
   133    14    15   ar
   134    43    44    1
   135    43    45    1
   136   152   153    1
   137    29    32    1
   138    19    20    1
   139    19    17   ar
   140   153   154    1
   141   153   155    1
   142    15    17   ar
   143    32    33    1
   144    35    33   ar
   145    35    37   ar
   146    33    34   ar
   147    37    38   ar
   148    34    36   ar
   149    38    36   ar
