@<TRIPOS>MOLECULE
tmp/3kziC07.pdb
 242 239 0 0 0
SMALL
GASTEIGER

@<TRIPOS>ATOM
      1  N         74.2770  -73.1190  -33.6190 N.3   164  TRP164     -0.1241
      2  CA        75.6350  -72.9380  -33.1420 C.3   164  TRP164      0.1605
      3  C         76.4200  -74.2330  -33.2280 C.2   164  TRP164      0.2264
      4  O         77.5890  -74.2880  -32.8600 O.2   164  TRP164     -0.2867
      5  CB        75.6270  -72.4560  -31.7110 C.3   164  TRP164      0.0550
      6  CG        74.9720  -71.1370  -31.5080 C.ar  164  TRP164      0.0003
      7  CD1       73.7620  -70.9120  -30.9200 C.ar  164  TRP164      0.0946
      8  CD2       75.5170  -69.8420  -31.8060 C.ar  164  TRP164      0.0152
      9  NE1       73.5210  -69.5570  -30.8200 N.ar  164  TRP164     -0.2442
     10  CE2       74.5830  -68.8790  -31.3560 C.ar  164  TRP164      0.0810
     11  CE3       76.7030  -69.4040  -32.4040 C.ar  164  TRP164      0.0012
     12  CZ2       74.7990  -67.5090  -31.4850 C.ar  164  TRP164      0.0191
     13  CZ3       76.9150  -68.0390  -32.5280 C.ar  164  TRP164      0.0001
     14  CH2       75.9660  -67.1070  -32.0700 C.ar  164  TRP164      0.0015
     15  N         67.6280  -55.2170  -19.5220 N.3   192  PRO192     -0.2102
     16  CA        66.8930  -55.4390  -20.7650 C.3   192  PRO192      0.1504
     17  C         67.3940  -54.4950  -21.8510 C.2   192  PRO192      0.2576
     18  O         66.8180  -54.4110  -22.9300 O.2   192  PRO192     -0.2718
     19  CB        65.4600  -55.1350  -20.3650 C.3   192  PRO192      0.0282
     20  CG        65.6360  -53.9970  -19.4360 C.3   192  PRO192      0.0208
     21  CD        66.8020  -54.4600  -18.5700 C.3   192  PRO192      0.0893
     22  N         68.4710  -53.7780  -21.5600 N.am  193  PHE193     -0.1963
     23  CA        69.0260  -52.8360  -22.5170 C.3   193  PHE193      0.1771
     24  C         70.1020  -53.4190  -23.4350 C.2   193  PHE193      0.2620
     25  O         70.2950  -54.6370  -23.4640 O.2   193  PHE193     -0.2715
     26  CB        69.5270  -51.6040  -21.7670 C.3   193  PHE193      0.0574
     27  CG        68.4180  -50.7530  -21.2290 C.ar  193  PHE193     -0.0200
     28  CD1       67.7240  -49.8930  -22.0690 C.ar  193  PHE193     -0.0042
     29  CD2       68.0230  -50.8490  -19.9070 C.ar  193  PHE193     -0.0042
     30  CE1       66.6470  -49.1400  -21.5960 C.ar  193  PHE193     -0.0003
     31  CE2       66.9480  -50.1000  -19.4220 C.ar  193  PHE193     -0.0003
     32  CZ        66.2610  -49.2470  -20.2690 C.ar  193  PHE193     -0.0000
     33  N         70.7770  -52.5580  -24.2040 N.am  194  GLY194     -0.1940
     34  CA        71.8040  -53.0190  -25.1300 C.3   194  GLY194      0.2014
     35  C         72.8850  -53.8610  -24.4820 C.2   194  GLY194      0.2639
     36  O         73.4010  -53.5090  -23.4280 O.2   194  GLY194     -0.2714
     37  N         73.2520  -54.9650  -25.1170 N.am  195  GLY195     -0.1954
     38  CA        74.2650  -55.8330  -24.5410 C.3   195  GLY195      0.1869
     39  C         73.5690  -56.8400  -23.6480 C.2   195  GLY195      0.2309
     40  O         73.0920  -57.8810  -24.1130 O.2   195  GLY195     -0.2863
     41  N         70.8830  -58.4810  -22.4880 N.3   197  GLY197     -0.1210
     42  CA        69.5320  -58.4030  -23.0170 C.3   197  GLY197      0.1956
     43  C         68.3880  -59.0570  -22.2720 C.2   197  GLY197      0.2611
     44  O         67.2700  -59.0910  -22.7990 O.2   197  GLY197     -0.2717
     45  N         68.6460  -59.5570  -21.0610 N.am  198  TRP198     -0.1976
     46  CA        67.6300  -60.2480  -20.2520 C.3   198  TRP198      0.1640
     47  C         67.3060  -61.6020  -20.8980 C.2   198  TRP198      0.2290
     48  O         68.1610  -62.1910  -21.5520 O.2   198  TRP198     -0.2864
     49  CB        66.3640  -59.3930  -20.1300 C.3   198  TRP198      0.0576
     50  CG        65.4240  -59.8200  -19.0400 C.ar  198  TRP198      0.0006
     51  CD1       65.7400  -60.0890  -17.7400 C.ar  198  TRP198      0.0946
     52  CD2       64.0020  -59.9750  -19.1420 C.ar  198  TRP198      0.0152
     53  NE1       64.6030  -60.3980  -17.0220 N.ar  198  TRP198     -0.2442
     54  CE2       63.5250  -60.3340  -17.8620 C.ar  198  TRP198      0.0810
     55  CE3       63.0860  -59.8430  -20.1900 C.ar  198  TRP198      0.0012
     56  CZ2       62.1700  -60.5620  -17.6060 C.ar  198  TRP198      0.0191
     57  CZ3       61.7400  -60.0700  -19.9320 C.ar  198  TRP198      0.0001
     58  CH2       61.2960  -60.4250  -18.6510 C.ar  198  TRP198      0.0015
     59  N         65.9250  -62.5700  -23.5660 N.3   200  VAL200     -0.1231
     60  CA        66.2350  -62.7190  -24.9780 C.3   200  VAL200      0.1692
     61  C         67.7130  -62.9580  -25.2780 C.2   200  VAL200      0.2593
     62  O         68.0730  -63.2930  -26.4040 O.2   200  VAL200     -0.2718
     63  CB        65.7070  -61.5100  -25.8000 C.3   200  VAL200      0.0266
     64  CG1       65.6340  -61.8710  -27.2820 C.3   200  VAL200      0.0020
     65  CG2       64.3250  -61.1080  -25.3100 C.3   200  VAL200      0.0020
     66  N         68.5740  -62.8170  -24.2780 N.am  201  SER201     -0.1938
     67  CA        69.9960  -63.0550  -24.5080 C.3   201  SER201      0.2055
     68  C         70.3870  -64.5370  -24.4480 C.2   201  SER201      0.2643
     69  O         71.5600  -64.8740  -24.6030 O.2   201  SER201     -0.2714
     70  CB        70.8400  -62.2620  -23.5070 C.3   201  SER201      0.2130
     71  OG        70.5990  -62.6770  -22.1770 O.3   201  SER201     -0.2179
     72  N         69.4180  -65.4230  -24.2190 N.am  202  VAL202     -0.1963
     73  CA        69.7050  -66.8500  -24.1730 C.3   202  VAL202      0.1727
     74  C         70.3950  -67.1650  -25.4720 C.2   202  VAL202      0.2616
     75  O         69.8660  -66.8330  -26.5270 O.2   202  VAL202     -0.2715
     76  CB        68.4400  -67.6800  -24.1450 C.3   202  VAL202      0.0290
     77  CG1       68.7910  -69.1270  -23.8740 C.3   202  VAL202      0.0023
     78  CG2       67.5000  -67.1460  -23.1220 C.3   202  VAL202      0.0023
     79  N         71.5460  -67.8300  -25.4200 N.am  203  ASN203     -0.1972
     80  CA        72.2920  -68.1270  -26.6440 C.3   203  ASN203      0.1688
     81  C         72.8620  -69.5270  -26.8590 C.2   203  ASN203      0.2292
     82  O         73.8170  -69.6880  -27.6170 O.2   203  ASN203     -0.2864
     83  CB        73.4260  -67.1200  -26.7870 C.3   203  ASN203      0.1181
     84  CG        74.4990  -67.3210  -25.7530 C.2   203  ASN203      0.2629
     85  OD1       75.2950  -68.2490  -25.8580 O.2   203  ASN203     -0.2716
     86  ND2       74.5230  -66.4580  -24.7340 N.am  203  ASN203     -0.0877
     87  N         52.0490  -58.7170  -21.5420 N.3   256  MET256     -0.1245
     88  CA        53.4680  -58.7670  -21.2160 C.3   256  MET256      0.1570
     89  C         54.2050  -59.8870  -21.9500 C.2   256  MET256      0.2261
     90  O         55.3260  -59.7060  -22.4120 O.2   256  MET256     -0.2867
     91  CB        53.6420  -58.9500  -19.7130 C.3   256  MET256      0.0387
     92  CG        55.0680  -59.2080  -19.2850 C.3   256  MET256      0.0595
     93  SD        55.1760  -59.3800  -17.5040 S.3   256  MET256     -0.1393
     94  CE        54.5960  -57.7310  -16.9910 C.3   256  MET256      0.0692
     95  N         54.7540  -58.8170  -25.5920 N.3   259  PHE259     -0.1227
     96  CA        55.8410  -57.9040  -25.8530 C.3   259  PHE259      0.1736
     97  C         57.1430  -58.6960  -25.7840 C.2   259  PHE259      0.2595
     98  O         58.0270  -58.5470  -26.6230 O.2   259  PHE259     -0.2718
     99  CB        55.8650  -56.7740  -24.8190 C.3   259  PHE259      0.0547
    100  CG        54.7380  -55.7720  -24.9680 C.ar  259  PHE259     -0.0202
    101  CD1       54.5040  -55.1220  -26.1900 C.ar  259  PHE259     -0.0042
    102  CD2       53.9340  -55.4450  -23.8830 C.ar  259  PHE259     -0.0042
    103  CE1       53.4840  -54.1640  -26.3200 C.ar  259  PHE259     -0.0003
    104  CE2       52.9200  -54.4960  -24.0040 C.ar  259  PHE259     -0.0003
    105  CZ        52.6950  -53.8530  -25.2300 C.ar  259  PHE259     -0.0000
    106  N         57.2760  -59.5570  -24.7920 N.am  260  ILE260     -0.1980
    107  CA        58.5040  -60.3230  -24.6870 C.3   260  ILE260      0.1595
    108  C         58.7060  -61.1860  -25.9250 C.2   260  ILE260      0.2287
    109  O         59.8330  -61.3750  -26.3750 O.2   260  ILE260     -0.2864
    110  CB        58.5130  -61.2110  -23.4200 C.3   260  ILE260      0.0276
    111  CG1       58.4850  -60.3330  -22.1680 C.3   260  ILE260      0.0022
    112  CG2       59.7640  -62.0830  -23.3930 C.3   260  ILE260      0.0022
    113  CD1       58.4490  -61.1280  -20.8690 C.3   260  ILE260      0.0001
    114  N         60.0960  -59.1810  -29.0140 N.3   263  CYS263     -0.1235
    115  CA        61.5450  -58.9650  -28.9310 C.3   263  CYS263      0.1677
    116  C         62.3740  -60.2220  -29.1310 C.2   263  CYS263      0.2270
    117  O         63.5170  -60.1610  -29.5750 O.2   263  CYS263     -0.2867
    118  CB        61.9220  -58.3710  -27.5910 C.3   263  CYS263      0.0956
    119  SG        61.3220  -56.7330  -27.3250 S.3   263  CYS263     -0.0801
    120  N         65.0930  -60.2090  -32.0050 N.3   267  PHE267     -0.1227
    121  CA        66.4980  -60.2330  -31.5910 C.3   267  PHE267      0.1736
    122  C         67.1820  -61.5950  -31.5050 C.2   267  PHE267      0.2595
    123  O         68.3060  -61.7510  -31.9720 O.2   267  PHE267     -0.2718
    124  CB        66.6520  -59.5430  -30.2300 C.3   267  PHE267      0.0547
    125  CG        66.4890  -58.0560  -30.2720 C.ar  267  PHE267     -0.0202
    126  CD1       67.4830  -57.2480  -30.8240 C.ar  267  PHE267     -0.0042
    127  CD2       65.3640  -57.4590  -29.7400 C.ar  267  PHE267     -0.0042
    128  CE1       67.3540  -55.8730  -30.8390 C.ar  267  PHE267     -0.0003
    129  CE2       65.2260  -56.0750  -29.7480 C.ar  267  PHE267     -0.0003
    130  CZ        66.2240  -55.2850  -30.2980 C.ar  267  PHE267     -0.0000
    131  N         66.5120  -62.5750  -30.9030 N.am  268  ASN268     -0.1960
    132  CA        67.1260  -63.8740  -30.7290 C.3   268  ASN268      0.1819
    133  C         67.4860  -64.6560  -31.9890 C.2   268  ASN268      0.2621
    134  O         66.7310  -64.7350  -32.9540 O.2   268  ASN268     -0.2715
    135  CB        66.2840  -64.7430  -29.8040 C.3   268  ASN268      0.1195
    136  CG        67.0610  -65.9350  -29.2890 C.2   268  ASN268      0.2630
    137  OD1       67.2820  -66.9100  -30.0110 O.2   268  ASN268     -0.2716
    138  ND2       67.5090  -65.8530  -28.0410 N.am  268  ASN268     -0.0877
    139  N         68.6640  -65.2560  -31.9270 N.am  269  ASN269     -0.1958
    140  CA        69.2600  -66.0250  -33.0050 C.3   269  ASN269      0.1819
    141  C         69.1050  -67.5280  -32.7820 C.2   269  ASN269      0.2621
    142  O         68.9630  -68.2990  -33.7330 O.2   269  ASN269     -0.2715
    143  CB        70.7520  -65.7020  -33.0330 C.3   269  ASN269      0.1195
    144  CG        71.2730  -65.4920  -34.4100 C.2   269  ASN269      0.2630
    145  OD1       70.7760  -66.0810  -35.3630 O.2   269  ASN269     -0.2716
    146  ND2       72.2980  -64.6650  -34.5320 N.am  269  ASN269     -0.0877
    147  N         69.1570  -67.9210  -31.5090 N.am  270  THR270     -0.1951
    148  CA        69.0940  -69.3150  -31.0600 C.3   270  THR270      0.1897
    149  C         67.7820  -70.0850  -31.1730 C.2   270  THR270      0.2313
    150  O         67.7050  -71.0640  -31.9190 O.2   270  THR270     -0.2863
    151  CB        69.5880  -69.3930  -29.6060 C.3   270  THR270      0.1794
    152  OG1       70.8730  -68.7690  -29.5390 O.3   270  THR270     -0.2208
    153  CG2       69.7030  -70.8350  -29.1300 C.3   270  THR270      0.0378
    154  N         68.4180  -61.8320  -38.5590 N.3   280  THR280     -0.1218
    155  CA        67.9260  -60.8230  -37.6300 C.3   280  THR280      0.1862
    156  C         68.1880  -59.3990  -38.1530 C.2   280  THR280      0.2287
    157  O         68.9940  -59.2040  -39.0680 O.2   280  THR280     -0.2866
    158  CB        68.5850  -61.0390  -36.2360 C.3   280  THR280      0.1770
    159  OG1       67.5940  -60.8740  -35.2240 O.3   280  THR280     -0.2211
    160  CG2       69.7230  -60.0560  -35.9820 C.3   280  THR280      0.0375
    161  N         69.8120  -56.8000  -36.7270 N.3   282  PRO282     -0.2116
    162  CA        71.2300  -56.4910  -36.5690 C.3   282  PRO282      0.1372
    163  C         72.1070  -57.4130  -37.4210 C.2   282  PRO282      0.2244
    164  O         73.1020  -56.9850  -38.0150 O.2   282  PRO282     -0.2868
    165  CB        71.4520  -56.6950  -35.0800 C.3   282  PRO282      0.0268
    166  CG        70.1580  -56.2460  -34.5050 C.3   282  PRO282      0.0207
    167  CD        69.1650  -56.9200  -35.4080 C.3   282  PRO282      0.0892
    168  N         76.4730  -55.5760  -30.9280 N.3   335  ASP335     -0.1225
    169  CA        76.1130  -56.5850  -29.9450 C.3   335  ASP335      0.1805
    170  C         75.6360  -57.8370  -30.6670 C.2   335  ASP335      0.2598
    171  O         75.1420  -58.7720  -30.0390 O.2   335  ASP335     -0.2718
    172  CB        74.9840  -56.0910  -29.0400 C.3   335  ASP335      0.1424
    173  CG        75.4160  -54.9820  -28.1170 C.2   335  ASP335      0.3668
    174  OD1       76.4390  -55.1490  -27.4150 O.co2 335  ASP335     -0.2456
    175  OD2       74.7240  -53.9460  -28.0840 O.co2 335  ASP335     -0.2456
    176  N         75.7590  -57.8610  -31.9920 N.am  336  PHE336     -0.1962
    177  CA        75.2930  -59.0260  -32.7180 C.3   336  PHE336      0.1771
    178  C         76.2890  -60.1530  -32.6780 C.2   336  PHE336      0.2619
    179  O         77.4770  -59.9460  -32.9470 O.2   336  PHE336     -0.2715
    180  CB        75.0090  -58.7090  -34.1810 C.3   336  PHE336      0.0574
    181  CG        74.8090  -59.9430  -35.0110 C.ar  336  PHE336     -0.0200
    182  CD1       73.6390  -60.6680  -34.9250 C.ar  336  PHE336     -0.0042
    183  CD2       75.8490  -60.4540  -35.7650 C.ar  336  PHE336     -0.0042
    184  CE1       73.5010  -61.9000  -35.5700 C.ar  336  PHE336     -0.0003
    185  CE2       75.7230  -61.6910  -36.4150 C.ar  336  PHE336     -0.0003
    186  CZ        74.5370  -62.4180  -36.3130 C.ar  336  PHE336     -0.0000
    187  N         75.8040  -61.3540  -32.3680 N.am  337  ARG337     -0.1977
    188  CA        76.6780  -62.5260  -32.3350 C.3   337  ARG337      0.1597
    189  C         76.0170  -63.5420  -33.2440 C.2   337  ARG337      0.2287
    190  O         74.8070  -63.6080  -33.2800 O.2   337  ARG337     -0.2864
    191  CB        76.8000  -63.0690  -30.9050 C.3   337  ARG337      0.0334
    192  CG        77.1730  -62.0280  -29.8460 C.3   337  ARG337      0.0492
    193  CD        78.5730  -61.4800  -30.0540 C.3   337  ARG337      0.2205
    194  NE        79.6000  -62.4710  -29.7570 N.pl3 337  ARG337     -0.0865
    195  CZ        79.8900  -62.9150  -28.5310 C.cat 337  ARG337      0.5346
    196  NH1       79.2270  -62.4540  -27.4740 N.pl3 337  ARG337      0.1354
    197  NH2       80.8420  -63.8300  -28.3610 N.pl3 337  ARG337      0.1354
    198  N         53.0210  -57.3590  -31.6060 N.3   406  PHE406     -0.1241
    199  CA        53.1110  -56.1420  -30.8320 C.3   406  PHE406      0.1605
    200  C         51.7020  -55.5740  -30.7920 C.2   406  PHE406      0.2264
    201  O         51.2800  -55.0540  -29.7760 O.2   406  PHE406     -0.2867
    202  CB        54.0550  -55.1130  -31.4470 C.3   406  PHE406      0.0534
    203  CG        54.2090  -53.8740  -30.6000 C.ar  406  PHE406     -0.0203
    204  CD1       55.1410  -53.8330  -29.5650 C.ar  406  PHE406     -0.0042
    205  CD2       53.3670  -52.7850  -30.7750 C.ar  406  PHE406     -0.0042
    206  CE1       55.2250  -52.7310  -28.7160 C.ar  406  PHE406     -0.0003
    207  CE2       53.4410  -51.6840  -29.9360 C.ar  406  PHE406     -0.0003
    208  CZ        54.3670  -51.6540  -28.9070 C.ar  406  PHE406     -0.0000
    209  N         49.7300  -55.1930  -27.4620 N.3   410  PHE410     -0.1241
    210  CA        49.2220  -53.8670  -27.0830 C.3   410  PHE410      0.1605
    211  C         47.7580  -53.8820  -26.7040 C.2   410  PHE410      0.2264
    212  O         47.4120  -53.6830  -25.5490 O.2   410  PHE410     -0.2867
    213  CB        49.4060  -52.8450  -28.2090 C.3   410  PHE410      0.0534
    214  CG        48.7970  -51.5140  -27.9000 C.ar  410  PHE410     -0.0203
    215  CD1       49.3850  -50.6670  -26.9670 C.ar  410  PHE410     -0.0042
    216  CD2       47.6070  -51.1240  -28.5000 C.ar  410  PHE410     -0.0042
    217  CE1       48.8000  -49.4470  -26.6270 C.ar  410  PHE410     -0.0003
    218  CE2       47.0020  -49.8950  -28.1650 C.ar  410  PHE410     -0.0003
    219  CZ        47.6060  -49.0580  -27.2240 C.ar  410  PHE410     -0.0000
    220  N         46.9150  -55.0050  -23.5020 N.3   413  LEU413     -0.1231
    221  CA        47.2300  -54.1630  -22.3550 C.3   413  LEU413      0.1693
    222  C         46.0780  -53.1900  -22.1440 C.2   413  LEU413      0.2591
    223  O         45.8560  -52.7180  -21.0360 O.2   413  LEU413     -0.2718
    224  CB        48.5190  -53.3820  -22.5800 C.3   413  LEU413      0.0284
    225  CG        48.8210  -52.3350  -21.5060 C.3   413  LEU413      0.0019
    226  CD1       49.2230  -53.0260  -20.2200 C.3   413  LEU413      0.0001
    227  CD2       49.9290  -51.4300  -21.9810 C.3   413  LEU413      0.0001
    228  N         45.3630  -52.8750  -23.2210 N.am  414  VAL414     -0.1980
    229  CA        44.2010  -51.9840  -23.1430 C.3   414  VAL414      0.1595
    230  C         43.1430  -52.8730  -22.5200 C.2   414  VAL414      0.2287
    231  O         42.4560  -52.4820  -21.5780 O.2   414  VAL414     -0.2864
    232  CB        43.7100  -51.5220  -24.5630 C.3   414  VAL414      0.0276
    233  CG1       42.3070  -50.9530  -24.4840 C.3   414  VAL414      0.0022
    234  CG2       44.6500  -50.4760  -25.1310 C.3   414  VAL414      0.0022
    235  N         43.7030  -52.9210  -18.7660 N.3   417  LEU417     -0.1245
    236  CA        43.1640  -51.6990  -18.1760 C.3   417  LEU417      0.1561
    237  C         41.6340  -51.7000  -18.1420 C.2   417  LEU417      0.2260
    238  O         41.0420  -51.4450  -17.1020 O.2   417  LEU417     -0.2867
    239  CB        43.6300  -50.4720  -18.9570 C.3   417  LEU417      0.0270
    240  CG        45.0980  -50.1080  -18.8290 C.3   417  LEU417      0.0019
    241  CD1       45.4060  -48.9650  -19.7760 C.3   417  LEU417      0.0001
    242  CD2       45.4070  -49.7280  -17.3920 C.3   417  LEU417      0.0001
@<TRIPOS>BOND
     1   157   156    2
     2   154   155    1
     3   156   155    1
     4   164   163    2
     5   155   158    1
     6   163   162    1
     7   161   162    1
     8   161   167    1
     9   162   165    1
    10   185   186   ar
    11   185   183   ar
    12   186   184   ar
    13   158   160    1
    14   158   159    1
    15   183   181   ar
    16   184   182   ar
    17   167   166    1
    18   145   144    2
    19   165   166    1
    20   181   182   ar
    21   181   180    1
    22   146   144   am
    23   144   143    1
    24   180   177    1
    25   142   141    2
    26     1     2    1
    27   190   189    2
    28   189   188    1
    29     3     2    1
    30     3     4    2
    31     2     5    1
    32   143   140    1
    33   140   141    1
    34   140   139    1
    35   134   133    2
    36   179   178    2
    37   141   147   am
    38   177   178    1
    39   177   176    1
    40   178   187   am
    41    13    11   ar
    42    13    14   ar
    43    11     8   ar
    44   187   188    1
    45   188   191    1
    46    14    12   ar
    47   120   121    1
    48   176   170   am
    49   133   139   am
    50   133   132    1
    51   123   122    2
    52   150   149    2
    53     8     6   ar
    54     8    10   ar
    55     5     6    1
    56   198   199    1
    57   121   122    1
    58   121   124    1
    59   147   148    1
    60     6     7   ar
    61   122   131   am
    62    12    10   ar
    63   202   199    1
    64   202   203    1
    65    10     9   ar
    66   149   148    1
    67   148   151    1
    68   168   169    1
    69     7     9   ar
    70   191   192    1
    71   131   132    1
    72   128   126   ar
    73   128   130   ar
    74   199   200    1
    75   126   125   ar
    76   200   201    2
    77   205   203   ar
    78   205   207   ar
    79   132   135    1
    80   170   171    2
    81   170   169    1
    82   203   204   ar
    83   130   129   ar
    84   125   124    1
    85   125   127   ar
    86   193   192    1
    87   193   194    1
    88   137   136    2
    89   169   172    1
    90   207   208   ar
    91   135   136    1
    92   194   195    2
    93   129   127   ar
    94   151   152    1
    95   151   153    1
    96   117   116    2
    97   204   206   ar
    98   136   138   am
    99   116   115    1
   100   172   173    1
   101   114   115    1
   102   115   118    1
   103   208   206   ar
   104   195   197    1
   105   195   196    1
   106   216   218   ar
   107   216   214   ar
   108   213   214    1
   109   213   210    1
   110   218   219   ar
   111   173   175   ar
   112   173   174   ar
   113   214   215   ar
   114    82    81    2
   115   118   119    1
   116   209   210    1
   117    64    63    1
   118   219   217   ar
   119   210   211    1
   120   215   217   ar
   121    81    80    1
   122    83    80    1
   123    83    84    1
   124   211   212    2
   125    80    79    1
   126    98    97    2
   127    75    74    2
   128    62    61    2
   129   109   108    2
   130   103   101   ar
   131   103   105   ar
   132   101   100   ar
   133   108   107    1
   134    85    84    2
   135    96    97    1
   136    96    95    1
   137    96    99    1
   138    63    65    1
   139    63    60    1
   140    97   106   am
   141    84    86   am
   142    74    79   am
   143    74    73    1
   144    61    60    1
   145    61    66   am
   146   105   104   ar
   147   234   232    1
   148    34    35    1
   149    34    33    1
   150    37    38    1
   151    37    35   am
   152    60    59    1
   153   100    99    1
   154   100   102   ar
   155   106   107    1
   156   107   110    1
   157    69    68    2
   158   232   233    1
   159   232   229    1
   160    38    39    1
   161    67    68    1
   162    67    66    1
   163    67    70    1
   164    35    36    2
   165    68    72   am
   166    72    73    1
   167    33    24   am
   168    73    76    1
   169    76    77    1
   170    76    78    1
   171    40    39    2
   172   104   102   ar
   173    70    71    1
   174   220   221    1
   175    25    24    2
   176    24    23    1
   177   110   112    1
   178   110   111    1
   179   228   229    1
   180   228   222   am
   181   229   230    1
   182    42    41    1
   183    42    43    1
   184    18    17    2
   185    44    43    2
   186   224   221    1
   187   224   225    1
   188   230   231    2
   189    23    26    1
   190    23    22    1
   191    90    89    2
   192   221   222    1
   193    43    45   am
   194   111   113    1
   195   222   223    2
   196    28    30   ar
   197    28    27   ar
   198   227   225    1
   199    89    88    1
   200    17    22   am
   201    17    16    1
   202    26    27    1
   203    30    32   ar
   204    48    47    2
   205    87    88    1
   206   225   226    1
   207    27    29   ar
   208    88    91    1
   209    45    46    1
   210    47    46    1
   211    16    19    1
   212    16    15    1
   213    19    20    1
   214    32    31   ar
   215    46    49    1
   216    55    57   ar
   217    55    52   ar
   218    49    50    1
   219    57    58   ar
   220    29    31   ar
   221   241   240    1
   222    91    92    1
   223    15    21    1
   224    20    21    1
   225    92    93    1
   226    52    50   ar
   227    52    54   ar
   228    50    51   ar
   229   239   240    1
   230   239   236    1
   231   240   242    1
   232   235   236    1
   233    58    56   ar
   234   236   237    1
   235   237   238    2
   236    54    56   ar
   237    54    53   ar
   238    51    53   ar
   239    93    94    1
