@<TRIPOS>MOLECULE
tmp/3kziA14.pdb
 128 125 0 0 0
SMALL
GASTEIGER

@<TRIPOS>ATOM
      1  N         34.2340  -33.7810  -35.5500 N.3   202  PHE202     -0.1241
      2  CA        33.2090  -34.0530  -34.5560 C.3   202  PHE202      0.1605
      3  C         33.2670  -33.0680  -33.3970 C.2   202  PHE202      0.2264
      4  O         32.2320  -32.5830  -32.9290 O.2   202  PHE202     -0.2867
      5  CB        33.3510  -35.4820  -34.0490 C.3   202  PHE202      0.0534
      6  CG        33.2590  -36.5130  -35.1330 C.ar  202  PHE202     -0.0203
      7  CD1       32.3000  -36.4060  -36.1220 C.ar  202  PHE202     -0.0042
      8  CD2       34.1090  -37.6090  -35.1430 C.ar  202  PHE202     -0.0042
      9  CE1       32.1810  -37.3750  -37.1020 C.ar  202  PHE202     -0.0003
     10  CE2       33.9980  -38.5830  -36.1180 C.ar  202  PHE202     -0.0003
     11  CZ        33.0280  -38.4630  -37.1020 C.ar  202  PHE202     -0.0000
     12  N         31.4090  -30.3910  -34.5550 N.3   205  MET205     -0.1230
     13  CA        29.9960  -30.7340  -34.6750 C.3   205  MET205      0.1702
     14  C         29.3740  -30.6050  -33.3190 C.2   205  MET205      0.2592
     15  O         28.5890  -29.6940  -33.0860 O.2   205  MET205     -0.2718
     16  CB        29.7970  -32.1620  -35.1770 C.3   205  MET205      0.0401
     17  CG        29.8900  -32.3090  -36.6800 C.3   205  MET205      0.0596
     18  SD        28.4940  -31.5890  -37.5530 S.3   205  MET205     -0.1393
     19  CE        28.8200  -29.8450  -37.3310 C.3   205  MET205      0.0692
     20  N         29.7400  -31.4980  -32.4070 N.am  206  HIS206     -0.1976
     21  CA        29.1650  -31.4280  -31.0840 C.3   206  HIS206      0.1656
     22  C         29.1910  -29.9760  -30.6380 C.2   206  HIS206      0.2291
     23  O         28.1610  -29.3170  -30.5720 O.2   206  HIS206     -0.2864
     24  CB        29.9440  -32.2730  -30.0790 C.3   206  HIS206      0.0771
     25  CG        29.2230  -32.4470  -28.7770 C.ar  206  HIS206      0.0820
     26  ND1       28.2260  -33.3820  -28.5980 N.ar  206  HIS206     -0.2267
     27  CD2       29.2670  -31.7270  -27.6320 C.ar  206  HIS206      0.1154
     28  CE1       27.6840  -33.2280  -27.4040 C.ar  206  HIS206      0.1986
     29  NE2       28.2970  -32.2280  -26.7970 N.ar  206  HIS206     -0.2212
     30  N         26.4480  -27.7910  -32.5180 N.3   209  LEU209     -0.1231
     31  CA        25.0820  -28.2820  -32.2900 C.3   209  LEU209      0.1693
     32  C         24.5900  -27.8980  -30.8960 C.2   209  LEU209      0.2591
     33  O         23.5810  -27.2170  -30.7470 O.2   209  LEU209     -0.2718
     34  CB        25.0340  -29.8030  -32.4700 C.3   209  LEU209      0.0284
     35  CG        24.6010  -30.2900  -33.8560 C.3   209  LEU209      0.0019
     36  CD1       25.1860  -29.4090  -34.9220 C.3   209  LEU209      0.0001
     37  CD2       25.0290  -31.7190  -34.0750 C.3   209  LEU209      0.0001
     38  N         25.3240  -28.3290  -29.8800 N.am  210  VAL210     -0.1980
     39  CA        24.9910  -28.0270  -28.5020 C.3   210  VAL210      0.1595
     40  C         24.8960  -26.5290  -28.2220 C.2   210  VAL210      0.2287
     41  O         23.8510  -26.0260  -27.8140 O.2   210  VAL210     -0.2864
     42  CB        26.0430  -28.6340  -27.5630 C.3   210  VAL210      0.0276
     43  CG1       25.9410  -28.0170  -26.1730 C.3   210  VAL210      0.0022
     44  CG2       25.8630  -30.1440  -27.5210 C.3   210  VAL210      0.0022
     45  N         20.7010  -27.3250  -22.6010 N.3   237  TYR237     -0.1241
     46  CA        20.4370  -27.2130  -24.0310 C.3   237  TYR237      0.1605
     47  C         19.3530  -28.2110  -24.4430 C.2   237  TYR237      0.2264
     48  O         19.1510  -29.2290  -23.7730 O.2   237  TYR237     -0.2867
     49  CB        21.7270  -27.4270  -24.8460 C.3   237  TYR237      0.0534
     50  CG        22.1950  -28.8620  -24.9730 C.ar  237  TYR237     -0.0201
     51  CD1       21.9170  -29.6070  -26.1170 C.ar  237  TYR237     -0.0009
     52  CD2       22.9280  -29.4700  -23.9520 C.ar  237  TYR237     -0.0009
     53  CE1       22.3550  -30.9220  -26.2470 C.ar  237  TYR237      0.0417
     54  CE2       23.3750  -30.7800  -24.0680 C.ar  237  TYR237      0.0417
     55  CZ        23.0860  -31.5050  -25.2200 C.ar  237  TYR237      0.1957
     56  OH        23.5290  -32.8150  -25.3400 O.3   237  TYR237     -0.2866
     57  N         18.5740  -30.9370  -26.4020 N.3   239  ILE239     -0.1245
     58  CA        19.1220  -32.0410  -27.1820 C.3   239  ILE239      0.1561
     59  C         18.1100  -32.6250  -28.1760 C.2   239  ILE239      0.2260
     60  O         18.4670  -33.4130  -29.0510 O.2   239  ILE239     -0.2867
     61  CB        19.6460  -33.1530  -26.2430 C.3   239  ILE239      0.0252
     62  CG1       20.2160  -34.3120  -27.0670 C.3   239  ILE239      0.0019
     63  CG2       18.5330  -33.5980  -25.3040 C.3   239  ILE239      0.0019
     64  CD1       21.1440  -35.2260  -26.2930 C.3   239  ILE239      0.0001
     65  N         18.3640  -30.0060  -31.0120 N.3   242  ALA242     -0.1231
     66  CA        19.6570  -30.2370  -31.6210 C.3   242  ALA242      0.1694
     67  C         19.4570  -31.3380  -32.6400 C.2   242  ALA242      0.2592
     68  O         19.7150  -31.1620  -33.8270 O.2   242  ALA242     -0.2718
     69  CB        20.6620  -30.6780  -30.5670 C.3   242  ALA242      0.0304
     70  N         18.9830  -32.4820  -32.1600 N.am  243  HIS243     -0.1976
     71  CA        18.7320  -33.6330  -33.0220 C.3   243  HIS243      0.1656
     72  C         17.7570  -33.2840  -34.1410 C.2   243  HIS243      0.2291
     73  O         17.8660  -33.8120  -35.2480 O.2   243  HIS243     -0.2864
     74  CB        18.1650  -34.7990  -32.2070 C.3   243  HIS243      0.0771
     75  CG        17.6540  -35.9250  -33.0500 C.ar  243  HIS243      0.0820
     76  ND1       18.4160  -36.5270  -34.0260 N.ar  243  HIS243     -0.2267
     77  CD2       16.4550  -36.5530  -33.0670 C.ar  243  HIS243      0.1154
     78  CE1       17.7110  -37.4780  -34.6100 C.ar  243  HIS243      0.1986
     79  NE2       16.5170  -37.5140  -34.0470 N.ar  243  HIS243     -0.2212
     80  N         19.9690  -31.3170  -36.8140 N.3   246  PHE246     -0.1241
     81  CA        20.9410  -32.2190  -37.4130 C.3   246  PHE246      0.1605
     82  C         20.3140  -33.3720  -38.1770 C.2   246  PHE246      0.2264
     83  O         20.8930  -33.8640  -39.1430 O.2   246  PHE246     -0.2867
     84  CB        21.8980  -32.7700  -36.3460 C.3   246  PHE246      0.0534
     85  CG        23.0250  -33.5880  -36.9160 C.ar  246  PHE246     -0.0203
     86  CD1       23.8530  -33.0590  -37.9050 C.ar  246  PHE246     -0.0042
     87  CD2       23.2420  -34.8910  -36.4900 C.ar  246  PHE246     -0.0042
     88  CE1       24.8750  -33.8210  -38.4640 C.ar  246  PHE246     -0.0003
     89  CE2       24.2640  -35.6610  -37.0450 C.ar  246  PHE246     -0.0003
     90  CZ        25.0790  -35.1270  -38.0330 C.ar  246  PHE246     -0.0000
     91  N         22.2380  -38.4990  -33.9760 N.3   256  PHE256     -0.1241
     92  CA        22.1260  -38.9510  -32.5900 C.3   256  PHE256      0.1605
     93  C         21.0190  -38.2610  -31.8190 C.2   256  PHE256      0.2264
     94  O         20.7670  -37.0790  -32.0170 O.2   256  PHE256     -0.2867
     95  CB        23.4610  -38.7450  -31.8550 C.3   256  PHE256      0.0534
     96  CG        24.4750  -39.8300  -32.1230 C.ar  256  PHE256     -0.0203
     97  CD1       25.8380  -39.5500  -32.0960 C.ar  256  PHE256     -0.0042
     98  CD2       24.0660  -41.1390  -32.4020 C.ar  256  PHE256     -0.0042
     99  CE1       26.7750  -40.5570  -32.3470 C.ar  256  PHE256     -0.0003
    100  CE2       24.9940  -42.1510  -32.6530 C.ar  256  PHE256     -0.0003
    101  CZ        26.3490  -41.8580  -32.6240 C.ar  256  PHE256     -0.0000
    102  N         26.0370  -40.6280  -28.2390 N.3   262  LEU262     -0.1245
    103  CA        26.7070  -39.5270  -28.9080 C.3   262  LEU262      0.1561
    104  C         28.0950  -39.4460  -28.3040 C.2   262  LEU262      0.2260
    105  O         29.0950  -39.5810  -29.0070 O.2   262  LEU262     -0.2867
    106  CB        25.9560  -38.2280  -28.6410 C.3   262  LEU262      0.0270
    107  CG        26.1260  -36.9900  -29.5190 C.3   262  LEU262      0.0019
    108  CD1       25.7530  -35.7760  -28.6610 C.3   262  LEU262      0.0001
    109  CD2       27.5520  -36.8620  -30.0400 C.3   262  LEU262      0.0001
    110  N         30.6080  -42.3260  -29.0090 N.3   265  PHE265     -0.1227
    111  CA        31.1500  -42.1530  -30.3540 C.3   265  PHE265      0.1736
    112  C         32.2280  -41.0700  -30.3190 C.2   265  PHE265      0.2595
    113  O         33.3240  -41.2330  -30.8400 O.2   265  PHE265     -0.2718
    114  CB        30.0340  -41.7150  -31.2870 C.3   265  PHE265      0.0547
    115  CG        30.4760  -41.4960  -32.6960 C.ar  265  PHE265     -0.0202
    116  CD1       30.8360  -42.5770  -33.5000 C.ar  265  PHE265     -0.0042
    117  CD2       30.5160  -40.2120  -33.2310 C.ar  265  PHE265     -0.0042
    118  CE1       31.2250  -42.3840  -34.8150 C.ar  265  PHE265     -0.0003
    119  CE2       30.9060  -40.0080  -34.5510 C.ar  265  PHE265     -0.0003
    120  CZ        31.2610  -41.0960  -35.3440 C.ar  265  PHE265     -0.0000
    121  N         31.8820  -39.9550  -29.6940 N.am  266  LEU266     -0.1980
    122  CA        32.7670  -38.8160  -29.5380 C.3   266  LEU266      0.1596
    123  C         34.1130  -39.1940  -28.9360 C.2   266  LEU266      0.2287
    124  O         35.1400  -38.5810  -29.2420 O.2   266  LEU266     -0.2864
    125  CB        32.1020  -37.7900  -28.6310 C.3   266  LEU266      0.0297
    126  CG        31.9990  -36.3720  -29.1650 C.3   266  LEU266      0.0022
    127  CD1       31.2700  -36.3770  -30.5030 C.3   266  LEU266      0.0001
    128  CD2       31.2760  -35.5170  -28.1390 C.3   266  LEU266      0.0001
@<TRIPOS>BOND
     1    83    82    2
     2    88    90   ar
     3    88    86   ar
     4    82    81    1
     5    90    89   ar
     6    86    85   ar
     7    18    19    1
     8    18    17    1
     9    81    80    1
    10    81    84    1
    11     9    11   ar
    12     9     7   ar
    13    11    10   ar
    14    89    87   ar
    15    85    87   ar
    16    85    84    1
    17    17    16    1
    18     7     6   ar
    19    10     8   ar
    20     1     2    1
    21   120   118   ar
    22   120   119   ar
    23    73    72    2
    24    16    13    1
    25     8     6   ar
    26     6     5    1
    27    36    35    1
    28   118   116   ar
    29    13    12    1
    30    13    14    1
    31    78    79   ar
    32    78    76   ar
    33     2     5    1
    34     2     3    1
    35   119   117   ar
    36    72    71    1
    37    37    35    1
    38    79    77   ar
    39    76    75   ar
    40    91    92    1
    41    35    34    1
    42    68    67    2
    43   116   115   ar
    44     3     4    2
    45    14    15    2
    46    14    20   am
    47   117   115   ar
    48    77    75   ar
    49    75    74    1
    50    71    74    1
    51    71    70    1
    52   115   114    1
    53   100   101   ar
    54   100    98   ar
    55    67    70   am
    56    67    66    1
    57   101    99   ar
    58    92    95    1
    59    92    93    1
    60    30    31    1
    61    34    31    1
    62    20    21    1
    63    98    96   ar
    64    99    97   ar
    65    31    32    1
    66    96    97   ar
    67    96    95    1
    68    94    93    2
    69    66    65    1
    70    66    69    1
    71   114   111    1
    72    21    22    1
    73    21    24    1
    74    32    33    2
    75    32    38   am
    76   113   112    2
    77    22    23    2
    78   127   126    1
    79   111   112    1
    80   111   110    1
    81   112   121   am
    82    24    25    1
    83   109   107    1
    84    38    39    1
    85   121   122    1
    86   122   123    1
    87   122   125    1
    88   107   108    1
    89   107   106    1
    90   124   123    2
    91   126   125    1
    92   126   128    1
    93    60    59    2
    94   105   104    2
    95   103   106    1
    96   103   104    1
    97   103   102    1
    98    25    26   ar
    99    25    27   ar
   100    26    28   ar
   101    39    40    1
   102    39    42    1
   103    40    41    2
   104    59    58    1
   105    27    29   ar
   106    42    44    1
   107    42    43    1
   108    28    29   ar
   109    58    57    1
   110    58    61    1
   111    62    64    1
   112    62    61    1
   113    53    51   ar
   114    53    55   ar
   115    61    63    1
   116    51    50   ar
   117    56    55    1
   118    55    54   ar
   119    50    49    1
   120    50    52   ar
   121    49    46    1
   122    47    46    1
   123    47    48    2
   124    54    52   ar
   125    46    45    1
