@<TRIPOS>MOLECULE
tmp/3kziC14.pdb
 113 112 0 0 0
SMALL
GASTEIGER

@<TRIPOS>ATOM
      1  N         67.1900  -63.6520  -15.4040 N.3   188  LEU188     -0.1231
      2  CA        66.1640  -62.7300  -14.9260 C.3   188  LEU188      0.1693
      3  C         66.7390  -61.4750  -14.2980 C.2   188  LEU188      0.2592
      4  O         66.0480  -60.4680  -14.1930 O.2   188  LEU188     -0.2718
      5  CB        65.2410  -63.4020  -13.9100 C.3   188  LEU188      0.0284
      6  CG        64.2230  -64.4320  -14.3950 C.3   188  LEU188      0.0019
      7  CD1       64.9470  -65.5740  -15.0600 C.3   188  LEU188      0.0001
      8  CD2       63.4000  -64.9420  -13.2230 C.3   188  LEU188      0.0001
      9  N         67.9920  -61.5280  -13.8670 N.am  189  LEU189     -0.1966
     10  CA        68.6120  -60.3680  -13.2360 C.3   189  LEU189      0.1728
     11  C         69.4210  -59.5510  -14.2320 C.2   189  LEU189      0.2616
     12  O         70.1430  -58.6160  -13.8520 O.2   189  LEU189     -0.2715
     13  CB        69.5280  -60.8100  -12.0960 C.3   189  LEU189      0.0311
     14  CG        68.9030  -61.2570  -10.7730 C.3   189  LEU189      0.0022
     15  CD1       67.8760  -62.3620  -10.9950 C.3   189  LEU189      0.0001
     16  CD2       70.0170  -61.7390   -9.8650 C.3   189  LEU189      0.0001
     17  N         69.2830  -59.9110  -15.5080 N.am  190  LYS190     -0.1963
     18  CA        69.9890  -59.2600  -16.6120 C.3   190  LYS190      0.1728
     19  C         69.2530  -58.0170  -17.0910 C.2   190  LYS190      0.2617
     20  O         68.0290  -58.0010  -17.1410 O.2   190  LYS190     -0.2715
     21  CB        70.1270  -60.2470  -17.7670 C.3   190  LYS190      0.0311
     22  CG        71.4730  -60.2390  -18.4440 C.3   190  LYS190      0.0038
     23  CD        71.6500  -61.4940  -19.2910 C.3   190  LYS190      0.0206
     24  CE        73.0380  -61.5630  -19.8970 C.3   190  LYS190      0.1093
     25  NZ        73.2280  -62.8400  -20.6290 N.3   190  LYS190     -0.1314
     26  N         69.9980  -56.9750  -17.4380 N.am  191  SER191     -0.1936
     27  CA        69.3900  -55.7410  -17.9190 C.3   191  SER191      0.2040
     28  C         68.6500  -56.0200  -19.2140 C.2   191  SER191      0.2485
     29  O         68.9660  -56.9780  -19.9250 O.2   191  SER191     -0.2729
     30  CB        70.4640  -54.6870  -18.1800 C.3   191  SER191      0.2129
     31  OG        69.8820  -53.4910  -18.6600 O.3   191  SER191     -0.2179
     32  N         67.6280  -55.2170  -19.5220 N.am  192  PRO192     -0.2715
     33  CA        66.8930  -55.4390  -20.7650 C.3   192  PRO192      0.1536
     34  C         67.3940  -54.4950  -21.8510 C.2   192  PRO192      0.2598
     35  O         66.8180  -54.4110  -22.9300 O.2   192  PRO192     -0.2715
     36  CB        65.4600  -55.1350  -20.3650 C.3   192  PRO192      0.0310
     37  CG        65.6360  -53.9970  -19.4360 C.3   192  PRO192      0.0237
     38  CD        66.8020  -54.4600  -18.5700 C.3   192  PRO192      0.0939
     39  N         68.4710  -53.7780  -21.5600 N.am  193  PHE193     -0.1974
     40  CA        69.0260  -52.8360  -22.5170 C.3   193  PHE193      0.1639
     41  C         70.1020  -53.4190  -23.4350 C.2   193  PHE193      0.2290
     42  O         70.2950  -54.6370  -23.4640 O.2   193  PHE193     -0.2864
     43  CB        69.5270  -51.6040  -21.7670 C.3   193  PHE193      0.0560
     44  CG        68.4180  -50.7530  -21.2290 C.ar  193  PHE193     -0.0200
     45  CD1       67.7240  -49.8930  -22.0690 C.ar  193  PHE193     -0.0042
     46  CD2       68.0230  -50.8490  -19.9070 C.ar  193  PHE193     -0.0042
     47  CE1       66.6470  -49.1400  -21.5960 C.ar  193  PHE193     -0.0003
     48  CE2       66.9480  -50.1000  -19.4220 C.ar  193  PHE193     -0.0003
     49  CZ        66.2610  -49.2470  -20.2690 C.ar  193  PHE193     -0.0000
     50  N         73.5060  -56.5400  -22.3580 N.3   196  GLU196     -0.1245
     51  CA        72.8230  -57.4160  -21.4170 C.3   196  GLU196      0.1567
     52  C         71.3900  -57.3840  -21.9420 C.2   196  GLU196      0.2260
     53  O         70.7380  -56.3530  -21.8480 O.2   196  GLU196     -0.2867
     54  CB        72.8690  -56.8100  -20.0070 C.3   196  GLU196      0.0388
     55  CG        74.2090  -56.2000  -19.6090 C.3   196  GLU196      0.1160
     56  CD        75.3180  -57.2310  -19.4480 C.2   196  GLU196      0.3649
     57  OE1       75.1700  -58.1330  -18.5940 O.co2 196  GLU196     -0.2457
     58  OE2       76.3410  -57.1410  -20.1700 O.co2 196  GLU196     -0.2457
     59  N         68.6460  -59.5570  -21.0610 N.3   198  TRP198     -0.1241
     60  CA        67.6300  -60.2480  -20.2520 C.3   198  TRP198      0.1605
     61  C         67.3060  -61.6020  -20.8980 C.2   198  TRP198      0.2264
     62  O         68.1610  -62.1910  -21.5520 O.2   198  TRP198     -0.2867
     63  CB        66.3640  -59.3930  -20.1300 C.3   198  TRP198      0.0550
     64  CG        65.4240  -59.8200  -19.0400 C.ar  198  TRP198      0.0003
     65  CD1       65.7400  -60.0890  -17.7400 C.ar  198  TRP198      0.0946
     66  CD2       64.0020  -59.9750  -19.1420 C.ar  198  TRP198      0.0152
     67  NE1       64.6030  -60.3980  -17.0220 N.ar  198  TRP198     -0.2442
     68  CE2       63.5250  -60.3340  -17.8620 C.ar  198  TRP198      0.0810
     69  CE3       63.0860  -59.8430  -20.1900 C.ar  198  TRP198      0.0012
     70  CZ2       62.1700  -60.5620  -17.6060 C.ar  198  TRP198      0.0191
     71  CZ3       61.7400  -60.0700  -19.9320 C.ar  198  TRP198      0.0001
     72  CH2       61.2960  -60.4250  -18.6510 C.ar  198  TRP198      0.0015
     73  N         49.5600  -59.8410  -22.3890 N.3   255  SER255     -0.1202
     74  CA        50.0990  -58.6210  -22.9640 C.3   255  SER255      0.2020
     75  C         51.6090  -58.6560  -22.7930 C.2   255  SER255      0.2618
     76  O         52.3570  -58.6380  -23.7700 O.2   255  SER255     -0.2717
     77  CB        49.5170  -57.4070  -22.2360 C.3   255  SER255      0.2103
     78  OG        50.0610  -56.1910  -22.7270 O.3   255  SER255     -0.2182
     79  N         52.0490  -58.7170  -21.5420 N.am  256  MET256     -0.1979
     80  CA        53.4680  -58.7670  -21.2160 C.3   256  MET256      0.1605
     81  C         54.2050  -59.8870  -21.9500 C.2   256  MET256      0.2287
     82  O         55.3260  -59.7060  -22.4120 O.2   256  MET256     -0.2864
     83  CB        53.6420  -58.9500  -19.7130 C.3   256  MET256      0.0413
     84  CG        55.0680  -59.2080  -19.2850 C.3   256  MET256      0.0598
     85  SD        55.1760  -59.3800  -17.5040 S.3   256  MET256     -0.1393
     86  CE        54.5960  -57.7310  -16.9910 C.3   256  MET256      0.0692
     87  N         54.7540  -58.8170  -25.5920 N.3   259  PHE259     -0.1227
     88  CA        55.8410  -57.9040  -25.8530 C.3   259  PHE259      0.1736
     89  C         57.1430  -58.6960  -25.7840 C.2   259  PHE259      0.2595
     90  O         58.0270  -58.5470  -26.6230 O.2   259  PHE259     -0.2718
     91  CB        55.8650  -56.7740  -24.8190 C.3   259  PHE259      0.0547
     92  CG        54.7380  -55.7720  -24.9680 C.ar  259  PHE259     -0.0202
     93  CD1       54.5040  -55.1220  -26.1900 C.ar  259  PHE259     -0.0042
     94  CD2       53.9340  -55.4450  -23.8830 C.ar  259  PHE259     -0.0042
     95  CE1       53.4840  -54.1640  -26.3200 C.ar  259  PHE259     -0.0003
     96  CE2       52.9200  -54.4960  -24.0040 C.ar  259  PHE259     -0.0003
     97  CZ        52.6950  -53.8530  -25.2300 C.ar  259  PHE259     -0.0000
     98  N         57.2760  -59.5570  -24.7920 N.am  260  ILE260     -0.1980
     99  CA        58.5040  -60.3230  -24.6870 C.3   260  ILE260      0.1595
    100  C         58.7060  -61.1860  -25.9250 C.2   260  ILE260      0.2287
    101  O         59.8330  -61.3750  -26.3750 O.2   260  ILE260     -0.2864
    102  CB        58.5130  -61.2110  -23.4200 C.3   260  ILE260      0.0276
    103  CG1       58.4850  -60.3330  -22.1680 C.3   260  ILE260      0.0022
    104  CG2       59.7640  -62.0830  -23.3930 C.3   260  ILE260      0.0022
    105  CD1       58.4490  -61.1280  -20.8690 C.3   260  ILE260      0.0001
    106  N         46.9150  -55.0050  -23.5020 N.3   413  LEU413     -0.1245
    107  CA        47.2300  -54.1630  -22.3550 C.3   413  LEU413      0.1561
    108  C         46.0780  -53.1900  -22.1440 C.2   413  LEU413      0.2260
    109  O         45.8560  -52.7180  -21.0360 O.2   413  LEU413     -0.2867
    110  CB        48.5190  -53.3820  -22.5800 C.3   413  LEU413      0.0270
    111  CG        48.8210  -52.3350  -21.5060 C.3   413  LEU413      0.0019
    112  CD1       49.2230  -53.0260  -20.2200 C.3   413  LEU413      0.0001
    113  CD2       49.9290  -51.4300  -21.9810 C.3   413  LEU413      0.0001
@<TRIPOS>BOND
     1    90    89    2
     2   101   100    2
     3    95    93   ar
     4    95    97   ar
     5    93    92   ar
     6   100    99    1
     7    88    89    1
     8    88    87    1
     9    88    91    1
    10    89    98   am
    11    97    96   ar
    12    92    91    1
    13    92    94   ar
    14    98    99    1
    15    99   102    1
    16    96    94   ar
    17    76    75    2
    18   106   107    1
    19    42    41    2
    20    41    40    1
    21   102   104    1
    22   102   103    1
    23    74    75    1
    24    74    73    1
    25    74    77    1
    26    35    34    2
    27    75    79   am
    28    78    77    1
    29   110   107    1
    30   110   111    1
    31    40    43    1
    32    40    39    1
    33    82    81    2
    34    50    51    1
    35   107   108    1
    36   103   105    1
    37   108   109    2
    38    45    47   ar
    39    45    44   ar
    40   113   111    1
    41    81    80    1
    42    52    53    2
    43    52    51    1
    44    34    39   am
    45    34    33    1
    46    43    44    1
    47    47    49   ar
    48    62    61    2
    49    79    80    1
    50   111   112    1
    51    51    54    1
    52    44    46   ar
    53    80    83    1
    54    59    60    1
    55    61    60    1
    56    33    36    1
    57    33    32    1
    58    25    24    1
    59    36    37    1
    60    49    48   ar
    61    60    63    1
    62    69    71   ar
    63    69    66   ar
    64    58    56   ar
    65    63    64    1
    66    54    55    1
    67    71    72   ar
    68    29    28    2
    69    46    48   ar
    70    24    23    1
    71    83    84    1
    72    55    56    1
    73    32    28   am
    74    32    38    1
    75    56    57   ar
    76    37    38    1
    77    23    22    1
    78    84    85    1
    79    28    27    1
    80    66    64   ar
    81    66    68   ar
    82    64    65   ar
    83    31    30    1
    84    72    70   ar
    85    22    21    1
    86    30    27    1
    87    27    26    1
    88    68    70   ar
    89    68    67   ar
    90    21    18    1
    91    65    67   ar
    92    85    86    1
    93    26    19   am
    94    20    19    2
    95    19    18    1
    96    18    17    1
    97    17    11   am
    98     1     2    1
    99     7     6    1
   100     2     3    1
   101     2     5    1
   102     6     5    1
   103     6     8    1
   104     3     4    2
   105     3     9   am
   106    11    12    2
   107    11    10    1
   108     9    10    1
   109    10    13    1
   110    13    14    1
   111    15    14    1
   112    14    16    1
