@<TRIPOS>MOLECULE
tmp/3kzkA00.pdb
 147 139 0 0 0
SMALL
GASTEIGER

@<TRIPOS>ATOM
      1  N        105.6720   42.1890   92.3770 N.3    49  ARG49      -0.1231
      2  CA       105.1180   43.5050   92.6550 C.3    49  ARG49       0.1694
      3  C        103.6590   43.6020   92.2510 C.2    49  ARG49       0.2592
      4  O        102.8270   44.0520   93.0260 O.2    49  ARG49      -0.2718
      5  CB       105.8940   44.5890   91.9050 C.3    49  ARG49       0.0321
      6  CG       107.1500   45.1080   92.5960 C.3    49  ARG49       0.0489
      7  CD       108.0290   45.8120   91.5670 C.3    49  ARG49       0.2205
      8  NE       108.6120   44.8170   90.6710 N.pl3  49  ARG49      -0.0865
      9  CZ       109.5950   43.9980   91.0250 C.cat  49  ARG49       0.5346
     10  NH1      110.1070   44.0750   92.2450 N.pl3  49  ARG49       0.1354
     11  NH2      110.0350   43.0770   90.1800 N.pl3  49  ARG49       0.1354
     12  N        103.3590   43.1820   91.0270 N.am   50  THR50      -0.1953
     13  CA       101.9990   43.2740   90.5240 C.3    50  THR50       0.1897
     14  C        100.9940   42.4820   91.3480 C.2    50  THR50       0.2313
     15  O         99.9690   43.0230   91.7370 O.2    50  THR50      -0.2863
     16  CB       101.9240   42.8580   89.0450 C.3    50  THR50       0.1794
     17  OG1      102.8860   43.6170   88.2930 O.3    50  THR50      -0.2208
     18  CG2      100.5290   43.1580   88.4810 C.3    50  THR50       0.0378
     19  N         97.4280   39.7610   82.9880 N.3   110  ARG110     -0.1245
     20  CA        98.8400   39.9100   82.6650 C.3   110  ARG110      0.1563
     21  C         99.1770   38.8000   81.6890 C.2   110  ARG110      0.2260
     22  O         99.0370   37.6160   82.0120 O.2   110  ARG110     -0.2867
     23  CB        99.7070   39.7520   83.9150 C.3   110  ARG110      0.0307
     24  CG       101.1890   39.7650   83.6220 C.3   110  ARG110      0.0489
     25  CD       101.8340   40.9740   84.2530 C.3   110  ARG110      0.2205
     26  NE       103.1440   40.6450   84.7750 N.pl3 110  ARG110     -0.0865
     27  CZ       103.9730   41.5200   85.3240 C.cat 110  ARG110      0.5346
     28  NH1      103.6360   42.8020   85.4340 N.pl3 110  ARG110      0.1354
     29  NH2      105.1470   41.1010   85.7550 N.pl3 110  ARG110      0.1354
     30  N        102.2420   38.2530   78.6850 N.3   112  PHE112     -0.1241
     31  CA       103.3500   38.7030   77.8520 C.3   112  PHE112      0.1605
     32  C        103.2650   38.1070   76.4560 C.2   112  PHE112      0.2264
     33  O        102.5890   37.1020   76.2360 O.2   112  PHE112     -0.2867
     34  CB       104.6870   38.2820   78.4620 C.3   112  PHE112      0.0534
     35  CG       104.9700   38.8850   79.8070 C.ar  112  PHE112     -0.0203
     36  CD1      104.1840   39.9220   80.3140 C.ar  112  PHE112     -0.0042
     37  CD2      106.0460   38.4300   80.5640 C.ar  112  PHE112     -0.0042
     38  CE1      104.4720   40.4940   81.5550 C.ar  112  PHE112     -0.0003
     39  CE2      106.3390   38.9990   81.8070 C.ar  112  PHE112     -0.0003
     40  CZ       105.5510   40.0310   82.3000 C.ar  112  PHE112     -0.0000
     41  N         99.7960   44.3150   82.3550 N.3   142  GLU142     -0.1245
     42  CA       100.9220   44.2270   81.4280 C.3   142  GLU142      0.1567
     43  C        100.8010   43.1440   80.3620 C.2   142  GLU142      0.2260
     44  O        100.7800   41.9490   80.6620 O.2   142  GLU142     -0.2867
     45  CB       102.2840   44.0600   82.1280 C.3   142  GLU142      0.0388
     46  CG       103.4220   44.1740   81.1010 C.3   142  GLU142      0.1160
     47  CD       104.8260   43.9560   81.6450 C.2   142  GLU142      0.3649
     48  OE1      105.7810   44.1330   80.8490 O.co2 142  GLU142     -0.2457
     49  OE2      104.9920   43.6130   82.8390 O.co2 142  GLU142     -0.2457
     50  N        101.9930   48.7100   79.4290 N.3   146  HIS146     -0.1241
     51  CA       101.9490   48.5540   80.8870 C.3   146  HIS146      0.1621
     52  C        101.4280   49.8740   81.4530 C.2   146  HIS146      0.2264
     53  O        102.1690   50.6250   82.0910 O.2   146  HIS146     -0.2867
     54  CB       103.3710   48.2740   81.4020 C.3   146  HIS146      0.0745
     55  CG       103.4280   47.5840   82.7340 C.ar  146  HIS146      0.0817
     56  ND1      102.3730   47.5760   83.6210 N.ar  146  HIS146     -0.2268
     57  CD2      104.4360   46.9150   83.3440 C.ar  146  HIS146      0.1154
     58  CE1      102.7290   46.9350   84.7210 C.ar  146  HIS146      0.1986
     59  NE2      103.9770   46.5240   84.5800 N.ar  146  HIS146     -0.2212
     60  N        101.9530   50.8800   85.0920 N.3   149  GLN149     -0.1245
     61  CA       103.3150   51.3530   85.3250 C.3   149  GLN149      0.1566
     62  C        103.4260   52.8110   84.8900 C.2   149  GLN149      0.2260
     63  O        104.1200   53.5990   85.5250 O.2   149  GLN149     -0.2867
     64  CB       104.3240   50.5050   84.5460 C.3   149  GLN149      0.0367
     65  CG       105.7770   50.6700   85.0000 C.3   149  GLN149      0.0905
     66  CD       106.0250   50.0740   86.3780 C.2   149  GLN149      0.2608
     67  OE1      105.6340   48.9360   86.6540 O.2   149  GLN149     -0.2717
     68  NE2      106.6900   50.8300   87.2430 N.am  149  GLN149     -0.0878
     69  N        120.6370   43.5070   78.4660 N.3   178  HIS178     -0.1241
     70  CA       120.0810   42.3630   79.1790 C.3   178  HIS178      0.1621
     71  C        120.4800   41.1440   78.3500 C.2   178  HIS178      0.2264
     72  O        120.3250   41.1430   77.1290 O.2   178  HIS178     -0.2867
     73  CB       118.5530   42.4600   79.2670 C.3   178  HIS178      0.0745
     74  CG       117.9210   41.3620   80.0680 C.ar  178  HIS178      0.0817
     75  ND1      118.0150   40.0320   79.7160 N.ar  178  HIS178     -0.2268
     76  CD2      117.1760   41.3980   81.1990 C.ar  178  HIS178      0.1154
     77  CE1      117.3550   39.2970   80.5940 C.ar  178  HIS178      0.1986
     78  NE2      116.8360   40.1020   81.5040 N.ar  178  HIS178     -0.2212
     79  N        113.7510   41.2380   75.6040 N.3   182  LEU182     -0.1231
     80  CA       112.5370   41.3650   76.3930 C.3   182  LEU182      0.1693
     81  C        111.3820   42.0570   75.6850 C.2   182  LEU182      0.2592
     82  O        111.5130   42.5730   74.5760 O.2   182  LEU182     -0.2718
     83  CB       112.8390   42.1240   77.6900 C.3   182  LEU182      0.0284
     84  CG       113.9650   41.5760   78.5670 C.3   182  LEU182      0.0019
     85  CD1      114.1630   42.4860   79.7690 C.3   182  LEU182      0.0001
     86  CD2      113.6290   40.1610   79.0150 C.3   182  LEU182      0.0001
     87  N        110.2470   42.0480   76.3690 N.am  183  ASN183     -0.1974
     88  CA       109.0090   42.6670   75.9220 C.3   183  ASN183      0.1688
     89  C        109.2600   44.1740   75.7760 C.2   183  ASN183      0.2292
     90  O        110.0670   44.7400   76.5210 O.2   183  ASN183     -0.2864
     91  CB       107.9530   42.3990   76.9960 C.3   183  ASN183      0.1181
     92  CG       106.5700   42.8400   76.5970 C.2   183  ASN183      0.2629
     93  OD1      106.3500   43.3470   75.4990 O.2   183  ASN183     -0.2716
     94  ND2      105.6150   42.6380   77.4980 N.am  183  ASN183     -0.0877
     95  N        106.7820   46.2850   76.0240 N.3   185  ALA185     -0.1231
     96  CA       105.6800   46.8480   76.8000 C.3   185  ALA185      0.1694
     97  C        105.9920   48.0990   77.6280 C.2   185  ALA185      0.2591
     98  O        105.3700   49.1480   77.4280 O.2   185  ALA185     -0.2718
     99  CB       105.0870   45.7650   77.7010 C.3   185  ALA185      0.0304
    100  N        106.9390   47.9960   78.5600 N.am  186  VAL186     -0.1980
    101  CA       107.2860   49.1380   79.4060 C.3   186  VAL186      0.1595
    102  C        107.8170   50.3130   78.5910 C.2   186  VAL186      0.2287
    103  O        107.5240   51.4700   78.8940 O.2   186  VAL186     -0.2864
    104  CB       108.3290   48.7500   80.4820 C.3   186  VAL186      0.0276
    105  CG1      108.7540   49.9830   81.2730 C.3   186  VAL186      0.0022
    106  CG2      107.7280   47.7140   81.4240 C.3   186  VAL186      0.0022
    107  N        115.1170   50.7770   80.0610 N.3   250  LYS250     -0.1245
    108  CA       114.3770   49.5480   79.8110 C.3   250  LYS250      0.1561
    109  C        115.0190   48.8200   78.6430 C.2   250  LYS250      0.2260
    110  O        115.4150   49.4420   77.6530 O.2   250  LYS250     -0.2867
    111  CB       112.9100   49.8370   79.4850 C.3   250  LYS250      0.0271
    112  CG       112.0580   48.5730   79.3370 C.3   250  LYS250      0.0035
    113  CD       111.9900   47.7970   80.6510 C.3   250  LYS250      0.0206
    114  CE       111.1460   46.5430   80.5050 C.3   250  LYS250      0.1093
    115  NZ       112.0570   45.4730   80.0440 N.3   250  LYS250     -0.1314
    116  N        111.4890   50.1260   85.8260 N.3   292  CYS292     -0.1221
    117  CA       110.2440   49.4880   86.2510 C.3   292  CYS292      0.1808
    118  C        110.4470   48.2940   87.1850 C.2   292  CYS292      0.2601
    119  O        109.5350   47.9160   87.9110 O.2   292  CYS292     -0.2717
    120  CB       109.4640   49.0170   85.0250 C.3   292  CYS292      0.0970
    121  SG       110.2830   47.6670   84.1140 S.3   292  CYS292     -0.0800
    122  N        111.6450   47.7130   87.1550 N.am  293  LEU293     -0.1966
    123  CA       111.9800   46.5400   87.9600 C.3   293  LEU293      0.1713
    124  C        111.1940   45.3490   87.4190 C.2   293  LEU293      0.2458
    125  O        110.1180   45.5190   86.8400 O.2   293  LEU293     -0.2730
    126  CB       111.6410   46.7720   89.4410 C.3   293  LEU293      0.0310
    127  CG       112.1470   48.0760   90.0770 C.3   293  LEU293      0.0022
    128  CD1      111.8350   48.0790   91.5780 C.3   293  LEU293      0.0001
    129  CD2      113.6440   48.2150   89.8600 C.3   293  LEU293      0.0001
    130  N        111.7210   44.1240   87.5890 N.am  294  PRO294     -0.2727
    131  CA       112.9890   43.7770   88.2460 C.3   294  PRO294      0.1402
    132  C        114.2130   44.2240   87.4480 C.2   294  PRO294      0.2269
    133  O        114.2110   44.1730   86.2210 O.2   294  PRO294     -0.2865
    134  CB       112.9040   42.2590   88.3680 C.3   294  PRO294      0.0296
    135  CG       112.1640   41.8780   87.1130 C.3   294  PRO294      0.0237
    136  CD       111.0490   42.9160   87.0740 C.3   294  PRO294      0.0939
    137  N        102.7940   51.9090   92.3900 N.3   319  ARG319     -0.1245
    138  CA       101.9650   50.9300   91.6890 C.3   319  ARG319      0.1563
    139  C        100.7230   50.6330   92.5450 C.2   319  ARG319      0.2260
    140  O         99.6120   50.5040   92.0300 O.2   319  ARG319     -0.2867
    141  CB       102.7490   49.6310   91.4390 C.3   319  ARG319      0.0307
    142  CG       103.7810   49.7180   90.3080 C.3   319  ARG319      0.0489
    143  CD       103.1000   49.8080   88.9450 C.3   319  ARG319      0.2205
    144  NE       102.2820   48.6230   88.7050 N.pl3 319  ARG319     -0.0865
    145  CZ       102.7600   47.4350   88.3450 C.cat 319  ARG319      0.5346
    146  NH1      104.0640   47.2540   88.1560 N.pl3 319  ARG319      0.1354
    147  NH2      101.9340   46.4070   88.2210 N.pl3 319  ARG319      0.1354
@<TRIPOS>BOND
     1    82    81    2
     2    93    92    2
     3    79    80    1
     4    81    87   am
     5    81    80    1
     6    89    88    1
     7    89    90    2
     8    88    87    1
     9    88    91    1
    10    95    96    1
    11    33    32    2
    12    80    83    1
    13    32    31    1
    14    92    91    1
    15    92    94   am
    16    96    97    1
    17    96    99    1
    18    72    71    2
    19    98    97    2
    20    97   100   am
    21   110   109    2
    22    83    84    1
    23    31    34    1
    24    31    30    1
    25    71    70    1
    26    34    35    1
    27    69    70    1
    28   100   101    1
    29    84    86    1
    30    84    85    1
    31   102   103    2
    32   102   101    1
    33   109   108    1
    34    70    73    1
    35    73    74    1
    36   112   111    1
    37   112   113    1
    38   101   104    1
    39    50    51    1
    40   111   108    1
    41    75    74   ar
    42    75    77   ar
    43    35    36   ar
    44    35    37   ar
    45   108   107    1
    46   115   114    1
    47    74    76   ar
    48    36    38   ar
    49    43    44    2
    50    43    42    1
    51   104   105    1
    52   104   106    1
    53   114   113    1
    54    37    39   ar
    55    77    78   ar
    56    48    47   ar
    57    51    54    1
    58    51    52    1
    59    46    47    1
    60    46    45    1
    61    76    78   ar
    62    54    55    1
    63    42    45    1
    64    42    41    1
    65    52    53    2
    66    38    40   ar
    67    47    49   ar
    68    21    22    2
    69    21    20    1
    70    39    40   ar
    71    20    19    1
    72    20    23    1
    73    55    57   ar
    74    55    56   ar
    75    57    59   ar
    76    56    58   ar
    77    24    23    1
    78    24    25    1
    79   121   120    1
    80    25    26    1
    81    64    65    1
    82    64    61    1
    83    59    58   ar
    84    26    27    2
    85    62    61    1
    86    62    63    2
    87    65    66    1
    88   120   117    1
    89    60    61    1
    90    27    28    1
    91    27    29    1
    92   116   117    1
    93   133   132    2
    94   117   118    1
    95    66    67    2
    96    66    68   am
    97   125   124    2
    98   136   135    1
    99   136   130    1
   100   135   134    1
   101   122   118   am
   102   122   123    1
   103   118   119    2
   104   124   130   am
   105   124   123    1
   106   132   131    1
   107   130   131    1
   108   123   126    1
   109   146   145    1
   110   147   145    1
   111   131   134    1
   112    17    16    1
   113   145   144    2
   114    18    16    1
   115   144   143    1
   116   143   142    1
   117    16    13    1
   118   126   127    1
   119   129   127    1
   120   127   128    1
   121    11     9    1
   122   142   141    1
   123    13    12    1
   124    13    14    1
   125     8     9    2
   126     8     7    1
   127     9    10    1
   128    12     3   am
   129    14    15    2
   130   141   138    1
   131     7     6    1
   132   138   137    1
   133   138   139    1
   134     5     6    1
   135     5     2    1
   136   140   139    2
   137     3     2    1
   138     3     4    2
   139     1     2    1
