@<TRIPOS>MOLECULE
tmp/3kzoA00.pdb
 151 142 0 0 0
SMALL
GASTEIGER

@<TRIPOS>ATOM
      1  N        106.0260   42.6500   92.5500 N.3    49  ARG49      -0.1245
      2  CA       105.4150   43.9330   92.8690 C.3    49  ARG49       0.1563
      3  C        103.9470   43.9850   92.4710 C.2    49  ARG49       0.2260
      4  O        103.1110   44.4010   93.2560 O.2    49  ARG49      -0.2867
      5  CB       106.1550   45.0760   92.1650 C.3    49  ARG49       0.0307
      6  CG       107.4660   45.5090   92.8160 C.3    49  ARG49       0.0489
      7  CD       108.4280   45.9970   91.7380 C.3    49  ARG49       0.2205
      8  NE       108.9350   44.8460   91.0020 N.pl3  49  ARG49      -0.0865
      9  CZ       109.9420   44.0860   91.4210 C.cat  49  ARG49       0.5346
     10  NH1      110.5670   44.3750   92.5560 N.pl3  49  ARG49       0.1354
     11  NH2      110.2750   42.9970   90.7470 N.pl3  49  ARG49       0.1354
     12  N         97.8220   39.8410   83.3240 N.3   110  ARG110     -0.1245
     13  CA        99.2170   40.0210   82.9600 C.3   110  ARG110      0.1563
     14  C         99.5410   38.9110   81.9830 C.2   110  ARG110      0.2260
     15  O         99.3800   37.7350   82.3070 O.2   110  ARG110     -0.2867
     16  CB       100.1180   39.8660   84.1790 C.3   110  ARG110      0.0307
     17  CG       101.5760   39.8210   83.8280 C.3   110  ARG110      0.0489
     18  CD       102.2520   41.0710   84.3050 C.3   110  ARG110      0.2205
     19  NE       103.4800   40.7290   84.9840 N.pl3 110  ARG110     -0.0865
     20  CZ       104.2540   41.5880   85.6280 C.cat 110  ARG110      0.5346
     21  NH1      103.9380   42.8760   85.7000 N.pl3 110  ARG110      0.1354
     22  NH2      105.3570   41.1420   86.1920 N.pl3 110  ARG110      0.1354
     23  N        102.6040   38.3560   78.9790 N.3   112  PHE112     -0.1241
     24  CA       103.7010   38.8150   78.1360 C.3   112  PHE112      0.1605
     25  C        103.6000   38.2210   76.7410 C.2   112  PHE112      0.2264
     26  O        102.9450   37.2020   76.5330 O.2   112  PHE112     -0.2867
     27  CB       105.0490   38.3880   78.7110 C.3   112  PHE112      0.0534
     28  CG       105.3910   39.0080   80.0350 C.ar  112  PHE112     -0.0203
     29  CD1      104.6080   40.0210   80.5870 C.ar  112  PHE112     -0.0042
     30  CD2      106.5260   38.5890   80.7210 C.ar  112  PHE112     -0.0042
     31  CE1      104.9570   40.6070   81.8030 C.ar  112  PHE112     -0.0003
     32  CE2      106.8820   39.1710   81.9400 C.ar  112  PHE112     -0.0003
     33  CZ       106.0970   40.1800   82.4780 C.ar  112  PHE112     -0.0000
     34  N        100.1270   44.4170   82.6990 N.3   142  GLU142     -0.1245
     35  CA       101.2480   44.3290   81.7610 C.3   142  GLU142      0.1567
     36  C        101.1230   43.2520   80.6810 C.2   142  GLU142      0.2260
     37  O        101.1070   42.0520   80.9680 O.2   142  GLU142     -0.2867
     38  CB       102.6140   44.1510   82.4450 C.3   142  GLU142      0.0388
     39  CG       103.7340   44.3230   81.4060 C.3   142  GLU142      0.1160
     40  CD       105.1490   44.0360   81.8920 C.2   142  GLU142      0.3649
     41  OE1      106.0810   44.1820   81.0620 O.co2 142  GLU142     -0.2457
     42  OE2      105.3400   43.6730   83.0740 O.co2 142  GLU142     -0.2457
     43  N        102.3590   48.8000   79.8350 N.3   146  HIS146     -0.1241
     44  CA       102.3000   48.6250   81.2900 C.3   146  HIS146      0.1621
     45  C        101.7950   49.9510   81.8700 C.2   146  HIS146      0.2264
     46  O        102.5420   50.6830   82.5240 O.2   146  HIS146     -0.2867
     47  CB       103.7140   48.3120   81.8100 C.3   146  HIS146      0.0745
     48  CG       103.7520   47.6230   83.1410 C.ar  146  HIS146      0.0817
     49  ND1      102.6600   47.5420   83.9770 N.ar  146  HIS146     -0.2268
     50  CD2      104.7720   47.0120   83.7930 C.ar  146  HIS146      0.1154
     51  CE1      103.0040   46.9110   85.0880 C.ar  146  HIS146      0.1986
     52  NE2      104.2800   46.5790   85.0020 N.ar  146  HIS146     -0.2212
     53  N        102.2800   51.0020   85.5130 N.3   149  GLN149     -0.1245
     54  CA       103.6490   51.4470   85.7490 C.3   149  GLN149      0.1566
     55  C        103.7830   52.9080   85.3010 C.2   149  GLN149      0.2260
     56  O        104.4840   53.6980   85.9320 O.2   149  GLN149     -0.2867
     57  CB       104.6340   50.5710   84.9710 C.3   149  GLN149      0.0367
     58  CG       106.0920   50.7540   85.3830 C.3   149  GLN149      0.0905
     59  CD       106.3690   50.1920   86.7620 C.2   149  GLN149      0.2608
     60  OE1      106.0490   49.0330   87.0430 O.2   149  GLN149     -0.2717
     61  NE2      106.9710   51.0020   87.6280 N.am  149  GLN149     -0.0878
     62  N        120.9660   43.5040   78.8370 N.3   178  HIS178     -0.1241
     63  CA       120.3870   42.3490   79.5250 C.3   178  HIS178      0.1621
     64  C        120.8190   41.1470   78.6850 C.2   178  HIS178      0.2264
     65  O        120.7920   41.2050   77.4550 O.2   178  HIS178     -0.2867
     66  CB       118.8540   42.4380   79.5690 C.3   178  HIS178      0.0745
     67  CG       118.2020   41.3660   80.3940 C.ar  178  HIS178      0.0817
     68  ND1      118.2850   40.0260   80.0790 N.ar  178  HIS178     -0.2268
     69  CD2      117.4400   41.4400   81.5130 C.ar  178  HIS178      0.1154
     70  CE1      117.6010   39.3220   80.9650 C.ar  178  HIS178      0.1986
     71  NE2      117.0770   40.1560   81.8460 N.ar  178  HIS178     -0.2212
     72  N        114.1280   41.2360   75.9460 N.3   182  LEU182     -0.1231
     73  CA       112.9110   41.3970   76.7280 C.3   182  LEU182      0.1693
     74  C        111.7640   42.0990   76.0110 C.2   182  LEU182      0.2592
     75  O        111.8950   42.5930   74.8910 O.2   182  LEU182     -0.2718
     76  CB       113.2220   42.1550   78.0250 C.3   182  LEU182      0.0284
     77  CG       114.2730   41.5440   78.9560 C.3   182  LEU182      0.0019
     78  CD1      114.4170   42.4140   80.1950 C.3   182  LEU182      0.0001
     79  CD2      113.8650   40.1260   79.3450 C.3   182  LEU182      0.0001
     80  N        110.6350   42.1240   76.7030 N.am  183  ASN183     -0.1974
     81  CA       109.3950   42.7470   76.2590 C.3   183  ASN183      0.1688
     82  C        109.6300   44.2560   76.1010 C.2   183  ASN183      0.2292
     83  O        110.4100   44.8410   76.8550 O.2   183  ASN183     -0.2864
     84  CB       108.3460   42.4740   77.3440 C.3   183  ASN183      0.1181
     85  CG       106.9520   42.8800   76.9480 C.2   183  ASN183      0.2629
     86  OD1      106.7240   43.4160   75.8690 O.2   183  ASN183     -0.2716
     87  ND2      105.9960   42.6220   77.8370 N.am  183  ASN183     -0.0877
     88  N        107.1320   46.3570   76.3050 N.3   185  ALA185     -0.1231
     89  CA       106.0210   46.9230   77.0700 C.3   185  ALA185      0.1694
     90  C        106.3230   48.1550   77.9270 C.2   185  ALA185      0.2591
     91  O        105.6860   49.2050   77.7680 O.2   185  ALA185     -0.2718
     92  CB       105.3990   45.8330   77.9410 C.3   185  ALA185      0.0304
     93  N        107.2740   48.0370   78.8480 N.am  186  VAL186     -0.1980
     94  CA       107.5930   49.1700   79.7080 C.3   186  VAL186      0.1595
     95  C        108.1460   50.3540   78.9200 C.2   186  VAL186      0.2287
     96  O        107.8710   51.5030   79.2550 O.2   186  VAL186     -0.2864
     97  CB       108.5820   48.7670   80.8210 C.3   186  VAL186      0.0276
     98  CG1      109.0670   49.9960   81.5660 C.3   186  VAL186      0.0022
     99  CG2      107.8790   47.8240   81.8000 C.3   186  VAL186      0.0022
    100  N        115.4590   50.8210   80.3960 N.3   250  LYS250     -0.1245
    101  CA       114.7070   49.5920   80.1700 C.3   250  LYS250      0.1561
    102  C        115.3530   48.8450   79.0120 C.2   250  LYS250      0.2260
    103  O        115.7750   49.4550   78.0260 O.2   250  LYS250     -0.2867
    104  CB       113.2440   49.8890   79.8350 C.3   250  LYS250      0.0271
    105  CG       112.3840   48.6380   79.6590 C.3   250  LYS250      0.0035
    106  CD       112.3220   47.8210   80.9490 C.3   250  LYS250      0.0206
    107  CE       111.4660   46.5680   80.7830 C.3   250  LYS250      0.1093
    108  NZ       112.3310   45.4230   80.3690 N.3   250  LYS250     -0.1314
    109  N        111.7300   50.2510   86.1420 N.3   292  CYS292     -0.1221
    110  CA       110.5030   49.5970   86.5870 C.3   292  CYS292      0.1808
    111  C        110.7270   48.4290   87.5500 C.2   292  CYS292      0.2601
    112  O        109.8340   48.0850   88.3250 O.2   292  CYS292     -0.2717
    113  CB       109.7290   49.0920   85.3720 C.3   292  CYS292      0.0970
    114  SG       110.6050   47.8120   84.4350 S.3   292  CYS292     -0.0800
    115  N        111.9180   47.8360   87.4950 N.am  293  LEU293     -0.1966
    116  CA       112.2780   46.6780   88.3190 C.3   293  LEU293      0.1713
    117  C        111.4800   45.4810   87.8000 C.2   293  LEU293      0.2458
    118  O        110.3980   45.6550   87.2420 O.2   293  LEU293     -0.2730
    119  CB       111.9500   46.9310   89.7990 C.3   293  LEU293      0.0310
    120  CG       112.5200   48.2080   90.4330 C.3   293  LEU293      0.0022
    121  CD1      112.2190   48.2110   91.9330 C.3   293  LEU293      0.0001
    122  CD2      114.0240   48.2850   90.2060 C.3   293  LEU293      0.0001
    123  N        111.9980   44.2500   87.9670 N.am  294  PRO294     -0.2727
    124  CA       113.2650   43.8490   88.5980 C.3   294  PRO294      0.1402
    125  C        114.4950   44.3010   87.8150 C.2   294  PRO294      0.2269
    126  O        114.5120   44.2390   86.5870 O.2   294  PRO294     -0.2865
    127  CB       113.1500   42.3270   88.6630 C.3   294  PRO294      0.0296
    128  CG       112.3560   42.0050   87.4260 C.3   294  PRO294      0.0237
    129  CD       111.2740   43.0730   87.4520 C.3   294  PRO294      0.0939
    130  N        118.7700   44.0670   87.2210 N.3   296  ARG296     -0.1245
    131  CA       120.0150   43.3270   87.4040 C.3   296  ARG296      0.1563
    132  C        121.1320   44.3380   87.6350 C.2   296  ARG296      0.2260
    133  O        121.5170   45.0640   86.7190 O.2   296  ARG296     -0.2867
    134  CB       120.3110   42.4730   86.1620 C.3   296  ARG296      0.0307
    135  CG       119.4190   41.2370   86.0350 C.3   296  ARG296      0.0489
    136  CD       119.4550   40.6230   84.6360 C.3   296  ARG296      0.2205
    137  NE       118.6940   39.3760   84.5810 N.pl3 296  ARG296     -0.0865
    138  CZ       119.2360   38.1620   84.6460 C.cat 296  ARG296      0.5346
    139  NH1      120.5510   38.0260   84.7600 N.pl3 296  ARG296      0.1354
    140  NH2      118.4650   37.0840   84.6140 N.pl3 296  ARG296      0.1354
    141  N        103.0950   52.1110   92.8060 N.3   319  ARG319     -0.1245
    142  CA       102.2770   51.1290   92.1000 C.3   319  ARG319      0.1563
    143  C        101.0310   50.8240   92.9450 C.2   319  ARG319      0.2260
    144  O         99.9300   50.6470   92.4160 O.2   319  ARG319     -0.2867
    145  CB       103.0720   49.8360   91.8700 C.3   319  ARG319      0.0307
    146  CG       104.1350   49.9260   90.7680 C.3   319  ARG319      0.0489
    147  CD       103.4820   50.0740   89.3950 C.3   319  ARG319      0.2205
    148  NE       102.5990   48.9430   89.1260 N.pl3 319  ARG319     -0.0865
    149  CZ       103.0170   47.7400   88.7490 C.cat 319  ARG319      0.5346
    150  NH1      104.3100   47.5060   88.5730 N.pl3 319  ARG319      0.1354
    151  NH2      102.1440   46.7530   88.5940 N.pl3 319  ARG319      0.1354
@<TRIPOS>BOND
     1    75    74    2
     2    86    85    2
     3    72    73    1
     4    74    80   am
     5    74    73    1
     6    82    81    1
     7    82    83    2
     8    81    80    1
     9    81    84    1
    10    88    89    1
    11    26    25    2
    12    73    76    1
    13    25    24    1
    14    85    84    1
    15    85    87   am
    16    89    90    1
    17    89    92    1
    18    65    64    2
    19    91    90    2
    20    90    93   am
    21    76    77    1
    22   103   102    2
    23    24    27    1
    24    24    23    1
    25    64    63    1
    26    27    28    1
    27    62    63    1
    28    93    94    1
    29    95    96    2
    30    95    94    1
    31    77    79    1
    32    77    78    1
    33   102   101    1
    34    63    66    1
    35    66    67    1
    36   105   104    1
    37   105   106    1
    38    94    97    1
    39   104   101    1
    40    43    44    1
    41    28    29   ar
    42    28    30   ar
    43    68    67   ar
    44    68    70   ar
    45   101   100    1
    46   108   107    1
    47    67    69   ar
    48    29    31   ar
    49    36    37    2
    50    36    35    1
    51    30    32   ar
    52   107   106    1
    53    97    98    1
    54    97    99    1
    55    70    71   ar
    56    41    40   ar
    57    44    47    1
    58    44    45    1
    59    39    40    1
    60    39    38    1
    61    69    71   ar
    62    35    38    1
    63    35    34    1
    64    31    33   ar
    65    47    48    1
    66    45    46    2
    67    40    42   ar
    68    32    33   ar
    69    14    15    2
    70    14    13    1
    71    13    12    1
    72    13    16    1
    73    48    50   ar
    74    48    49   ar
    75    50    52   ar
    76    17    16    1
    77    17    18    1
    78    49    51   ar
    79    18    19    1
    80   114   113    1
    81   137   136    1
    82   137   138    2
    83   140   138    1
    84   136   135    1
    85   138   139    1
    86    57    58    1
    87    57    54    1
    88    19    20    2
    89    52    51   ar
    90    55    54    1
    91    55    56    2
    92   113   110    1
    93    58    59    1
    94    53    54    1
    95    20    21    1
    96    20    22    1
    97   135   134    1
    98   109   110    1
    99   134   131    1
   100   126   125    2
   101   110   111    1
   102   133   132    2
   103    59    60    2
   104    59    61   am
   105   130   131    1
   106   118   117    2
   107   131   132    1
   108   128   129    1
   109   128   127    1
   110   129   123    1
   111   115   111   am
   112   115   116    1
   113   111   112    2
   114   117   123   am
   115   117   116    1
   116   125   124    1
   117   123   124    1
   118   116   119    1
   119   150   149    1
   120   151   149    1
   121   124   127    1
   122   149   148    2
   123   148   147    1
   124   147   146    1
   125   119   120    1
   126   122   120    1
   127   120   121    1
   128    11     9    1
   129   146   145    1
   130     8     9    2
   131     8     7    1
   132     9    10    1
   133     7     6    1
   134   145   142    1
   135   142   141    1
   136   142   143    1
   137     5     6    1
   138     5     2    1
   139   144   143    2
   140     3     2    1
   141     3     4    2
   142     1     2    1
