@<TRIPOS>MOLECULE
tmp/3kzqE02.pdb
 100 95 0 0 0
SMALL
GASTEIGER

@<TRIPOS>ATOM
      1  N         41.4040  131.4810   13.8660 N.3    37  GLU37      -0.1231
      2  CA        41.9780  132.7260   13.3390 C.3    37  GLU37       0.1699
      3  C         42.9320  132.4610   12.1870 C.2    37  GLU37       0.2592
      4  O         43.8560  131.6260   12.3180 O.2    37  GLU37      -0.2718
      5  CB        42.6300  133.5590   14.4440 C.3    37  GLU37       0.0402
      6  CG        42.9090  135.0210   14.0200 C.3    37  GLU37       0.1161
      7  CD        43.4880  135.8820   15.1500 C.2    37  GLU37       0.3649
      8  OE1       42.8070  135.9900   16.2190 O.co2  37  GLU37      -0.2457
      9  OE2       44.5990  136.4650   14.9810 O.co2  37  GLU37      -0.2457
     10  N         42.6650  133.1160   11.0380 N.am   38  TYR38      -0.1976
     11  CA        43.5320  133.0550    9.8560 C.3    38  TYR38       0.1639
     12  C         44.6980  133.9790   10.0860 C.2    38  TYR38       0.2290
     13  O         44.5080  135.0870   10.5830 O.2    38  TYR38      -0.2864
     14  CB        42.8100  133.5910    8.5840 C.3    38  TYR38       0.0560
     15  CG        41.7660  132.6340    7.9690 C.ar   38  TYR38      -0.0198
     16  CD1       40.3960  132.7870    8.2570 C.ar   38  TYR38      -0.0009
     17  CD2       42.1600  131.6140    7.1110 C.ar   38  TYR38      -0.0009
     18  CE1       39.4230  131.9490    7.6790 C.ar   38  TYR38       0.0417
     19  CE2       41.1800  130.7490    6.4900 C.ar   38  TYR38       0.0417
     20  CZ        39.8560  130.9390    6.8040 C.ar   38  TYR38       0.1957
     21  OH        38.9330  130.1340    6.2400 O.3    38  TYR38      -0.2866
     22  N         48.1370  135.4510    7.9090 N.3    40  VAL40      -0.1245
     23  CA        48.9780  135.3370    6.6850 C.3    40  VAL40       0.1561
     24  C         50.4180  135.3700    7.1010 C.2    40  VAL40       0.2260
     25  O         50.8200  136.1970    7.9150 O.2    40  VAL40      -0.2867
     26  CB        48.7260  136.4000    5.6030 C.3    40  VAL40       0.0252
     27  CG1       47.2840  136.2420    4.9620 C.3    40  VAL40       0.0019
     28  CG2       48.9290  137.8130    6.1400 C.3    40  VAL40       0.0019
     29  N         43.5840  140.6270    3.2570 N.3    96  ILE96      -0.1245
     30  CA        43.3390  141.4720    4.4530 C.3    96  ILE96       0.1561
     31  C         42.4280  142.6540    4.0630 C.2    96  ILE96       0.2260
     32  O         41.4540  142.9270    4.7710 O.2    96  ILE96      -0.2867
     33  CB        44.6550  141.9760    5.0390 C.3    96  ILE96       0.0252
     34  CG1       45.4630  140.8030    5.6410 C.3    96  ILE96       0.0019
     35  CG2       44.3920  143.0690    6.1570 C.3    96  ILE96       0.0019
     36  CD1       46.9790  141.1300    5.9060 C.3    96  ILE96       0.0001
     37  N         38.9780  141.3560    3.8260 N.3    99  GLY99      -0.1225
     38  CA        38.5240  141.1510    5.2370 C.3    99  GLY99       0.1811
     39  C         37.9730  142.4310    5.8640 C.2    99  GLY99       0.2280
     40  O         37.0160  142.3330    6.5950 O.2    99  GLY99      -0.2866
     41  N         34.4920  142.3340    5.1340 N.3   102  ASP102     -0.1225
     42  CA        33.8840  141.0250    5.4910 C.3   102  ASP102      0.1805
     43  C         33.8960  139.9710    4.3930 C.2   102  ASP102      0.2598
     44  O         33.0100  139.1380    4.3460 O.2   102  ASP102     -0.2718
     45  CB        32.4570  141.2130    6.1150 C.3   102  ASP102      0.1424
     46  CG        32.5070  142.1540    7.3520 C.2   102  ASP102      0.3668
     47  OD1       33.3980  141.9500    8.2340 O.co2 102  ASP102     -0.2456
     48  OD2       31.6950  143.1340    7.4240 O.co2 102  ASP102     -0.2456
     49  N         34.9600  139.9450    3.5970 N.am  103  SER103     -0.1938
     50  CA        35.0270  139.0420    2.5010 C.3   103  SER103      0.2055
     51  C         36.4260  138.4150    2.4070 C.2   103  SER103      0.2643
     52  O         36.9500  138.1470    1.3030 O.2   103  SER103     -0.2714
     53  CB        34.6670  139.7700    1.1860 C.3   103  SER103      0.2130
     54  OG        33.4400  140.4130    1.3420 O.3   103  SER103     -0.2179
     55  N         36.9920  138.1000    3.5650 N.am  104  TYR104     -0.1959
     56  CA        38.3140  137.5530    3.6510 C.3   104  TYR104      0.1771
     57  C         38.3080  136.1910    2.9360 C.2   104  TYR104      0.2619
     58  O         39.1110  135.9450    2.0770 O.2   104  TYR104     -0.2715
     59  CB        38.6880  137.3370    5.1460 C.3   104  TYR104      0.0574
     60  CG        40.1090  136.8690    5.3400 C.ar  104  TYR104     -0.0198
     61  CD1       41.1440  137.7730    5.6500 C.ar  104  TYR104     -0.0009
     62  CD2       40.4260  135.5150    5.2030 C.ar  104  TYR104     -0.0009
     63  CE1       42.4710  137.3180    5.8620 C.ar  104  TYR104      0.0417
     64  CE2       41.7500  135.0710    5.3560 C.ar  104  TYR104      0.0417
     65  CZ        42.7410  135.9530    5.7540 C.ar  104  TYR104      0.1957
     66  OH        44.0270  135.4200    5.9630 O.3   104  TYR104     -0.2866
     67  N         37.4170  135.3030    3.3150 N.am  105  GLU105     -0.1963
     68  CA        37.4350  133.9770    2.7710 C.3   105  GLU105      0.1733
     69  C         37.0650  133.9570    1.2970 C.2   105  GLU105      0.2616
     70  O         37.5520  133.1240    0.5620 O.2   105  GLU105     -0.2715
     71  CB        36.4570  133.0710    3.5540 C.3   105  GLU105      0.0429
     72  CG        37.0630  132.7440    4.9170 C.3   105  GLU105      0.1163
     73  CD        36.1300  131.8760    5.7960 C.2   105  GLU105      0.3649
     74  OE1       34.9760  132.2700    5.8670 O.co2 105  GLU105     -0.2457
     75  OE2       36.5670  130.8230    6.4150 O.co2 105  GLU105     -0.2457
     76  N         36.1680  134.8460    0.8430 N.am  106  GLN106     -0.1977
     77  CA        35.7940  134.9300   -0.5740 C.3   106  GLN106      0.1601
     78  C         36.9800  135.3860   -1.4630 C.2   106  GLN106      0.2287
     79  O         37.1890  134.8740   -2.5610 O.2   106  GLN106     -0.2864
     80  CB        34.7240  135.9790   -0.7110 C.3   106  GLN106      0.0394
     81  CG        33.3810  135.5040   -0.3960 C.3   106  GLN106      0.0908
     82  CD        32.4760  136.7320   -0.3990 C.2   106  GLN106      0.2608
     83  OE1       32.2070  137.3340   -1.4920 O.2   106  GLN106     -0.2717
     84  NE2       32.0720  137.1920    0.8450 N.am  106  GLN106     -0.0878
     85  N         48.3980  146.3950    9.8850 N.3   154  VAL154     -0.1245
     86  CA        47.7240  145.1570   10.1830 C.3   154  VAL154      0.1561
     87  C         48.5300  144.0030    9.5150 C.2   154  VAL154      0.2260
     88  O         48.6950  142.9360   10.0880 O.2   154  VAL154     -0.2867
     89  CB        46.2680  145.1910    9.6000 C.3   154  VAL154      0.0252
     90  CG1       45.6160  143.7960    9.7400 C.3   154  VAL154      0.0019
     91  CG2       45.4350  146.2900   10.3460 C.3   154  VAL154      0.0019
     92  N         50.4960  140.7820   11.1810 N.3   158  GLN158     -0.1245
     93  CA        50.2760  139.3630   10.9110 C.3   158  GLN158      0.1566
     94  C         51.6240  138.6470   10.6800 C.2   158  GLN158      0.2260
     95  O         51.8050  137.5570   11.1770 O.2   158  GLN158     -0.2867
     96  CB        49.5260  139.1810    9.6340 C.3   158  GLN158      0.0367
     97  CG        48.2530  139.9210    9.6120 C.3   158  GLN158      0.0905
     98  CD        47.2360  138.9660   10.0240 C.2   158  GLN158      0.2608
     99  OE1       46.8910  138.9480   11.1750 O.2   158  GLN158     -0.2717
    100  NE2       46.9440  138.0150    9.1670 N.am  158  GLN158     -0.0878
@<TRIPOS>BOND
     1    79    78    2
     2    83    82    2
     3    78    77    1
     4    80    77    1
     5    80    81    1
     6    77    76    1
     7    82    81    1
     8    82    84   am
     9    70    69    2
    10    76    69   am
    11    53    54    1
    12    53    50    1
    13    69    68    1
    14    52    51    2
    15    58    57    2
    16    51    50    1
    17    51    55   am
    18    50    49    1
    19    68    67    1
    20    68    71    1
    21    57    67   am
    22    57    56    1
    23    29    30    1
    24    71    72    1
    25    55    56    1
    26    49    43   am
    27    56    59    1
    28    37    38    1
    29    31    30    1
    30    31    32    2
    31    44    43    2
    32    43    42    1
    33    30    33    1
    34    72    73    1
    35    27    26    1
    36    33    34    1
    37    33    35    1
    38    41    42    1
    39    59    60    1
    40    62    60   ar
    41    62    64   ar
    42    38    39    1
    43    60    61   ar
    44    64    65   ar
    45    42    45    1
    46    26    28    1
    47    26    23    1
    48    34    36    1
    49    61    63   ar
    50    65    63   ar
    51    65    66    1
    52    73    74   ar
    53    73    75   ar
    54    39    40    2
    55    45    46    1
    56    21    20    1
    57    19    20   ar
    58    19    17   ar
    59    23    24    1
    60    23    22    1
    61    20    18   ar
    62    24    25    2
    63    17    15   ar
    64    46    48   ar
    65    46    47   ar
    66    18    16   ar
    67    15    16   ar
    68    15    14    1
    69    14    11    1
    70   100    98   am
    71    87    88    2
    72    87    86    1
    73    89    90    1
    74    89    86    1
    75    89    91    1
    76    97    96    1
    77    97    98    1
    78    96    93    1
    79    11    12    1
    80    11    10    1
    81    85    86    1
    82    98    99    2
    83    12    13    2
    84    94    93    1
    85    94    95    2
    86    93    92    1
    87    10     3   am
    88     3     4    2
    89     3     2    1
    90     2     1    1
    91     2     5    1
    92     6     5    1
    93     6     7    1
    94     9     7   ar
    95     7     8   ar
