@<TRIPOS>MOLECULE
tmp/3kzqB00.pdb
 136 132 0 0 0
SMALL
GASTEIGER

@<TRIPOS>ATOM
      1  N         72.2130  130.7260   16.4640 N.3    12  MET12      -0.1230
      2  CA        71.5890  129.7670   17.3350 C.3    12  MET12       0.1702
      3  C         70.9500  128.5910   16.5390 C.2    12  MET12       0.2592
      4  O         70.1690  127.8170   17.0670 O.2    12  MET12      -0.2718
      5  CB        70.5660  130.4690   18.2550 C.3    12  MET12       0.0401
      6  CG        71.1910  131.4470   19.3180 C.3    12  MET12       0.0596
      7  SD        70.0250  132.3290   20.3560 S.3    12  MET12      -0.1393
      8  CE        69.0200  130.9180   21.0020 C.3    12  MET12       0.0692
      9  N         71.2880  128.4440   15.2620 N.am   13  CYS13      -0.1956
     10  CA        70.7860  127.2840   14.4930 C.3    13  CYS13       0.1843
     11  C         71.7720  126.0920   14.6950 C.2    13  CYS13       0.2626
     12  O         72.9530  126.1850   14.4590 O.2    13  CYS13      -0.2714
     13  CB        70.6960  127.7080   13.0490 C.3    13  CYS13       0.0997
     14  SG        70.3900  126.2600   11.9860 S.3    13  CYS13      -0.0797
     15  N         71.2490  124.9920   15.1680 N.am   14  SER14      -0.1936
     16  CA        71.9740  123.7290   15.4310 C.3    14  SER14       0.2055
     17  C         72.6500  123.1020   14.2360 C.2    14  SER14       0.2643
     18  O         73.8010  122.6280   14.2910 O.2    14  SER14      -0.2714
     19  CB        70.8760  122.7330   15.9260 C.3    14  SER14       0.2130
     20  OG        70.8820  122.9270   17.2720 O.3    14  SER14      -0.2179
     21  N         71.8930  123.0070   13.1590 N.am   15  TRP15      -0.1973
     22  CA        72.4110  122.4710   11.9030 C.3    15  TRP15       0.1640
     23  C         73.4950  123.4010   11.3080 C.2    15  TRP15       0.2290
     24  O         74.4170  122.9130   10.6530 O.2    15  TRP15      -0.2864
     25  CB        71.2620  122.2690   10.9240 C.3    15  TRP15       0.0576
     26  CG        70.4550  121.0920   11.2890 C.ar   15  TRP15       0.0006
     27  CD1       69.2200  121.0820   11.8700 C.ar   15  TRP15       0.0946
     28  CD2       70.8460  119.7260   11.1300 C.ar   15  TRP15       0.0152
     29  NE1       68.8230  119.7780   12.0870 N.ar   15  TRP15      -0.2442
     30  CE2       69.7750  118.9280   11.6020 C.ar   15  TRP15       0.0810
     31  CE3       71.9810  119.0980   10.5750 C.ar   15  TRP15       0.0012
     32  CZ2       69.8120  117.5050   11.5910 C.ar   15  TRP15       0.0191
     33  CZ3       72.0290  117.6830   10.5560 C.ar   15  TRP15       0.0001
     34  CH2       70.9400  116.9100   11.0710 C.ar   15  TRP15       0.0015
     35  N         65.9760  133.0630   13.1290 N.3    43  LEU43      -0.1245
     36  CA        65.2210  131.8590   13.4370 C.3    43  LEU43       0.1561
     37  C         64.0530  132.0870   14.3600 C.2    43  LEU43       0.2260
     38  O         62.9850  131.5810   14.0610 O.2    43  LEU43      -0.2867
     39  CB        66.1870  130.8000   14.0090 C.3    43  LEU43       0.0270
     40  CG        65.7640  129.3680   14.2470 C.3    43  LEU43       0.0019
     41  CD1       65.1040  128.7030   12.9170 C.3    43  LEU43       0.0001
     42  CD2       67.0270  128.6570   14.7270 C.3    43  LEU43       0.0001
     43  N         64.4360  119.9130   21.1520 N.3    59  LEU59      -0.1245
     44  CA        65.6430  120.5510   20.6390 C.3    59  LEU59       0.1561
     45  C         66.8940  119.7590   21.0500 C.2    59  LEU59       0.2260
     46  O         67.8160  119.5340   20.2660 O.2    59  LEU59      -0.2867
     47  CB        65.7130  121.9680   21.1360 C.3    59  LEU59       0.0270
     48  CG        65.8730  123.0150   20.1030 C.3    59  LEU59       0.0019
     49  CD1       64.6430  122.9510   19.1370 C.3    59  LEU59       0.0001
     50  CD2       65.9620  124.4160   20.7600 C.3    59  LEU59       0.0001
     51  N         67.3090  116.9840   18.8260 N.3    62  ILE62      -0.1245
     52  CA        67.8750  117.4220   17.5590 C.3    62  ILE62       0.1561
     53  C         69.4340  117.4780   17.6490 C.2    62  ILE62       0.2260
     54  O         70.1110  117.0170   16.7370 O.2    62  ILE62      -0.2867
     55  CB        67.2100  118.7600   17.0750 C.3    62  ILE62       0.0252
     56  CG1       65.7690  118.4370   16.5310 C.3    62  ILE62       0.0019
     57  CG2       68.0370  119.3840   15.9870 C.3    62  ILE62       0.0019
     58  CD1       64.8570  119.6880   16.4030 C.3    62  ILE62       0.0001
     59  N         70.6970  113.9700   17.2790 N.3    65  GLN65      -0.1245
     60  CA        70.6660  113.5990   15.8880 C.3    65  GLN65       0.1566
     61  C         71.8370  114.2150   15.0710 C.2    65  GLN65       0.2260
     62  O         72.4890  113.5310   14.2640 O.2    65  GLN65      -0.2867
     63  CB        69.3400  114.1210   15.3550 C.3    65  GLN65       0.0367
     64  CG        68.9890  113.6990   13.9720 C.3    65  GLN65       0.0905
     65  CD        67.7140  114.4040   13.4590 C.2    65  GLN65       0.2608
     66  OE1       67.5430  114.5450   12.2320 O.2    65  GLN65      -0.2717
     67  NE2       66.8250  114.8600   14.3850 N.am   65  GLN65      -0.0878
     68  N         74.8070  112.1980   13.1690 N.3    69  GLN69      -0.1245
     69  CA        74.9470  112.2350   11.7290 C.3    69  GLN69       0.1566
     70  C         76.2730  112.8470   11.3110 C.2    69  GLN69       0.2260
     71  O         76.8800  112.4010   10.3480 O.2    69  GLN69      -0.2867
     72  CB        73.7190  112.9310   11.1110 C.3    69  GLN69       0.0367
     73  CG        73.7040  112.9440    9.5700 C.3    69  GLN69       0.0905
     74  CD        72.5380  113.8100    8.9790 C.2    69  GLN69       0.2608
     75  OE1       72.7050  114.4830    7.9080 O.2    69  GLN69      -0.2717
     76  NE2       71.3670  113.8280    9.7030 N.am   69  GLN69      -0.0878
     77  N         63.3630  130.4920   23.3980 N.3    86  ARG86      -0.1245
     78  CA        63.3340  130.2970   21.9320 C.3    86  ARG86       0.1563
     79  C         63.3810  131.6910   21.2690 C.2    86  ARG86       0.2260
     80  O         62.3130  132.2600   20.8390 O.2    86  ARG86      -0.2867
     81  CB        62.0630  129.5040   21.5130 C.3    86  ARG86       0.0307
     82  CG        61.9030  129.2880   19.9750 C.3    86  ARG86       0.0489
     83  CD        63.1000  128.5370   19.4620 C.3    86  ARG86       0.2205
     84  NE        62.9350  128.0330   18.0910 N.pl3  86  ARG86      -0.0865
     85  CZ        63.8620  127.3020   17.4360 C.cat  86  ARG86       0.5346
     86  NH1       65.0370  126.9670   18.0150 N.pl3  86  ARG86       0.1354
     87  NH2       63.6120  126.9100   16.1880 N.pl3  86  ARG86       0.1354
     88  N         77.0570  128.7730   23.3970 N.3   115  TYR115     -0.1241
     89  CA        75.7950  127.9950   23.4090 C.3   115  TYR115      0.1605
     90  C         76.0260  126.4990   23.4700 C.2   115  TYR115      0.2264
     91  O         75.4700  125.8130   24.3620 O.2   115  TYR115     -0.2867
     92  CB        74.9880  128.3580   22.1240 C.3   115  TYR115      0.0534
     93  CG        73.5690  127.8010   21.9870 C.ar  115  TYR115     -0.0201
     94  CD1       72.8510  127.2620   23.0850 C.ar  115  TYR115     -0.0009
     95  CD2       72.9070  127.9390   20.7650 C.ar  115  TYR115     -0.0009
     96  CE1       71.4950  126.8110   22.9140 C.ar  115  TYR115      0.0417
     97  CE2       71.6120  127.5150   20.5930 C.ar  115  TYR115      0.0417
     98  CZ        70.9160  126.9360   21.6570 C.ar  115  TYR115      0.1957
     99  OH        69.6600  126.5070   21.4170 O.3   115  TYR115     -0.2866
    100  N         64.7530  128.2430    5.8930 N.3   169  SER169     -0.1202
    101  CA        65.3970  127.3130    6.8310 C.3   169  SER169      0.2020
    102  C         66.9120  127.3640    6.6270 C.2   169  SER169      0.2619
    103  O         67.3680  127.7540    5.5440 O.2   169  SER169     -0.2717
    104  CB        64.8700  125.8940    6.6110 C.3   169  SER169      0.2103
    105  OG        65.3400  125.4470    5.3560 O.3   169  SER169     -0.2182
    106  N         67.6820  126.9390    7.6330 N.am  170  TYR170     -0.1962
    107  CA        69.1220  127.2670    7.6950 C.3   170  TYR170      0.1756
    108  C         69.7840  126.0000    8.0220 C.2   170  TYR170      0.2461
    109  O         69.1890  125.2010    8.7370 O.2   170  TYR170     -0.2730
    110  CB        69.3880  128.3040    8.8110 C.3   170  TYR170      0.0574
    111  CG        68.3470  129.3820    8.7650 C.ar  170  TYR170     -0.0198
    112  CD1       68.2000  130.1830    7.6170 C.ar  170  TYR170     -0.0009
    113  CD2       67.4790  129.5990    9.8480 C.ar  170  TYR170     -0.0009
    114  CE1       67.2070  131.1750    7.5370 C.ar  170  TYR170      0.0417
    115  CE2       66.4670  130.5850    9.7880 C.ar  170  TYR170      0.0417
    116  CZ        66.3490  131.3770    8.6160 C.ar  170  TYR170      0.1957
    117  OH        65.3820  132.3560    8.5470 O.3   170  TYR170     -0.2866
    118  N         71.0110  125.7900    7.5060 N.am  171  PRO171     -0.2727
    119  CA        71.7880  126.6460    6.6670 C.3   171  PRO171      0.1402
    120  C         71.1990  126.6050    5.2410 C.2   171  PRO171      0.2269
    121  O         70.6220  125.5700    4.8170 O.2   171  PRO171     -0.2865
    122  CB        73.1930  125.9640    6.6790 C.3   171  PRO171      0.0296
    123  CG        72.8310  124.4750    6.9170 C.3   171  PRO171      0.0237
    124  CD        71.7510  124.5900    7.9370 C.3   171  PRO171      0.0939
    125  N         76.5600  118.5520    3.9520 N.3   188  TYR188     -0.1241
    126  CA        77.0970  118.8100    5.3160 C.3   188  TYR188      0.1605
    127  C         78.5060  118.2500    5.4950 C.2   188  TYR188      0.2264
    128  O         79.2700  118.7520    6.3000 O.2   188  TYR188     -0.2867
    129  CB        76.1890  118.2250    6.4110 C.3   188  TYR188      0.0534
    130  CG        74.9390  119.0160    6.6610 C.ar  188  TYR188     -0.0201
    131  CD1       74.9670  120.1630    7.4370 C.ar  188  TYR188     -0.0009
    132  CD2       73.7310  118.6540    6.0770 C.ar  188  TYR188     -0.0009
    133  CE1       73.8170  120.9010    7.6470 C.ar  188  TYR188      0.0417
    134  CE2       72.5760  119.4110    6.2690 C.ar  188  TYR188      0.0417
    135  CZ        72.6370  120.5210    7.0740 C.ar  188  TYR188      0.1957
    136  OH        71.5080  121.2760    7.2830 O.3   188  TYR188     -0.2866
@<TRIPOS>BOND
     1   125   126    1
     2   121   120    2
     3   120   119    1
     4   126   127    1
     5   126   129    1
     6   105   104    1
     7   127   128    2
     8   103   102    2
     9   100   101    1
    10   132   134   ar
    11   132   130   ar
    12   134   135   ar
    13   129   130    1
    14   104   101    1
    15   102   101    1
    16   102   106   am
    17   130   131   ar
    18   119   122    1
    19   119   118    1
    20   122   123    1
    21   123   124    1
    22   135   136    1
    23   135   133   ar
    24   131   133   ar
    25   118   124    1
    26   118   108   am
    27   114   112   ar
    28   114   116   ar
    29   112   111   ar
    30   106   107    1
    31   107   108    1
    32   107   110    1
    33    75    74    2
    34   108   109    2
    35   117   116    1
    36   116   115   ar
    37   111   110    1
    38   111   113   ar
    39    74    73    1
    40    74    76   am
    41    73    72    1
    42   115   113   ar
    43    71    70    2
    44    33    31   ar
    45    33    34   ar
    46    31    28   ar
    47    24    23    2
    48    25    26    1
    49    25    22    1
    50    34    32   ar
    51    72    69    1
    52    28    26   ar
    53    28    30   ar
    54    26    27   ar
    55    23    22    1
    56    70    69    1
    57    32    30   ar
    58    30    29   ar
    59    69    68    1
    60    27    29   ar
    61    22    21    1
    62    14    13    1
    63    66    65    2
    64    41    40    1
    65    13    10    1
    66    35    36    1
    67    21    17   am
    68    36    39    1
    69    36    37    1
    70    65    64    1
    71    65    67   am
    72    64    63    1
    73    39    40    1
    74    38    37    2
    75    17    18    2
    76    17    16    1
    77    40    42    1
    78    62    61    2
    79    12    11    2
    80    10    11    1
    81    10     9    1
    82    11    15   am
    83    61    60    1
    84    15    16    1
    85     9     3   am
    86    63    60    1
    87    16    19    1
    88    60    59    1
    89    19    20    1
    90    57    55    1
    91    87    85    1
    92    58    56    1
    93     1     2    1
    94    56    55    1
    95     3     4    2
    96     3     2    1
    97    54    53    2
    98    55    52    1
    99     2     5    1
   100    85    86    1
   101    85    84    2
   102    52    53    1
   103    52    51    1
   104    84    83    1
   105     5     6    1
   106    49    48    1
   107     6     7    1
   108    83    82    1
   109    82    81    1
   110    48    50    1
   111    48    47    1
   112    46    45    2
   113     7     8    1
   114    97    95   ar
   115    97    98   ar
   116    44    45    1
   117    44    47    1
   118    44    43    1
   119    95    93   ar
   120    80    79    2
   121    79    78    1
   122    99    98    1
   123    81    78    1
   124    98    96   ar
   125    78    77    1
   126    93    92    1
   127    93    94   ar
   128    92    89    1
   129    96    94   ar
   130    88    89    1
   131    89    90    1
   132    90    91    2
