@<TRIPOS>MOLECULE
tmp/3kzqE00.pdb
 125 122 0 0 0
SMALL
GASTEIGER

@<TRIPOS>ATOM
      1  N         46.2910  125.5000   -0.7750 N.3    17  TRP17      -0.1227
      2  CA        45.2220  125.1910   -1.7210 C.3    17  TRP17       0.1737
      3  C         44.9220  123.6820   -1.6950 C.2    17  TRP17       0.2596
      4  O         43.7670  123.3120   -1.6710 O.2    17  TRP17      -0.2718
      5  CB        45.6410  125.6670   -3.1270 C.3    17  TRP17       0.0564
      6  CG        44.9190  125.0800   -4.3540 C.ar   17  TRP17       0.0003
      7  CD1       45.4890  124.4380   -5.4240 C.ar   17  TRP17       0.0946
      8  CD2       43.5290  125.2600   -4.6850 C.ar   17  TRP17       0.0152
      9  NE1       44.5180  124.1440   -6.3690 N.ar   17  TRP17      -0.2442
     10  CE2       43.3110  124.6320   -5.9270 C.ar   17  TRP17       0.0810
     11  CE3       42.4410  125.8840   -4.0220 C.ar   17  TRP17       0.0012
     12  CZ2       42.0820  124.5680   -6.5110 C.ar   17  TRP17       0.0191
     13  CZ3       41.1740  125.8190   -4.6220 C.ar   17  TRP17       0.0001
     14  CH2       41.0270  125.1790   -5.8770 C.ar   17  TRP17       0.0015
     15  N         45.9340  122.8100   -1.6970 N.am   18  GLY18      -0.1957
     16  CA        45.6200  121.4020   -1.5090 C.3    18  GLY18       0.1869
     17  C         44.8170  121.1760   -0.1750 C.2    18  GLY18       0.2309
     18  O         43.9160  120.3560   -0.1240 O.2    18  GLY18      -0.2863
     19  N         42.7090  123.1580    1.3680 N.3    20  LYS20      -0.1231
     20  CA        41.4510  123.9270    1.4780 C.3    20  LYS20       0.1678
     21  C         40.1700  123.1240    1.8670 C.2    20  LYS20       0.2434
     22  O         39.4960  123.5330    2.7870 O.2    20  LYS20      -0.2733
     23  CB        41.2180  124.6970    0.1560 C.3    20  LYS20       0.0284
     24  CG        39.9310  125.5250    0.0580 C.3    20  LYS20       0.0035
     25  CD        39.6890  125.8970   -1.4230 C.3    20  LYS20       0.0206
     26  CE        38.2630  126.4110   -1.6700 C.3    20  LYS20       0.1093
     27  NZ        37.9350  127.5920   -0.7910 N.3    20  LYS20      -0.1314
     28  N         39.8030  122.0370    1.1660 N.am   21  PRO21      -0.2718
     29  CA        38.5370  121.3710    1.6160 C.3    21  PRO21       0.1535
     30  C         38.6030  120.8040    3.0500 C.2    21  PRO21       0.2599
     31  O         37.5920  120.8410    3.7250 O.2    21  PRO21      -0.2715
     32  CB        38.2920  120.2170    0.6030 C.3    21  PRO21       0.0310
     33  CG        39.6020  120.0910   -0.1970 C.3    21  PRO21       0.0237
     34  CD        40.5090  121.2870    0.1090 C.3    21  PRO21       0.0939
     35  N         39.7640  120.3120    3.5000 N.am   22  THR22      -0.1951
     36  CA        39.9070  119.7900    4.8540 C.3    22  THR22       0.1897
     37  C         39.9390  120.9080    5.9340 C.2    22  THR22       0.2313
     38  O         39.2240  120.8200    6.9370 O.2    22  THR22      -0.2863
     39  CB        41.1170  118.8710    4.9600 C.3    22  THR22       0.1794
     40  OG1       40.9180  117.8030    4.0300 O.3    22  THR22      -0.2208
     41  CG2       41.1840  118.2630    6.3620 C.3    22  THR22       0.0378
     42  N         38.6200  123.8930    5.6170 N.3    24  GLU24      -0.1245
     43  CA        37.2490  124.3840    5.7410 C.3    24  GLU24       0.1567
     44  C         36.3420  123.4460    6.5310 C.2    24  GLU24       0.2260
     45  O         35.5040  123.9380    7.2630 O.2    24  GLU24      -0.2867
     46  CB        36.6150  124.5860    4.3740 C.3    24  GLU24       0.0388
     47  CG        37.3440  125.6510    3.5950 C.3    24  GLU24       0.1160
     48  CD        36.6840  125.7970    2.1910 C.2    24  GLU24       0.3649
     49  OE1       36.2160  124.7570    1.5690 O.co2  24  GLU24      -0.2457
     50  OE2       36.6560  126.9480    1.7290 O.co2  24  GLU24      -0.2457
     51  N         46.5600  114.3530   -3.2630 N.3    70  LEU70      -0.1231
     52  CA        45.3360  114.8930   -2.6650 C.3    70  LEU70       0.1693
     53  C         44.1570  114.9610   -3.6330 C.2    70  LEU70       0.2593
     54  O         43.0340  115.2460   -3.2190 O.2    70  LEU70      -0.2718
     55  CB        45.5960  116.3070   -2.0860 C.3    70  LEU70       0.0284
     56  CG        46.7040  116.4300   -1.0490 C.3    70  LEU70       0.0019
     57  CD1       46.7950  117.8720   -0.5060 C.3    70  LEU70       0.0001
     58  CD2       46.5100  115.4660    0.0780 C.3    70  LEU70       0.0001
     59  N         44.3870  114.7640   -4.9240 N.am   71  GLY71      -0.1942
     60  CA        43.2930  114.8740   -5.8830 C.3    71  GLY71       0.2014
     61  C         42.9730  116.3310   -6.2100 C.2    71  GLY71       0.2640
     62  O         42.0160  116.5970   -6.8730 O.2    71  GLY71      -0.2714
     63  N         43.8260  117.2680   -5.7700 N.am   72  THR72      -0.1936
     64  CA        43.6650  118.6880   -6.0020 C.3    72  THR72       0.2028
     65  C         43.6240  119.0830   -7.4950 C.2    72  THR72       0.2642
     66  O         44.4150  118.5680   -8.2900 O.2    72  THR72      -0.2714
     67  CB        44.8320  119.4150   -5.3050 C.3    72  THR72       0.1808
     68  OG1       44.8090  119.0550   -3.9300 O.3    72  THR72      -0.2208
     69  CG2       44.7300  120.9790   -5.4070 C.3    72  THR72       0.0379
     70  N         42.7680  120.0460   -7.8430 N.am   73  LYS73      -0.1977
     71  CA        42.6390  120.5260   -9.2420 C.3    73  LYS73       0.1596
     72  C         43.6620  121.6320   -9.5670 C.2    73  LYS73       0.2287
     73  O         43.7840  122.5930   -8.7830 O.2    73  LYS73      -0.2864
     74  CB        41.2050  121.0930   -9.4820 C.3    73  LYS73       0.0298
     75  CG        40.0360  119.9900   -9.2880 C.3    73  LYS73       0.0038
     76  CD        38.6140  120.5620   -9.5040 C.3    73  LYS73       0.0206
     77  CE        38.2510  121.6680   -8.4710 C.3    73  LYS73       0.1093
     78  NZ        36.7470  122.1170   -8.5980 N.3    73  LYS73      -0.1314
     79  N         39.6500  132.5530   -1.6710 N.3   109  GLU109     -0.1245
     80  CA        39.2650  131.5340   -2.5910 C.3   109  GLU109      0.1567
     81  C         39.3620  132.0870   -4.0070 C.2   109  GLU109      0.2260
     82  O         39.7710  131.3690   -4.9100 O.2   109  GLU109     -0.2867
     83  CB        37.8270  131.0550   -2.3050 C.3   109  GLU109      0.0388
     84  CG        37.3080  130.0950   -3.3790 C.3   109  GLU109      0.1160
     85  CD        35.9220  129.5720   -3.0620 C.2   109  GLU109      0.3649
     86  OE1       34.9530  129.9980   -3.6520 O.co2 109  GLU109     -0.2457
     87  OE2       35.7740  128.8340   -2.1040 O.co2 109  GLU109     -0.2457
     88  N         41.6380  130.4080   -6.9260 N.3   113  HIS113     -0.1241
     89  CA        41.0230  129.8870   -8.1660 C.3   113  HIS113      0.1621
     90  C         41.6680  130.6250   -9.3030 C.2   113  HIS113      0.2264
     91  O         41.8520  130.0390  -10.3680 O.2   113  HIS113     -0.2867
     92  CB        39.5020  130.1830   -8.2530 C.3   113  HIS113      0.0745
     93  CG        38.6690  129.2430   -7.4740 C.ar  113  HIS113      0.0817
     94  ND1       39.2110  128.2960   -6.6130 N.ar  113  HIS113     -0.2268
     95  CD2       37.3320  129.1650   -7.3300 C.ar  113  HIS113      0.1154
     96  CE1       38.2290  127.6510   -6.0040 C.ar  113  HIS113      0.1986
     97  NE2       37.0770  128.1500   -6.4260 N.ar  113  HIS113     -0.2212
     98  N         43.4050  127.7430  -11.1370 N.3   117  LEU117     -0.1245
     99  CA        42.4340  127.3260  -12.1380 C.3   117  LEU117      0.1561
    100  C         42.3600  128.2650  -13.3520 C.2   117  LEU117      0.2260
    101  O         42.2110  127.8070  -14.4840 O.2   117  LEU117     -0.2867
    102  CB        41.0120  127.1570  -11.5010 C.3   117  LEU117      0.0270
    103  CG        40.9760  126.1260  -10.3550 C.3   117  LEU117      0.0019
    104  CD1       39.5290  125.9540   -9.7910 C.3   117  LEU117      0.0001
    105  CD2       41.4040  124.8050  -10.8760 C.3   117  LEU117      0.0001
    106  N         46.1080  116.2900    5.7890 N.3   188  TYR188     -0.1227
    107  CA        45.5360  116.8870    4.5800 C.3   188  TYR188      0.1736
    108  C         44.2140  116.2860    4.1610 C.2   188  TYR188      0.2595
    109  O         43.4370  116.9620    3.5190 O.2   188  TYR188     -0.2718
    110  CB        46.5010  116.7990    3.3770 C.3   188  TYR188      0.0548
    111  CG        47.6510  117.7870    3.4750 C.ar  188  TYR188     -0.0200
    112  CD1       48.8740  117.4070    4.0390 C.ar  188  TYR188     -0.0009
    113  CD2       47.4770  119.1320    3.0470 C.ar  188  TYR188     -0.0009
    114  CE1       49.9260  118.3450    4.2050 C.ar  188  TYR188      0.0417
    115  CE2       48.5450  120.0750    3.1780 C.ar  188  TYR188      0.0417
    116  CZ        49.7540  119.6560    3.7550 C.ar  188  TYR188      0.1957
    117  OH        50.7790  120.5740    3.8430 O.3   188  TYR188     -0.2866
    118  N         43.9770  115.0290    4.4950 N.am  189  LEU189     -0.1980
    119  CA        42.8130  114.2730    3.9910 C.3   189  LEU189      0.1596
    120  C         41.7010  114.0650    4.9920 C.2   189  LEU189      0.2287
    121  O         40.6030  113.6630    4.5940 O.2   189  LEU189     -0.2864
    122  CB        43.2410  112.9020    3.4730 C.3   189  LEU189      0.0297
    123  CG        44.0800  113.1230    2.2100 C.3   189  LEU189      0.0022
    124  CD1       44.9020  111.8490    1.9170 C.3   189  LEU189      0.0001
    125  CD2       43.2430  113.5630    1.0490 C.3   189  LEU189      0.0001
@<TRIPOS>BOND
     1   101   100    2
     2   100    99    1
     3    99   102    1
     4    99    98    1
     5   102   103    1
     6   105   103    1
     7    91    90    2
     8   103   104    1
     9    72    71    1
    10    72    73    2
    11    76    75    1
    12    76    77    1
    13    74    75    1
    14    74    71    1
    15    90    89    1
    16    71    70    1
    17    78    77    1
    18    66    65    2
    19    92    89    1
    20    92    93    1
    21    89    88    1
    22    70    65   am
    23    65    64    1
    24    93    95   ar
    25    93    94   ar
    26    95    97   ar
    27    62    61    2
    28    94    96   ar
    29    12    10   ar
    30    12    14   ar
    31    97    96   ar
    32     9    10   ar
    33     9     7   ar
    34    61    60    1
    35    61    63   am
    36    64    63    1
    37    64    67    1
    38    10     8   ar
    39    60    59    1
    40    14    13   ar
    41     7     6   ar
    42    69    67    1
    43    67    68    1
    44    59    53   am
    45    82    81    2
    46     8     6   ar
    47     8    11   ar
    48    13    11   ar
    49     6     5    1
    50    81    80    1
    51    86    85   ar
    52    53    54    2
    53    53    52    1
    54    84    85    1
    55    84    83    1
    56    51    52    1
    57     5     2    1
    58    85    87   ar
    59    52    55    1
    60    80    83    1
    61    80    79    1
    62    55    56    1
    63     2     3    1
    64     2     1    1
    65    15     3   am
    66    15    16    1
    67     3     4    2
    68    26    25    1
    69    26    27    1
    70    16    17    1
    71    25    24    1
    72    56    57    1
    73    56    58    1
    74    33    34    1
    75    33    32    1
    76    17    18    2
    77    24    23    1
    78    34    28    1
    79    23    20    1
    80    32    29    1
    81   125   123    1
    82    28    29    1
    83    28    21   am
    84    19    20    1
    85    20    21    1
    86    49    48   ar
    87    29    30    1
    88    50    48   ar
    89    21    22    2
    90   124   123    1
    91    48    47    1
    92   123   122    1
    93   113   115   ar
    94   113   111   ar
    95    30    35   am
    96    30    31    2
    97   115   116   ar
    98   110   111    1
    99   110   107    1
   100   122   119    1
   101   111   112   ar
   102    35    36    1
   103   109   108    2
   104    47    46    1
   105   116   117    1
   106   116   114   ar
   107   119   118    1
   108   119   120    1
   109    40    39    1
   110   112   114   ar
   111   108   118   am
   112   108   107    1
   113    46    43    1
   114   107   106    1
   115   121   120    2
   116    36    39    1
   117    36    37    1
   118    39    41    1
   119    42    43    1
   120    43    44    1
   121    37    38    2
   122    44    45    2
