@<TRIPOS>MOLECULE
tmp/3kzsA01.pdb
 113 109 0 0 0
SMALL
GASTEIGER

@<TRIPOS>ATOM
      1  N         -6.6120   58.3010   88.3860 N.3    37  TRP37      -0.1241
      2  CA        -7.5300   57.1890   88.6470 C.3    37  TRP37       0.1605
      3  C         -7.1630   55.9120   87.9200 C.2    37  TRP37       0.2264
      4  O         -7.1090   54.8540   88.5280 O.2    37  TRP37      -0.2867
      5  CB        -8.9920   57.5510   88.2980 C.3    37  TRP37       0.0550
      6  CG        -9.6710   58.5690   89.2030 C.ar   37  TRP37       0.0003
      7  CD1      -10.4910   59.5840   88.8090 C.ar   37  TRP37       0.0946
      8  CD2       -9.6390   58.6210   90.6500 C.ar   37  TRP37       0.0152
      9  NE1      -10.9770   60.2620   89.9080 N.ar   37  TRP37      -0.2442
     10  CE2      -10.4730   59.6870   91.0470 C.ar   37  TRP37       0.0810
     11  CE3       -9.0040   57.8610   91.6340 C.ar   37  TRP37       0.0012
     12  CZ2      -10.6630   60.0290   92.3850 C.ar   37  TRP37       0.0191
     13  CZ3       -9.1890   58.2090   92.9640 C.ar   37  TRP37       0.0001
     14  CH2      -10.0130   59.2850   93.3240 C.ar   37  TRP37       0.0015
     15  N         -7.4030   54.4360   91.2540 N.3    66  GLN66      -0.1245
     16  CA        -8.3750   53.4200   91.4550 C.3    66  GLN66       0.1566
     17  C         -7.6430   52.1070   91.4050 C.2    66  GLN66       0.2260
     18  O         -7.2370   51.6420   90.3230 O.2    66  GLN66      -0.2867
     19  CB        -9.4690   53.4820   90.3770 C.3    66  GLN66       0.0367
     20  CG       -10.3350   54.7680   90.4420 C.3    66  GLN66       0.0905
     21  CD       -11.4810   54.7750   89.4200 C.2    66  GLN66       0.2608
     22  OE1      -11.8270   53.7420   88.8550 O.2    66  GLN66      -0.2717
     23  NE2      -12.0760   55.9540   89.1980 N.am   66  GLN66      -0.0878
     24  N        -13.3490   51.0840   93.3900 N.3   119  TRP119     -0.1241
     25  CA       -14.2660   52.1390   93.0420 C.3   119  TRP119      0.1605
     26  C        -15.6900   51.7120   93.4200 C.2   119  TRP119      0.2264
     27  O        -15.9990   50.5300   93.4460 O.2   119  TRP119     -0.2867
     28  CB       -14.1680   52.4220   91.5590 C.3   119  TRP119      0.0550
     29  CG       -14.7390   53.6990   91.1490 C.ar  119  TRP119      0.0003
     30  CD1      -15.7950   53.8890   90.3210 C.ar  119  TRP119      0.0946
     31  CD2      -14.2690   54.9960   91.5090 C.ar  119  TRP119      0.0152
     32  NE1      -16.0070   55.2390   90.1260 N.ar  119  TRP119     -0.2442
     33  CE2      -15.0730   55.9340   90.8380 C.ar  119  TRP119      0.0810
     34  CE3      -13.2210   55.4580   92.3080 C.ar  119  TRP119      0.0012
     35  CZ2      -14.8680   57.3060   90.9490 C.ar  119  TRP119      0.0191
     36  CZ3      -13.0240   56.8130   92.4210 C.ar  119  TRP119      0.0001
     37  CH2      -13.8430   57.7240   91.7440 C.ar  119  TRP119      0.0015
     38  N        -16.5400   57.6220   94.9280 N.3   156  ASP156     -0.1239
     39  CA       -17.7140   58.2270   94.2740 C.3   156  ASP156      0.1674
     40  C        -18.9860   57.4560   94.6430 C.2   156  ASP156      0.2266
     41  O        -19.7010   56.9660   93.7770 O.2   156  ASP156     -0.2867
     42  CB       -17.5390   58.2570   92.7540 C.3   156  ASP156      0.1410
     43  CG       -18.6110   59.0910   92.0620 C.2   156  ASP156      0.3668
     44  OD1      -18.9660   60.1600   92.6070 O.co2 156  ASP156     -0.2456
     45  OD2      -19.0680   58.6940   90.9510 O.co2 156  ASP156     -0.2456
     46  N        -16.2190   65.4730   97.7320 N.3   206  GLN206     -0.1245
     47  CA       -16.1240   65.6580   96.2990 C.3   206  GLN206      0.1566
     48  C        -16.9900   66.8480   95.9040 C.2   206  GLN206      0.2260
     49  O        -18.2150   66.7450   95.8950 O.2   206  GLN206     -0.2867
     50  CB       -16.5990   64.4010   95.5450 C.3   206  GLN206      0.0367
     51  CG       -16.7480   64.6450   94.0200 C.3   206  GLN206      0.0905
     52  CD       -17.1600   63.4460   93.2450 C.2   206  GLN206      0.2608
     53  OE1      -17.2890   63.5140   92.0330 O.2   206  GLN206     -0.2717
     54  NE2      -17.3680   62.3260   93.9260 N.am  206  GLN206     -0.0878
     55  N        -18.8320   68.1380   89.9580 N.3   209  HIS209     -0.1241
     56  CA       -18.2230   68.9990   88.9320 C.3   209  HIS209      0.1621
     57  C        -19.2870   69.9380   88.3240 C.2   209  HIS209      0.2264
     58  O        -19.1430   70.4070   87.1860 O.2   209  HIS209     -0.2867
     59  CB       -17.6310   68.1370   87.8180 C.3   209  HIS209      0.0745
     60  CG       -16.6140   67.1560   88.2910 C.ar  209  HIS209      0.0817
     61  ND1      -15.2680   67.4130   88.2580 N.ar  209  HIS209     -0.2268
     62  CD2      -16.7490   65.9290   88.8450 C.ar  209  HIS209      0.1154
     63  CE1      -14.6130   66.3790   88.7490 C.ar  209  HIS209      0.1986
     64  NE2      -15.4890   65.4680   89.1170 N.ar  209  HIS209     -0.2212
     65  N        -11.8440   65.5910   95.3550 N.3   248  GLU248     -0.1245
     66  CA       -12.2470   65.6410   93.9460 C.3   248  GLU248      0.1567
     67  C        -13.0320   66.8830   93.6270 C.2   248  GLU248      0.2260
     68  O        -14.2460   66.8630   93.6290 O.2   248  GLU248     -0.2867
     69  CB       -13.0580   64.4160   93.5610 C.3   248  GLU248      0.0388
     70  CG       -13.6250   64.4860   92.1370 C.3   248  GLU248      0.1160
     71  CD       -14.0330   63.1640   91.5950 C.2   248  GLU248      0.3649
     72  OE1      -13.8500   62.1410   92.2880 O.co2 248  GLU248     -0.2457
     73  OE2      -14.4850   63.1250   90.4270 O.co2 248  GLU248     -0.2457
     74  N        -12.4580   69.1330   87.6480 N.3   251  TYR251     -0.1241
     75  CA       -11.2460   68.7850   86.9180 C.3   251  TYR251      0.1605
     76  C        -11.0280   69.7560   85.7790 C.2   251  TYR251      0.2264
     77  O        -11.9790   70.1250   85.0540 O.2   251  TYR251     -0.2867
     78  CB       -11.3050   67.3550   86.3640 C.3   251  TYR251      0.0534
     79  CG       -11.3700   66.2600   87.4330 C.ar  251  TYR251     -0.0201
     80  CD1      -10.8830   66.4830   88.7100 C.ar  251  TYR251     -0.0009
     81  CD2      -11.7410   64.9650   87.0980 C.ar  251  TYR251     -0.0009
     82  CE1      -10.9220   65.4950   89.6700 C.ar  251  TYR251      0.0417
     83  CE2      -11.7410   63.9530   88.0370 C.ar  251  TYR251      0.0417
     84  CZ       -11.3450   64.2340   89.3330 C.ar  251  TYR251      0.1957
     85  OH       -11.3460   63.2520   90.2720 O.3   251  TYR251     -0.2866
     86  N        -12.7780   69.7150   82.1320 N.3   254  ILE254     -0.1245
     87  CA       -13.9580   68.8410   82.1690 C.3   254  ILE254      0.1561
     88  C        -15.2130   69.7380   82.0100 C.2   254  ILE254      0.2260
     89  O        -15.2010   70.8980   82.4310 O.2   254  ILE254     -0.2867
     90  CB       -14.0210   67.9870   83.4660 C.3   254  ILE254      0.0252
     91  CG1      -14.7570   66.6890   83.2030 C.3   254  ILE254      0.0019
     92  CG2      -14.6500   68.7920   84.6330 C.3   254  ILE254      0.0019
     93  CD1      -14.4630   65.5540   84.2570 C.3   254  ILE254      0.0001
     94  N        -20.5960   67.5610   83.6420 N.3   258  LEU258     -0.1245
     95  CA       -20.2390   66.2460   83.0600 C.3   258  LEU258      0.1561
     96  C        -21.1230   65.7300   81.9080 C.2   258  LEU258      0.2260
     97  O        -20.6080   65.1390   80.9600 O.2   258  LEU258     -0.2867
     98  CB       -20.2030   65.1640   84.1510 C.3   258  LEU258      0.0270
     99  CG       -19.2570   65.3780   85.3250 C.3   258  LEU258      0.0019
    100  CD1      -19.2860   64.1570   86.2350 C.3   258  LEU258      0.0001
    101  CD2      -17.8200   65.6680   84.8400 C.3   258  LEU258      0.0001
    102  N        -16.6650   62.4680   78.8690 N.3   304  TYR304     -0.1241
    103  CA       -16.7810   63.8870   79.1600 C.3   304  TYR304      0.1605
    104  C        -16.0200   64.7750   78.1640 C.2   304  TYR304      0.2264
    105  O        -15.4280   65.8120   78.5540 O.2   304  TYR304     -0.2867
    106  CB       -16.3010   64.1720   80.5750 C.3   304  TYR304      0.0534
    107  CG       -16.7670   63.1580   81.5840 C.ar  304  TYR304     -0.0201
    108  CD1      -18.1210   62.9180   81.7830 C.ar  304  TYR304     -0.0009
    109  CD2      -15.8580   62.4610   82.3610 C.ar  304  TYR304     -0.0009
    110  CE1      -18.5500   61.9790   82.7050 C.ar  304  TYR304      0.0417
    111  CE2      -16.2700   61.5450   83.2890 C.ar  304  TYR304      0.0417
    112  CZ       -17.6170   61.3010   83.4610 C.ar  304  TYR304      0.1957
    113  OH       -18.0200   60.3870   84.3790 O.3   304  TYR304     -0.2866
@<TRIPOS>BOND
     1   104   105    2
     2   104   103    1
     3   102   103    1
     4   103   106    1
     5   106   107    1
     6    97    96    2
     7   107   108   ar
     8   107   109   ar
     9   108   110   ar
    10    96    95    1
    11    88    87    1
    12    88    89    2
    13    86    87    1
    14    87    90    1
    15   109   111   ar
    16   110   112   ar
    17    95    94    1
    18    95    98    1
    19    91    90    1
    20    91    93    1
    21   111   112   ar
    22   112   113    1
    23    90    92    1
    24    98    99    1
    25   101    99    1
    26    77    76    2
    27    99   100    1
    28    76    75    1
    29    78    75    1
    30    78    79    1
    31    75    74    1
    32    81    79   ar
    33    81    83   ar
    34    58    57    2
    35    79    80   ar
    36    59    60    1
    37    59    56    1
    38     3     4    2
    39     3     2    1
    40    83    84   ar
    41    61    60   ar
    42    61    63   ar
    43    60    62   ar
    44     5     2    1
    45     5     6    1
    46    57    56    1
    47     1     2    1
    48    80    82   ar
    49    63    64   ar
    50     7     6   ar
    51     7     9   ar
    52    62    64   ar
    53    22    21    2
    54    56    55    1
    55    23    21   am
    56     6     8   ar
    57    84    82   ar
    58    84    85    1
    59    21    20    1
    60     9    10   ar
    61    32    30   ar
    62    32    33   ar
    63    30    29   ar
    64    18    17    2
    65    19    20    1
    66    19    16    1
    67    73    71   ar
    68     8    10   ar
    69     8    11   ar
    70    33    35   ar
    71    33    31   ar
    72    35    37   ar
    73    45    43   ar
    74    10    12   ar
    75    29    31   ar
    76    29    28    1
    77    15    16    1
    78    17    16    1
    79    31    34   ar
    80    28    25    1
    81    71    70    1
    82    71    72   ar
    83    11    13   ar
    84    37    36   ar
    85    53    52    2
    86    43    44   ar
    87    43    42    1
    88    70    69    1
    89    34    36   ar
    90    12    14   ar
    91    42    39    1
    92    13    14   ar
    93    25    24    1
    94    25    26    1
    95    52    54   am
    96    52    51    1
    97    26    27    2
    98    69    66    1
    99    67    68    2
   100    67    66    1
   101    41    40    2
   102    66    65    1
   103    51    50    1
   104    39    40    1
   105    39    38    1
   106    50    47    1
   107    49    48    2
   108    48    47    1
   109    47    46    1
