@<TRIPOS>MOLECULE
tmp/3kzzA00.pdb
 107 101 0 0 0
SMALL
GASTEIGER

@<TRIPOS>ATOM
      1  N        -27.0700  -27.0570   -4.3370 N.3    30  PHE30      -0.1241
      2  CA       -27.3880  -28.4570   -4.5850 C.3    30  PHE30       0.1605
      3  C        -28.8500  -28.7110   -4.2220 C.2    30  PHE30       0.2264
      4  O        -29.2250  -28.6290   -3.0500 O.2    30  PHE30      -0.2867
      5  CB       -26.4700  -29.3540   -3.7500 C.3    30  PHE30       0.0534
      6  CG       -25.0390  -29.3230   -4.1950 C.ar   30  PHE30      -0.0203
      7  CD1      -24.4770  -30.4220   -4.8310 C.ar   30  PHE30      -0.0042
      8  CD2      -24.2590  -28.1850   -4.0050 C.ar   30  PHE30      -0.0042
      9  CE1      -23.1520  -30.3970   -5.2630 C.ar   30  PHE30      -0.0003
     10  CE2      -22.9430  -28.1410   -4.4400 C.ar   30  PHE30      -0.0003
     11  CZ       -22.3840  -29.2540   -5.0690 C.ar   30  PHE30      -0.0000
     12  N         -5.6740  -25.8230    5.0700 N.3    93  TYR93      -0.1241
     13  CA        -6.3280  -24.6270    5.6380 C.3    93  TYR93       0.1605
     14  C         -5.2810  -23.6050    6.0380 C.2    93  TYR93       0.2264
     15  O         -5.4610  -22.4150    5.8040 O.2    93  TYR93      -0.2867
     16  CB        -7.1850  -24.9380    6.8800 C.3    93  TYR93       0.0534
     17  CG        -8.3650  -25.8540    6.6210 C.ar   93  TYR93      -0.0201
     18  CD1       -8.3790  -27.1530    7.1510 C.ar   93  TYR93      -0.0009
     19  CD2       -9.4570  -25.4270    5.8420 C.ar   93  TYR93      -0.0009
     20  CE1       -9.4520  -28.0230    6.9050 C.ar   93  TYR93       0.0417
     21  CE2      -10.5470  -26.2800    5.5910 C.ar   93  TYR93       0.0417
     22  CZ       -10.5370  -27.5780    6.1170 C.ar   93  TYR93       0.1957
     23  OH       -11.5950  -28.4400    5.8830 O.3    93  TYR93      -0.2866
     24  N        -11.7640  -21.8450    7.8500 N.3   110  LYS110     -0.1245
     25  CA       -12.8270  -22.8530    7.8250 C.3   110  LYS110      0.1561
     26  C        -14.2020  -22.1840    7.7990 C.2   110  LYS110      0.2260
     27  O        -15.1020  -22.6290    7.0910 O.2   110  LYS110     -0.2867
     28  CB       -12.7600  -23.7720    9.0630 C.3   110  LYS110      0.0271
     29  CG       -11.5200  -24.7190    8.9720 C.3   110  LYS110      0.0035
     30  CD       -11.2630  -25.4620   10.3000 C.3   110  LYS110      0.0206
     31  CE       -10.1090  -26.4640   10.1300 C.3   110  LYS110      0.1093
     32  NZ        -9.7720  -27.1840   11.4370 N.3   110  LYS110     -0.1314
     33  N        -14.7300  -20.6980    4.2760 N.3   113  LEU113     -0.1231
     34  CA       -15.1000  -21.7630    3.3350 C.3   113  LEU113      0.1693
     35  C        -16.5290  -22.2920    3.5190 C.2   113  LEU113      0.2592
     36  O        -17.2160  -22.6300    2.5340 O.2   113  LEU113     -0.2718
     37  CB       -14.0860  -22.9280    3.3960 C.3   113  LEU113      0.0284
     38  CG       -12.6670  -22.5460    2.9800 C.3   113  LEU113      0.0019
     39  CD1      -11.7170  -23.7490    3.2590 C.3   113  LEU113      0.0001
     40  CD2      -12.5540  -22.1420    1.4920 C.3   113  LEU113      0.0001
     41  N        -16.9800  -22.3820    4.7660 N.am  114  SER114     -0.1952
     42  CA       -18.3530  -22.8160    5.0260 C.3   114  SER114      0.1924
     43  C        -19.3770  -21.8260    4.4480 C.2   114  SER114      0.2314
     44  O        -20.4850  -22.2340    4.1250 O.2   114  SER114     -0.2863
     45  CB       -18.5890  -23.0150    6.5250 C.3   114  SER114      0.2116
     46  OG       -18.8340  -21.7510    7.1230 O.3   114  SER114     -0.2180
     47  N        -18.8920  -20.2680    1.4890 N.3   116  ASN116     -0.1240
     48  CA       -18.6830  -20.1940    0.0250 C.3   116  ASN116      0.1653
     49  C        -20.0280  -20.3280   -0.7120 C.2   116  ASN116      0.2266
     50  O        -20.6750  -21.3460   -0.5740 O.2   116  ASN116     -0.2867
     51  CB       -17.7880  -21.3720   -0.4150 C.3   116  ASN116      0.1155
     52  CG       -17.4660  -21.3880   -1.9080 C.2   116  ASN116      0.2627
     53  OD1      -17.7080  -20.4290   -2.6440 O.2   116  ASN116     -0.2716
     54  ND2      -16.8850  -22.5140   -2.3620 N.am  116  ASN116     -0.0877
     55  N        -19.7380  -23.3040   -4.4980 N.3   119  PRO119     -0.2116
     56  CA       -18.9080  -24.5050   -4.3660 C.3   119  PRO119      0.1372
     57  C        -18.5750  -25.1260   -5.7270 C.2   119  PRO119      0.2244
     58  O        -19.2150  -24.7950   -6.7450 O.2   119  PRO119     -0.2868
     59  CB       -19.7570  -25.4290   -3.4790 C.3   119  PRO119      0.0268
     60  CG       -21.1680  -24.9260   -3.6270 C.3   119  PRO119      0.0207
     61  CD       -21.0360  -23.4460   -3.8080 C.3   119  PRO119      0.0892
     62  N        -13.6400  -25.2480   -2.6980 N.3   124  ALA124     -0.1245
     63  CA       -13.5000  -25.5080   -1.2440 C.3   124  ALA124      0.1562
     64  C        -13.1590  -26.9970   -0.9720 C.2   124  ALA124      0.2260
     65  O        -12.4610  -27.3430   -0.0070 O.2   124  ALA124     -0.2867
     66  CB       -14.8220  -25.0860   -0.5140 C.3   124  ALA124      0.0290
     67  N         -9.4350  -27.8490   -0.1730 N.3   127  VAL127     -0.1245
     68  CA        -8.8060  -27.3470    1.0410 C.3   127  VAL127      0.1561
     69  C         -8.9360  -28.4100    2.1470 C.2   127  VAL127      0.2260
     70  O        -10.0500  -28.7570    2.5940 O.2   127  VAL127     -0.2867
     71  CB        -9.3710  -25.9960    1.5030 C.3   127  VAL127      0.0252
     72  CG1       -8.3830  -25.3800    2.5320 C.3   127  VAL127      0.0019
     73  CG2       -9.5160  -25.0450    0.3110 C.3   127  VAL127      0.0019
     74  N        -12.7040  -31.0120    6.5670 N.3   136  GLY136     -0.1210
     75  CA       -14.1810  -30.9750    6.6970 C.3   136  GLY136      0.1956
     76  C        -14.9050  -30.4590    5.4650 C.2   136  GLY136      0.2612
     77  O        -14.2710  -30.0880    4.4640 O.2   136  GLY136     -0.2717
     78  N        -16.2410  -30.4260    5.5170 N.am  137  TYR137     -0.1962
     79  CA       -17.0230  -29.9780    4.3650 C.3   137  TYR137      0.1771
     80  C        -18.4830  -29.7120    4.7630 C.2   137  TYR137      0.2619
     81  O        -18.9830  -30.3020    5.7160 O.2   137  TYR137     -0.2715
     82  CB       -16.9840  -31.0390    3.2540 C.3   137  TYR137      0.0574
     83  CG       -17.2220  -30.5190    1.8450 C.ar  137  TYR137     -0.0198
     84  CD1      -16.2980  -29.6460    1.2430 C.ar  137  TYR137     -0.0009
     85  CD2      -18.3280  -30.9540    1.0800 C.ar  137  TYR137     -0.0009
     86  CE1      -16.4750  -29.1850   -0.0530 C.ar  137  TYR137      0.0417
     87  CE2      -18.5180  -30.4920   -0.2380 C.ar  137  TYR137      0.0417
     88  CZ       -17.5780  -29.5980   -0.7950 C.ar  137  TYR137      0.1957
     89  OH       -17.6980  -29.1200   -2.0940 O.3   137  TYR137     -0.2866
     90  N        -19.1630  -28.8370    4.0340 N.am  138  GLU138     -0.1977
     91  CA       -20.5830  -28.5800    4.3340 C.3   138  GLU138      0.1602
     92  C        -21.4280  -29.7180    3.7800 C.2   138  GLU138      0.2287
     93  O        -21.3660  -30.0150    2.5770 O.2   138  GLU138     -0.2864
     94  CB       -21.0260  -27.2260    3.7930 C.3   138  GLU138      0.0415
     95  CG       -20.3730  -26.0610    4.5260 C.3   138  GLU138      0.1163
     96  CD       -20.5570  -26.1730    6.0300 C.2   138  GLU138      0.3649
     97  OE1      -21.7210  -26.2960    6.4650 O.co2 138  GLU138     -0.2457
     98  OE2      -19.5520  -26.1730    6.7760 O.co2 138  GLU138     -0.2457
     99  N        -17.1470  -34.1350   -0.9050 N.3   144  LYS144     -0.1245
    100  CA       -15.7520  -33.6330   -0.9570 C.3   144  LYS144      0.1561
    101  C        -14.7940  -34.6980   -1.5080 C.2   144  LYS144      0.2260
    102  O        -13.9810  -34.4270   -2.4160 O.2   144  LYS144     -0.2867
    103  CB       -15.2970  -33.1100    0.4060 C.3   144  LYS144      0.0271
    104  CG       -13.8470  -32.4620    0.3790 C.3   144  LYS144      0.0035
    105  CD       -13.4500  -32.0750    1.8190 C.3   144  LYS144      0.0206
    106  CE       -12.2210  -31.1440    1.8310 C.3   144  LYS144      0.1093
    107  NZ       -11.9360  -30.5970    3.2280 N.3   144  LYS144     -0.1314
@<TRIPOS>BOND
     1    58    57    2
     2    57    56    1
     3     9    11   ar
     4     9     7   ar
     5    11    10   ar
     6     7     6   ar
     7     2     1    1
     8     2     3    1
     9     2     5    1
    10    55    56    1
    11    55    61    1
    12    10     8   ar
    13    56    59    1
    14     3     4    2
    15     6     8   ar
    16     6     5    1
    17    61    60    1
    18    60    59    1
    19    62    63    1
    20    53    52    2
    21   102   101    2
    22    54    52   am
    23    89    88    1
    24    52    51    1
    25   101   100    1
    26    63    64    1
    27    63    66    1
    28    64    65    2
    29   100    99    1
    30   100   103    1
    31    88    87   ar
    32    88    86   ar
    33    49    50    2
    34    49    48    1
    35    51    48    1
    36    87    85   ar
    37    67    68    1
    38    86    84   ar
    39    48    47    1
    40    73    71    1
    41   104   103    1
    42   104   105    1
    43    68    71    1
    44    68    69    1
    45    85    83   ar
    46    84    83   ar
    47    40    38    1
    48    71    72    1
    49   105   106    1
    50   106   107    1
    51    83    82    1
    52    69    70    2
    53    36    35    2
    54    93    92    2
    55    38    39    1
    56    38    37    1
    57    82    79    1
    58    34    37    1
    59    34    35    1
    60    34    33    1
    61    35    41   am
    62    92    91    1
    63    94    91    1
    64    94    95    1
    65    90    91    1
    66    90    80   am
    67    44    43    2
    68    79    80    1
    69    79    78    1
    70    43    42    1
    71    77    76    2
    72    95    96    1
    73    80    81    2
    74    41    42    1
    75    42    45    1
    76    12    13    1
    77    76    78   am
    78    76    75    1
    79    21    19   ar
    80    21    22   ar
    81    13    14    1
    82    13    16    1
    83    15    14    2
    84    19    17   ar
    85    23    22    1
    86    96    97   ar
    87    96    98   ar
    88    22    20   ar
    89    45    46    1
    90    74    75    1
    91    17    16    1
    92    17    18   ar
    93    20    18   ar
    94    27    26    2
    95    26    25    1
    96    25    24    1
    97    25    28    1
    98    29    28    1
    99    29    30    1
   100    31    30    1
   101    31    32    1
