@<TRIPOS>MOLECULE
tmp/3l01A00.pdb
 105 105 0 0 0
SMALL
GASTEIGER

@<TRIPOS>ATOM
      1  N         15.9490  -24.7940   -0.5290 N.3   159  LYS159     -0.1245
      2  CA        15.6170  -24.0860    0.7060 C.3   159  LYS159      0.1561
      3  C         16.7700  -23.3370    1.2980 C.2   159  LYS159      0.2260
      4  O         17.9150  -23.6870    1.0820 O.2   159  LYS159     -0.2867
      5  CB        15.1160  -25.0610    1.7470 C.3   159  LYS159      0.0271
      6  CG        13.7920  -25.6400    1.3750 C.3   159  LYS159      0.0035
      7  CD        13.2510  -26.5040    2.4810 C.3   159  LYS159      0.0206
      8  CE        11.9650  -27.1700    2.0340 C.3   159  LYS159      0.1093
      9  NZ        11.6480  -28.2500    2.9890 N.3   159  LYS159     -0.1314
     10  N          9.2230  -13.1480   10.9080 N.3   172  GLU172     -0.1231
     11  CA         7.8700  -13.6340   10.7840 C.3   172  GLU172      0.1699
     12  C          7.7250  -14.5510    9.5690 C.2   172  GLU172      0.2592
     13  O          6.7980  -15.3380    9.5300 O.2   172  GLU172     -0.2718
     14  CB         6.8980  -12.4480   10.6950 C.3   172  GLU172      0.0402
     15  CG         6.8800  -11.6780    9.3310 C.3   172  GLU172      0.1161
     16  CD         8.0170  -10.6660    9.1390 C.2   172  GLU172      0.3649
     17  OE1        8.8790  -10.5300   10.0260 O.co2 172  GLU172     -0.2457
     18  OE2        8.0670  -10.0070    8.0700 O.co2 172  GLU172     -0.2457
     19  N          8.6050  -14.4570    8.5710 N.am  173  LEU173     -0.1980
     20  CA         8.4960  -15.3300    7.4000 C.3   173  LEU173      0.1596
     21  C          9.3160  -16.6040    7.5920 C.2   173  LEU173      0.2287
     22  O          9.4780  -17.4220    6.6820 O.2   173  LEU173     -0.2864
     23  CB         8.9430  -14.5970    6.1320 C.3   173  LEU173      0.0297
     24  CG         8.1200  -13.3410    5.8030 C.3   173  LEU173      0.0022
     25  CD1        8.6380  -12.6310    4.5850 C.3   173  LEU173      0.0001
     26  CD2        6.6510  -13.7050    5.6180 C.3   173  LEU173      0.0001
     27  N          9.0570  -19.3400   10.0660 N.3   175  PRO175     -0.2102
     28  CA         8.6500  -20.1420   11.2160 C.3   175  PRO175      0.1504
     29  C          9.2180  -21.5580   11.2350 C.2   175  PRO175      0.2576
     30  O          8.7460  -22.3530   12.0200 O.2   175  PRO175     -0.2718
     31  CB         7.1490  -20.2300   11.0360 C.3   175  PRO175      0.0282
     32  CG         6.9650  -20.2350    9.5270 C.3   175  PRO175      0.0208
     33  CD         8.0730  -19.3790    8.9670 C.3   175  PRO175      0.0893
     34  N         10.1790  -21.8850   10.3660 N.am  176  TYR176     -0.1963
     35  CA        10.8180  -23.1970   10.3970 C.3   176  TYR176      0.1756
     36  C         12.3000  -23.0830   10.1870 C.2   176  TYR176      0.2461
     37  O         12.7750  -22.1110    9.6220 O.2   176  TYR176     -0.2730
     38  CB        10.2930  -24.0920    9.2920 C.3   176  TYR176      0.0574
     39  CG         8.8180  -24.1360    9.2100 C.ar  176  TYR176     -0.0198
     40  CD1        8.1580  -23.6250    8.1130 C.ar  176  TYR176     -0.0009
     41  CD2        8.0840  -24.6990   10.2260 C.ar  176  TYR176     -0.0009
     42  CE1        6.8010  -23.6710    8.0310 C.ar  176  TYR176      0.0417
     43  CE2        6.7190  -24.7560   10.1650 C.ar  176  TYR176      0.0417
     44  CZ         6.0910  -24.2400    9.0650 C.ar  176  TYR176      0.1957
     45  OH         4.7390  -24.2840    9.0080 O.3   176  TYR176     -0.2866
     46  N         13.0360  -24.1210   10.5840 N.am  177  PRO177     -0.2716
     47  CA        14.4800  -24.0360   10.4580 C.3   177  PRO177      0.1536
     48  C         14.9350  -23.8090    9.0200 C.2   177  PRO177      0.2599
     49  O         16.0200  -23.3100    8.7980 O.2   177  PRO177     -0.2715
     50  CB        14.9630  -25.3880   11.0040 C.3   177  PRO177      0.0310
     51  CG        13.8480  -25.8950   11.8360 C.3   177  PRO177      0.0237
     52  CD        12.6020  -25.3820   11.2060 C.3   177  PRO177      0.0939
     53  N         14.1050  -24.1730    8.0550 N.am  178  ASP178     -0.1958
     54  CA        14.4690  -24.0510    6.6350 C.3   178  ASP178      0.1840
     55  C         13.2540  -23.6900    5.8330 C.2   178  ASP178      0.2622
     56  O         12.1740  -24.2180    6.0790 O.2   178  ASP178     -0.2715
     57  CB        15.0030  -25.3710    6.0870 C.3   178  ASP178      0.1450
     58  CG        16.2910  -25.7850    6.7370 C.2   178  ASP178      0.3671
     59  OD1       17.3360  -25.2110    6.3720 O.co2 178  ASP178     -0.2456
     60  OD2       16.2530  -26.6800    7.6030 O.co2 178  ASP178     -0.2456
     61  N         13.4600  -22.8350    4.8350 N.am  179  ILE179     -0.1963
     62  CA        12.3890  -22.0970    4.2090 C.3   179  ILE179      0.1727
     63  C         12.6640  -22.0250    2.7450 C.2   179  ILE179      0.2616
     64  O         13.7420  -21.6670    2.3440 O.2   179  ILE179     -0.2715
     65  CB        12.3790  -20.6370    4.7170 C.3   179  ILE179      0.0290
     66  CG1       11.9940  -20.5700    6.1910 C.3   179  ILE179      0.0022
     67  CG2       11.4400  -19.7660    3.8950 C.3   179  ILE179      0.0023
     68  CD1       10.6380  -21.1590    6.4760 C.3   179  ILE179      0.0001
     69  N         11.6720  -22.3730    1.9450 N.am  180  ASP180     -0.1971
     70  CA        11.7580  -22.2420    0.5060 C.3   180  ASP180      0.1709
     71  C         11.4810  -20.7960    0.1380 C.2   180  ASP180      0.2293
     72  O         10.3690  -20.3250    0.3270 O.2   180  ASP180     -0.2864
     73  CB        10.7110  -23.1420   -0.1360 C.3   180  ASP180      0.1436
     74  CG        10.6530  -23.0050   -1.6430 C.2   180  ASP180      0.3671
     75  OD1       11.1200  -21.9940   -2.2140 O.co2 180  ASP180     -0.2456
     76  OD2       10.1020  -23.9290   -2.2660 O.co2 180  ASP180     -0.2456
     77  N          8.6140  -20.1210   -2.2140 N.3   183  HIS183     -0.1226
     78  CA         7.3440  -20.2690   -1.5390 C.3   183  HIS183      0.1752
     79  C          7.0070  -19.0260   -0.6970 C.2   183  HIS183      0.2596
     80  O          5.8340  -18.6150   -0.5510 O.2   183  HIS183     -0.2718
     81  CB         7.3630  -21.5060   -0.6450 C.3   183  HIS183      0.0759
     82  CG         5.9910  -21.9770   -0.2550 C.ar  183  HIS183      0.0818
     83  ND1        5.6440  -23.3130   -0.2000 N.ar  183  HIS183     -0.2268
     84  CD2        4.8750  -21.2830    0.0700 C.ar  183  HIS183      0.1154
     85  CE1        4.3770  -23.4170    0.1620 C.ar  183  HIS183      0.1986
     86  NE2        3.8880  -22.2010    0.3290 N.ar  183  HIS183     -0.2212
     87  N          8.0430  -18.4480   -0.1030 N.am  184  THR184     -0.1953
     88  CA         7.8750  -17.2260    0.6360 C.3   184  THR184      0.1897
     89  C          7.4150  -16.1020   -0.3050 C.2   184  THR184      0.2313
     90  O          6.5520  -15.3040    0.0530 O.2   184  THR184     -0.2863
     91  CB         9.1900  -16.8430    1.2700 C.3   184  THR184      0.1794
     92  OG1        9.5570  -17.8520    2.2010 O.3   184  THR184     -0.2208
     93  CG2        9.0780  -15.5290    1.9850 C.3   184  THR184      0.0378
     94  N          4.0450  -16.4640   -1.2560 N.3   187  TYR187     -0.1241
     95  CA         3.2410  -16.3070   -0.0860 C.3   187  TYR187      0.1605
     96  C          2.9090  -14.8600    0.2670 C.2   187  TYR187      0.2264
     97  O          1.7650  -14.5620    0.6140 O.2   187  TYR187     -0.2867
     98  CB         3.9460  -16.9270    1.0910 C.3   187  TYR187      0.0534
     99  CG         3.2330  -16.6400    2.3720 C.ar  187  TYR187     -0.0201
    100  CD1        2.0560  -17.2820    2.6680 C.ar  187  TYR187     -0.0009
    101  CD2        3.7340  -15.7210    3.2780 C.ar  187  TYR187     -0.0009
    102  CE1        1.3960  -17.0530    3.8500 C.ar  187  TYR187      0.0417
    103  CE2        3.0810  -15.4760    4.4520 C.ar  187  TYR187      0.0417
    104  CZ         1.9060  -16.1580    4.7240 C.ar  187  TYR187      0.1957
    105  OH         1.2390  -15.9440    5.8720 O.3   187  TYR187     -0.2866
@<TRIPOS>BOND
     1    76    74   ar
     2    75    74   ar
     3    77    78    1
     4    74    73    1
     5    78    79    1
     6    78    81    1
     7    94    95    1
     8    79    80    2
     9    79    87   am
    10    81    82    1
    11     1     2    1
    12    89    90    2
    13    89    88    1
    14    82    83   ar
    15    82    84   ar
    16    83    85   ar
    17    73    70    1
    18    87    88    1
    19    95    96    1
    20    95    98    1
    21    84    86   ar
    22    71    72    2
    23    71    70    1
    24    85    86   ar
    25    96    97    2
    26    70    69    1
    27    88    91    1
    28     2     3    1
    29     2     5    1
    30     4     3    2
    31    98    99    1
    32    91    93    1
    33    91    92    1
    34     6     5    1
    35     6     7    1
    36    69    63   am
    37     8     7    1
    38     8     9    1
    39    64    63    2
    40    99   100   ar
    41    99   101   ar
    42   100   102   ar
    43    63    62    1
    44   101   103   ar
    45   102   104   ar
    46    67    65    1
    47    62    65    1
    48    62    61    1
    49   103   104   ar
    50    25    24    1
    51    65    66    1
    52   104   105    1
    53    61    55   am
    54    26    24    1
    55    24    23    1
    56    55    56    2
    57    55    54    1
    58    57    54    1
    59    57    58    1
    60    23    20    1
    61    66    68    1
    62    59    58   ar
    63    54    53    1
    64    22    21    2
    65    58    60   ar
    66    20    21    1
    67    20    19    1
    68    42    40   ar
    69    42    44   ar
    70    53    48   am
    71    18    16   ar
    72    40    39   ar
    73    19    12   am
    74    49    48    2
    75    33    32    1
    76    33    27    1
    77    45    44    1
    78    48    47    1
    79    44    43   ar
    80    16    15    1
    81    16    17   ar
    82    39    38    1
    83    39    41   ar
    84    38    35    1
    85    15    14    1
    86    32    31    1
    87    13    12    2
    88    12    11    1
    89    37    36    2
    90    27    28    1
    91    43    41   ar
    92    36    35    1
    93    36    46   am
    94    34    35    1
    95    34    29   am
    96    47    46    1
    97    47    50    1
    98    46    52    1
    99    14    11    1
   100    11    10    1
   101    50    51    1
   102    31    28    1
   103    52    51    1
   104    28    29    1
   105    29    30    2
