@<TRIPOS>MOLECULE
tmp/3l06A01.pdb
 121 117 0 0 0
SMALL
GASTEIGER

@<TRIPOS>ATOM
      1  N        105.3270   35.6140   85.5190 N.3    46  PRO46      -0.2102
      2  CA       105.7270   35.9640   86.8880 C.3    46  PRO46       0.1504
      3  C        105.4130   37.4010   87.2790 C.2    46  PRO46       0.2576
      4  O        105.2190   38.2590   86.4330 O.2    46  PRO46      -0.2718
      5  CB       107.2370   35.6940   86.8930 C.3    46  PRO46       0.0282
      6  CG       107.4300   34.7150   85.7600 C.3    46  PRO46       0.0208
      7  CD       106.5070   35.2550   84.7150 C.3    46  PRO46       0.0893
      8  N        105.3860   37.6580   88.5780 N.am   47  SER47      -0.1938
      9  CA       105.1030   38.9910   89.0880 C.3    47  SER47       0.2055
     10  C        105.3270   39.0730   90.5860 C.2    47  SER47       0.2643
     11  O        105.0290   38.1370   91.3350 O.2    47  SER47      -0.2714
     12  CB       103.6520   39.3820   88.7900 C.3    47  SER47       0.2130
     13  OG       103.3220   40.6060   89.4220 O.3    47  SER47      -0.2179
     14  N        105.8620   40.1970   91.0220 N.am   48  MET48      -0.1962
     15  CA       106.0680   40.3910   92.4390 C.3    48  MET48       0.1736
     16  C        105.3480   41.6680   92.8240 C.2    48  MET48       0.2616
     17  O        104.3930   41.6310   93.6050 O.2    48  MET48      -0.2715
     18  CB       107.5590   40.5020   92.7750 C.3    48  MET48       0.0427
     19  CG       107.8700   40.4980   94.2760 C.3    48  MET48       0.0599
     20  SD       107.3890   42.0050   95.1370 S.3    48  MET48      -0.1393
     21  CE       108.9200   42.9120   95.0770 C.3    48  MET48       0.0692
     22  N        105.7930   42.7880   92.2620 N.am   49  ARG49      -0.1963
     23  CA       105.1900   44.0800   92.5720 C.3    49  ARG49       0.1729
     24  C        103.7010   44.1400   92.2470 C.2    49  ARG49       0.2616
     25  O        102.8770   44.5100   93.0880 O.2    49  ARG49      -0.2715
     26  CB       105.9180   45.1950   91.8200 C.3    49  ARG49       0.0348
     27  CG       107.2080   45.6830   92.4880 C.3    49  ARG49       0.0492
     28  CD       108.2370   46.0960   91.4300 C.3    49  ARG49       0.2205
     29  NE       108.6690   44.9180   90.7010 N.pl3  49  ARG49      -0.0865
     30  CZ       109.5900   44.0830   91.1510 C.cat  49  ARG49       0.5346
     31  NH1      110.1750   44.3330   92.3130 N.pl3  49  ARG49       0.1354
     32  NH2      109.8790   42.9780   90.4730 N.pl3  49  ARG49       0.1354
     33  N        103.3630   43.7680   91.0220 N.am   50  THR50      -0.1951
     34  CA       101.9910   43.8020   90.5700 C.3    50  THR50       0.1897
     35  C        101.0950   42.9360   91.4360 C.2    50  THR50       0.2313
     36  O        100.0710   43.3870   91.9400 O.2    50  THR50      -0.2863
     37  CB       101.9090   43.3380   89.1160 C.3    50  THR50       0.1794
     38  OG1      102.7800   44.1540   88.3150 O.3    50  THR50      -0.2208
     39  CG2      100.4700   43.4250   88.6010 C.3    50  THR50       0.0378
     40  N         97.5420   39.6250   83.1060 N.3   110  ARG110     -0.1245
     41  CA        98.9550   39.7890   82.7860 C.3   110  ARG110      0.1563
     42  C         99.3730   38.6840   81.8400 C.2   110  ARG110      0.2260
     43  O         99.3130   37.4940   82.1800 O.2   110  ARG110     -0.2867
     44  CB        99.7970   39.6900   84.0570 C.3   110  ARG110      0.0307
     45  CG       101.2870   39.4860   83.8230 C.3   110  ARG110      0.0489
     46  CD       102.0250   40.7400   84.1250 C.3   110  ARG110      0.2205
     47  NE       103.2770   40.4870   84.8140 N.pl3 110  ARG110     -0.0865
     48  CZ       103.9300   41.4060   85.5210 C.cat 110  ARG110      0.5346
     49  NH1      103.4320   42.6340   85.6360 N.pl3 110  ARG110      0.1354
     50  NH2      105.0970   41.1010   86.0860 N.pl3 110  ARG110      0.1354
     51  N        102.5460   38.3780   78.9800 N.3   112  PHE112     -0.1241
     52  CA       103.6300   38.8640   78.1360 C.3   112  PHE112      0.1605
     53  C        103.5000   38.2130   76.7780 C.2   112  PHE112      0.2264
     54  O        102.8990   37.1540   76.6470 O.2   112  PHE112     -0.2867
     55  CB       104.9900   38.4870   78.7260 C.3   112  PHE112      0.0534
     56  CG       105.2520   39.0720   80.0770 C.ar  112  PHE112     -0.0203
     57  CD1      104.4250   40.0710   80.5990 C.ar  112  PHE112     -0.0042
     58  CD2      106.3440   38.6520   80.8210 C.ar  112  PHE112     -0.0042
     59  CE1      104.6860   40.6430   81.8420 C.ar  112  PHE112     -0.0003
     60  CE2      106.6180   39.2210   82.0700 C.ar  112  PHE112     -0.0003
     61  CZ       105.7870   40.2190   82.5830 C.ar  112  PHE112     -0.0000
     62  N         99.8220   44.3500   82.4570 N.3   142  GLU142     -0.1245
     63  CA       100.9450   44.2950   81.5260 C.3   142  GLU142      0.1567
     64  C        100.8550   43.2010   80.4790 C.2   142  GLU142      0.2260
     65  O        100.7220   42.0180   80.7940 O.2   142  GLU142     -0.2867
     66  CB       102.3060   44.1580   82.2200 C.3   142  GLU142      0.0388
     67  CG       103.4420   44.3460   81.2100 C.3   142  GLU142      0.1160
     68  CD       104.7850   43.8950   81.7140 C.2   142  GLU142      0.3649
     69  OE1      105.7810   44.0540   80.9750 O.co2 142  GLU142     -0.2457
     70  OE2      104.8500   43.3750   82.8450 O.co2 142  GLU142     -0.2457
     71  N        102.1700   48.5490   79.6600 N.3   146  HIS146     -0.1241
     72  CA       102.0590   48.4600   81.1090 C.3   146  HIS146      0.1621
     73  C        101.4310   49.7620   81.6160 C.2   146  HIS146      0.2264
     74  O        102.1010   50.5750   82.2690 O.2   146  HIS146     -0.2867
     75  CB       103.4630   48.3000   81.6990 C.3   146  HIS146      0.0745
     76  CG       103.4940   47.6600   83.0510 C.ar  146  HIS146      0.0817
     77  ND1      102.4180   47.6750   83.9100 N.ar  146  HIS146     -0.2268
     78  CD2      104.4770   46.9810   83.6880 C.ar  146  HIS146      0.1154
     79  CE1      102.7350   47.0270   85.0160 C.ar  146  HIS146      0.1986
     80  NE2      103.9780   46.5960   84.9070 N.ar  146  HIS146     -0.2212
     81  N        101.9430   50.7410   85.4400 N.3   149  GLN149     -0.1245
     82  CA       103.2710   51.2250   85.7410 C.3   149  GLN149      0.1566
     83  C        103.4270   52.6930   85.3360 C.2   149  GLN149      0.2260
     84  O        104.1100   53.4540   86.0160 O.2   149  GLN149     -0.2867
     85  CB       104.3060   50.3760   85.0070 C.3   149  GLN149      0.0367
     86  CG       105.7460   50.6950   85.3640 C.3   149  GLN149      0.0905
     87  CD       106.1460   50.1370   86.7140 C.2   149  GLN149      0.2608
     88  OE1      106.0710   48.9300   86.9460 O.2   149  GLN149     -0.2717
     89  NE2      106.5800   51.0120   87.6100 N.am  149  GLN149     -0.0878
     90  N        111.3030   50.1510   86.0930 N.3   292  CYS292     -0.1221
     91  CA       110.1040   49.4710   86.5640 C.3   292  CYS292      0.1808
     92  C        110.4010   48.3360   87.5470 C.2   292  CYS292      0.2601
     93  O        109.5750   48.0080   88.3910 O.2   292  CYS292     -0.2717
     94  CB       109.3230   48.9040   85.3720 C.3   292  CYS292      0.0970
     95  SG       110.2490   47.7350   84.3190 S.3   292  CYS292     -0.0800
     96  N        111.5870   47.7510   87.4400 N.am  293  LEU293     -0.1966
     97  CA       111.9730   46.6190   88.2700 C.3   293  LEU293      0.1713
     98  C        111.1550   45.4580   87.7290 C.2   293  LEU293      0.2458
     99  O        110.1100   45.6770   87.1350 O.2   293  LEU293     -0.2730
    100  CB       111.6160   46.8790   89.7260 C.3   293  LEU293      0.0310
    101  CG       112.0050   48.2410   90.3140 C.3   293  LEU293      0.0022
    102  CD1      111.4760   48.3480   91.7480 C.3   293  LEU293      0.0001
    103  CD2      113.5140   48.4120   90.2920 C.3   293  LEU293      0.0001
    104  N        111.6250   44.2130   87.8890 N.am  294  PRO294     -0.2727
    105  CA       112.8660   43.7730   88.5360 C.3   294  PRO294      0.1402
    106  C        114.0650   44.1600   87.7030 C.2   294  PRO294      0.2269
    107  O        114.1000   43.9240   86.5000 O.2   294  PRO294     -0.2865
    108  CB       112.7040   42.2560   88.6100 C.3   294  PRO294      0.0296
    109  CG       111.9370   41.9630   87.3600 C.3   294  PRO294      0.0237
    110  CD       110.8720   43.0520   87.3780 C.3   294  PRO294      0.0939
    111  N        102.8100   52.1870   92.6950 N.3   319  ARG319     -0.1245
    112  CA       102.0230   51.1880   91.9910 C.3   319  ARG319      0.1563
    113  C        100.8020   50.7860   92.8290 C.2   319  ARG319      0.2260
    114  O         99.7400   50.4720   92.2950 O.2   319  ARG319     -0.2867
    115  CB       102.8930   49.9590   91.6930 C.3   319  ARG319      0.0307
    116  CG       103.7880   50.0940   90.4620 C.3   319  ARG319      0.0489
    117  CD       102.9620   50.1440   89.1570 C.3   319  ARG319      0.2205
    118  NE       102.2590   48.8870   88.8920 N.pl3 319  ARG319     -0.0865
    119  CZ       102.8460   47.7540   88.5010 C.cat 319  ARG319      0.5346
    120  NH1      104.1580   47.7070   88.3120 N.pl3 319  ARG319      0.1354
    121  NH2      102.1270   46.6530   88.3290 N.pl3 319  ARG319      0.1354
@<TRIPOS>BOND
     1    54    53    2
     2    53    52    1
     3    52    55    1
     4    52    51    1
     5    55    56    1
     6    71    72    1
     7    56    57   ar
     8    56    58   ar
     9    64    65    2
    10    64    63    1
    11    57    59   ar
    12    58    60   ar
    13    69    68   ar
    14    72    73    1
    15    72    75    1
    16    67    68    1
    17    67    66    1
    18    63    66    1
    19    63    62    1
    20    73    74    2
    21    75    76    1
    22    68    70   ar
    23    42    43    2
    24    42    41    1
    25    59    61   ar
    26    60    61   ar
    27    41    40    1
    28    41    44    1
    29    76    78   ar
    30    76    77   ar
    31    78    80   ar
    32    45    44    1
    33    45    46    1
    34    77    79   ar
    35    46    47    1
    36    95    94    1
    37     7     1    1
    38     7     6    1
    39    47    48    2
    40    80    79   ar
    41    85    86    1
    42    85    82    1
    43    83    82    1
    44    83    84    2
    45    86    87    1
    46    94    91    1
    47    81    82    1
    48     1     2    1
    49    48    49    1
    50    48    50    1
    51     6     5    1
    52    90    91    1
    53     4     3    2
    54   107   106    2
    55    91    92    1
    56    87    88    2
    57    87    89   am
    58     2     5    1
    59     2     3    1
    60    99    98    2
    61     3     8   am
    62   109   110    1
    63   109   108    1
    64   110   104    1
    65    96    92   am
    66    96    97    1
    67    92    93    2
    68   106   105    1
    69    98   104   am
    70    98    97    1
    71   104   105    1
    72    97   100    1
    73   120   119    1
    74    38    37    1
    75   121   119    1
    76   119   118    2
    77   105   108    1
    78     8     9    1
    79    39    37    1
    80    12     9    1
    81    12    13    1
    82   118   117    1
    83     9    10    1
    84    37    34    1
    85   117   116    1
    86   100   101    1
    87   103   101    1
    88   101   102    1
    89   116   115    1
    90    32    30    1
    91    34    33    1
    92    34    35    1
    93    10    14   am
    94    10    11    2
    95    29    30    2
    96    29    28    1
    97    33    24   am
    98    14    15    1
    99    30    31    1
   100    28    27    1
   101    35    36    2
   102   115   112    1
   103    26    27    1
   104    26    23    1
   105   112   111    1
   106   112   113    1
   107    24    23    1
   108    24    25    2
   109    22    23    1
   110    22    16   am
   111   114   113    2
   112    15    18    1
   113    15    16    1
   114    18    19    1
   115    16    17    2
   116    19    20    1
   117    21    20    1
