@<TRIPOS>MOLECULE
tmp/3l06A00.pdb
 161 153 0 0 0
SMALL
GASTEIGER

@<TRIPOS>ATOM
      1  N        105.7930   42.7880   92.2620 N.3    49  ARG49      -0.1245
      2  CA       105.1900   44.0800   92.5720 C.3    49  ARG49       0.1563
      3  C        103.7010   44.1400   92.2470 C.2    49  ARG49       0.2260
      4  O        102.8770   44.5100   93.0880 O.2    49  ARG49      -0.2867
      5  CB       105.9180   45.1950   91.8200 C.3    49  ARG49       0.0307
      6  CG       107.2080   45.6830   92.4880 C.3    49  ARG49       0.0489
      7  CD       108.2370   46.0960   91.4300 C.3    49  ARG49       0.2205
      8  NE       108.6690   44.9180   90.7010 N.pl3  49  ARG49      -0.0865
      9  CZ       109.5900   44.0830   91.1510 C.cat  49  ARG49       0.5346
     10  NH1      110.1750   44.3330   92.3130 N.pl3  49  ARG49       0.1354
     11  NH2      109.8790   42.9780   90.4730 N.pl3  49  ARG49       0.1354
     12  N         97.5420   39.6250   83.1060 N.3   110  ARG110     -0.1245
     13  CA        98.9550   39.7890   82.7860 C.3   110  ARG110      0.1563
     14  C         99.3730   38.6840   81.8400 C.2   110  ARG110      0.2260
     15  O         99.3130   37.4940   82.1800 O.2   110  ARG110     -0.2867
     16  CB        99.7970   39.6900   84.0570 C.3   110  ARG110      0.0307
     17  CG       101.2870   39.4860   83.8230 C.3   110  ARG110      0.0489
     18  CD       102.0250   40.7400   84.1250 C.3   110  ARG110      0.2205
     19  NE       103.2770   40.4870   84.8140 N.pl3 110  ARG110     -0.0865
     20  CZ       103.9300   41.4060   85.5210 C.cat 110  ARG110      0.5346
     21  NH1      103.4320   42.6340   85.6360 N.pl3 110  ARG110      0.1354
     22  NH2      105.0970   41.1010   86.0860 N.pl3 110  ARG110      0.1354
     23  N        102.5460   38.3780   78.9800 N.3   112  PHE112     -0.1241
     24  CA       103.6300   38.8640   78.1360 C.3   112  PHE112      0.1605
     25  C        103.5000   38.2130   76.7780 C.2   112  PHE112      0.2264
     26  O        102.8990   37.1540   76.6470 O.2   112  PHE112     -0.2867
     27  CB       104.9900   38.4870   78.7260 C.3   112  PHE112      0.0534
     28  CG       105.2520   39.0720   80.0770 C.ar  112  PHE112     -0.0203
     29  CD1      104.4250   40.0710   80.5990 C.ar  112  PHE112     -0.0042
     30  CD2      106.3440   38.6520   80.8210 C.ar  112  PHE112     -0.0042
     31  CE1      104.6860   40.6430   81.8420 C.ar  112  PHE112     -0.0003
     32  CE2      106.6180   39.2210   82.0700 C.ar  112  PHE112     -0.0003
     33  CZ       105.7870   40.2190   82.5830 C.ar  112  PHE112     -0.0000
     34  N         99.8220   44.3500   82.4570 N.3   142  GLU142     -0.1245
     35  CA       100.9450   44.2950   81.5260 C.3   142  GLU142      0.1567
     36  C        100.8550   43.2010   80.4790 C.2   142  GLU142      0.2260
     37  O        100.7220   42.0180   80.7940 O.2   142  GLU142     -0.2867
     38  CB       102.3060   44.1580   82.2200 C.3   142  GLU142      0.0388
     39  CG       103.4420   44.3460   81.2100 C.3   142  GLU142      0.1160
     40  CD       104.7850   43.8950   81.7140 C.2   142  GLU142      0.3649
     41  OE1      105.7810   44.0540   80.9750 O.co2 142  GLU142     -0.2457
     42  OE2      104.8500   43.3750   82.8450 O.co2 142  GLU142     -0.2457
     43  N        102.1700   48.5490   79.6600 N.3   146  HIS146     -0.1241
     44  CA       102.0590   48.4600   81.1090 C.3   146  HIS146      0.1621
     45  C        101.4310   49.7620   81.6160 C.2   146  HIS146      0.2264
     46  O        102.1010   50.5750   82.2690 O.2   146  HIS146     -0.2867
     47  CB       103.4630   48.3000   81.6990 C.3   146  HIS146      0.0745
     48  CG       103.4940   47.6600   83.0510 C.ar  146  HIS146      0.0817
     49  ND1      102.4180   47.6750   83.9100 N.ar  146  HIS146     -0.2268
     50  CD2      104.4770   46.9810   83.6880 C.ar  146  HIS146      0.1154
     51  CE1      102.7350   47.0270   85.0160 C.ar  146  HIS146      0.1986
     52  NE2      103.9780   46.5960   84.9070 N.ar  146  HIS146     -0.2212
     53  N        101.9430   50.7410   85.4400 N.3   149  GLN149     -0.1245
     54  CA       103.2710   51.2250   85.7410 C.3   149  GLN149      0.1566
     55  C        103.4270   52.6930   85.3360 C.2   149  GLN149      0.2260
     56  O        104.1100   53.4540   86.0160 O.2   149  GLN149     -0.2867
     57  CB       104.3060   50.3760   85.0070 C.3   149  GLN149      0.0367
     58  CG       105.7460   50.6950   85.3640 C.3   149  GLN149      0.0905
     59  CD       106.1460   50.1370   86.7140 C.2   149  GLN149      0.2608
     60  OE1      106.0710   48.9300   86.9460 O.2   149  GLN149     -0.2717
     61  NE2      106.5800   51.0120   87.6100 N.am  149  GLN149     -0.0878
     62  N        120.7700   43.6330   78.3930 N.3   178  HIS178     -0.1241
     63  CA       120.2080   42.4620   79.0610 C.3   178  HIS178      0.1621
     64  C        120.5410   41.2270   78.2210 C.2   178  HIS178      0.2264
     65  O        120.1880   41.1520   77.0390 O.2   178  HIS178     -0.2867
     66  CB       118.6830   42.5630   79.2330 C.3   178  HIS178      0.0745
     67  CG       118.0840   41.4040   79.9810 C.ar  178  HIS178      0.0817
     68  ND1      118.2740   40.0910   79.6000 N.ar  178  HIS178     -0.2268
     69  CD2      117.3190   41.3610   81.0990 C.ar  178  HIS178      0.1154
     70  CE1      117.6530   39.2920   80.4500 C.ar  178  HIS178      0.1986
     71  NE2      117.0650   40.0370   81.3680 N.ar  178  HIS178     -0.2212
     72  N        113.9130   41.2830   76.0040 N.3   182  LEU182     -0.1231
     73  CA       112.7140   41.3910   76.8280 C.3   182  LEU182      0.1693
     74  C        111.5710   42.1470   76.1620 C.2   182  LEU182      0.2592
     75  O        111.7310   42.7460   75.0970 O.2   182  LEU182     -0.2718
     76  CB       113.0550   42.0560   78.1720 C.3   182  LEU182      0.0284
     77  CG       114.2590   41.5370   78.9900 C.3   182  LEU182      0.0019
     78  CD1      114.3930   42.3580   80.2600 C.3   182  LEU182      0.0001
     79  CD2      114.1010   40.0590   79.3270 C.3   182  LEU182      0.0001
     80  N        110.4150   42.0980   76.8150 N.am  183  ASN183     -0.1974
     81  CA       109.1830   42.7450   76.3760 C.3   183  ASN183      0.1688
     82  C        109.3900   44.2450   76.1480 C.2   183  ASN183      0.2292
     83  O        110.1450   44.8890   76.8770 O.2   183  ASN183     -0.2864
     84  CB       108.1240   42.5310   77.4540 C.3   183  ASN183      0.1181
     85  CG       106.7300   42.7800   76.9590 C.2   183  ASN183      0.2629
     86  OD1      106.5250   43.1900   75.8160 O.2   183  ASN183     -0.2716
     87  ND2      105.7480   42.5310   77.8210 N.am  183  ASN183     -0.0877
     88  N        106.8100   46.2810   76.1600 N.3   185  ALA185     -0.1231
     89  CA       105.6910   46.8090   76.9450 C.3   185  ALA185      0.1694
     90  C        105.9580   48.0760   77.7450 C.2   185  ALA185      0.2591
     91  O        105.3190   49.1060   77.5100 O.2   185  ALA185     -0.2718
     92  CB       105.1680   45.7310   77.8630 C.3   185  ALA185      0.0304
     93  N        106.8840   47.9980   78.6970 N.am  186  VAL186     -0.1980
     94  CA       107.2280   49.1460   79.5310 C.3   186  VAL186      0.1595
     95  C        107.7760   50.3210   78.7030 C.2   186  VAL186      0.2287
     96  O        107.3950   51.4860   78.9160 O.2   186  VAL186     -0.2864
     97  CB       108.2540   48.7350   80.6240 C.3   186  VAL186      0.0276
     98  CG1      108.9610   49.9560   81.2050 C.3   186  VAL186      0.0022
     99  CG2      107.5350   47.9910   81.7350 C.3   186  VAL186      0.0022
    100  N        115.3370   50.5940   80.3070 N.3   250  LYS250     -0.1245
    101  CA       114.5090   49.4460   80.0130 C.3   250  LYS250      0.1561
    102  C        115.1070   48.6840   78.8380 C.2   250  LYS250      0.2260
    103  O        115.3610   49.2530   77.7770 O.2   250  LYS250     -0.2867
    104  CB       113.0780   49.8940   79.6940 C.3   250  LYS250      0.0271
    105  CG       112.1310   48.7360   79.3560 C.3   250  LYS250      0.0035
    106  CD       112.1360   47.6580   80.4370 C.3   250  LYS250      0.0206
    107  CE       111.2030   46.5230   80.0870 C.3   250  LYS250      0.1093
    108  NZ       111.6990   45.2270   80.5940 N.3   250  LYS250     -0.1314
    109  N        113.4590   52.8220   87.0520 N.3   291  HIS291     -0.1226
    110  CA       113.2690   51.5820   86.3140 C.3   291  HIS291      0.1752
    111  C        112.0210   50.9110   86.9080 C.2   291  HIS291      0.2596
    112  O        111.7020   51.0950   88.0870 O.2   291  HIS291     -0.2718
    113  CB       114.5120   50.6900   86.4790 C.3   291  HIS291      0.0759
    114  CG       114.4930   49.4500   85.6370 C.ar  291  HIS291      0.0818
    115  ND1      113.8160   48.3070   86.0060 N.ar  291  HIS291     -0.2268
    116  CD2      115.0270   49.1930   84.4200 C.ar  291  HIS291      0.1154
    117  CE1      113.9290   47.4020   85.0510 C.ar  291  HIS291      0.1986
    118  NE2      114.6590   47.9140   84.0770 N.ar  291  HIS291     -0.2212
    119  N        111.3030   50.1510   86.0930 N.am  292  CYS292     -0.1956
    120  CA       110.1040   49.4710   86.5640 C.3   292  CYS292      0.1843
    121  C        110.4010   48.3360   87.5470 C.2   292  CYS292      0.2625
    122  O        109.5750   48.0080   88.3910 O.2   292  CYS292     -0.2714
    123  CB       109.3230   48.9040   85.3720 C.3   292  CYS292      0.0997
    124  SG       110.2490   47.7350   84.3190 S.3   292  CYS292     -0.0797
    125  N        111.5870   47.7510   87.4400 N.am  293  LEU293     -0.1964
    126  CA       111.9730   46.6190   88.2700 C.3   293  LEU293      0.1713
    127  C        111.1550   45.4580   87.7290 C.2   293  LEU293      0.2458
    128  O        110.1100   45.6770   87.1350 O.2   293  LEU293     -0.2730
    129  CB       111.6160   46.8790   89.7260 C.3   293  LEU293      0.0310
    130  CG       112.0050   48.2410   90.3140 C.3   293  LEU293      0.0022
    131  CD1      111.4760   48.3480   91.7480 C.3   293  LEU293      0.0001
    132  CD2      113.5140   48.4120   90.2920 C.3   293  LEU293      0.0001
    133  N        111.6250   44.2130   87.8890 N.am  294  PRO294     -0.2727
    134  CA       112.8660   43.7730   88.5360 C.3   294  PRO294      0.1402
    135  C        114.0650   44.1600   87.7030 C.2   294  PRO294      0.2269
    136  O        114.1000   43.9240   86.5000 O.2   294  PRO294     -0.2865
    137  CB       112.7040   42.2560   88.6100 C.3   294  PRO294      0.0296
    138  CG       111.9370   41.9630   87.3600 C.3   294  PRO294      0.0237
    139  CD       110.8720   43.0520   87.3780 C.3   294  PRO294      0.0939
    140  N        118.1990   43.9250   86.9050 N.3   296  ARG296     -0.1245
    141  CA       119.4050   43.1060   87.0580 C.3   296  ARG296      0.1563
    142  C        120.5720   44.0700   87.3070 C.2   296  ARG296      0.2260
    143  O        120.9980   44.7960   86.3980 O.2   296  ARG296     -0.2867
    144  CB       119.6570   42.2680   85.7920 C.3   296  ARG296      0.0307
    145  CG       118.8350   40.9880   85.7330 C.3   296  ARG296      0.0489
    146  CD       118.5210   40.5790   84.3090 C.3   296  ARG296      0.2205
    147  NE       117.8700   39.2720   84.2320 N.pl3 296  ARG296     -0.0865
    148  CZ       118.5190   38.1170   84.3050 C.cat 296  ARG296      0.5346
    149  NH1      119.8420   38.1020   84.4550 N.pl3 296  ARG296      0.1354
    150  NH2      117.8490   36.9770   84.2280 N.pl3 296  ARG296      0.1354
    151  N        102.8100   52.1870   92.6950 N.3   319  ARG319     -0.1245
    152  CA       102.0230   51.1880   91.9910 C.3   319  ARG319      0.1563
    153  C        100.8020   50.7860   92.8290 C.2   319  ARG319      0.2260
    154  O         99.7400   50.4720   92.2950 O.2   319  ARG319     -0.2867
    155  CB       102.8930   49.9590   91.6930 C.3   319  ARG319      0.0307
    156  CG       103.7880   50.0940   90.4620 C.3   319  ARG319      0.0489
    157  CD       102.9620   50.1440   89.1570 C.3   319  ARG319      0.2205
    158  NE       102.2590   48.8870   88.8920 N.pl3 319  ARG319     -0.0865
    159  CZ       102.8460   47.7540   88.5010 C.cat 319  ARG319      0.5346
    160  NH1      104.1580   47.7070   88.3120 N.pl3 319  ARG319      0.1354
    161  NH2      102.1270   46.6530   88.3290 N.pl3 319  ARG319      0.1354
@<TRIPOS>BOND
     1    75    74    2
     2    86    85    2
     3    72    73    1
     4    82    81    1
     5    82    83    2
     6    88    89    1
     7    74    80   am
     8    74    73    1
     9    81    80    1
    10    81    84    1
    11    26    25    2
    12    25    24    1
    13    73    76    1
    14    89    90    1
    15    89    92    1
    16    85    84    1
    17    85    87   am
    18    65    64    2
    19    91    90    2
    20    90    93   am
    21   103   102    2
    22    24    27    1
    23    24    23    1
    24    76    77    1
    25    64    63    1
    26    62    63    1
    27    93    94    1
    28    95    96    2
    29    95    94    1
    30    27    28    1
    31   102   101    1
    32    77    79    1
    33    77    78    1
    34    63    66    1
    35    66    67    1
    36   105   104    1
    37   105   106    1
    38    94    97    1
    39    68    67   ar
    40    68    70   ar
    41    43    44    1
    42   104   101    1
    43    67    69   ar
    44   101   100    1
    45    28    29   ar
    46    28    30   ar
    47   107   106    1
    48   107   108    1
    49    70    71   ar
    50    36    37    2
    51    36    35    1
    52    29    31   ar
    53    97    98    1
    54    97    99    1
    55    30    32   ar
    56    41    40   ar
    57    69    71   ar
    58    44    45    1
    59    44    47    1
    60    39    40    1
    61    39    38    1
    62    35    38    1
    63    35    34    1
    64    45    46    2
    65    47    48    1
    66    40    42   ar
    67    14    15    2
    68    14    13    1
    69    31    33   ar
    70    32    33   ar
    71    13    12    1
    72    13    16    1
    73    48    50   ar
    74    48    49   ar
    75    50    52   ar
    76    17    16    1
    77    17    18    1
    78    49    51   ar
    79   118   116   ar
    80   118   117   ar
    81    18    19    1
    82   150   148    1
    83   147   148    2
    84   147   146    1
    85   148   149    1
    86   146   145    1
    87   124   123    1
    88   116   114   ar
    89    19    20    2
    90    52    51   ar
    91    57    58    1
    92    57    54    1
    93   117   115   ar
    94    55    54    1
    95    55    56    2
    96    58    59    1
    97   123   120    1
    98    53    54    1
    99    20    21    1
   100    20    22    1
   101   114   115   ar
   102   114   113    1
   103   145   144    1
   104   144   141    1
   105   119   120    1
   106   119   111   am
   107   110   113    1
   108   110   111    1
   109   110   109    1
   110   143   142    2
   111   136   135    2
   112   120   121    1
   113    59    60    2
   114    59    61   am
   115   140   141    1
   116   111   112    2
   117   141   142    1
   118   128   127    2
   119   138   139    1
   120   138   137    1
   121   139   133    1
   122   125   121   am
   123   125   126    1
   124   121   122    2
   125   135   134    1
   126   127   133   am
   127   127   126    1
   128   133   134    1
   129   126   129    1
   130   160   159    1
   131   161   159    1
   132   159   158    2
   133   134   137    1
   134   158   157    1
   135   157   156    1
   136   129   130    1
   137   132   130    1
   138   130   131    1
   139   156   155    1
   140    11     9    1
   141     8     9    2
   142     8     7    1
   143     9    10    1
   144     7     6    1
   145   155   152    1
   146     5     6    1
   147     5     2    1
   148   152   151    1
   149   152   153    1
   150     3     2    1
   151     3     4    2
   152     1     2    1
   153   154   153    2
