@<TRIPOS>MOLECULE
tmp/3l08A00.pdb
 207 192 0 0 0
SMALL
GASTEIGER

@<TRIPOS>ATOM
      1  N         15.4530   14.0240   11.7760 N.3   556  LYS556     -0.1245
      2  CA        16.0250   15.2580   11.2520 C.3   556  LYS556      0.1561
      3  C         17.5450   15.1930   11.1530 C.2   556  LYS556      0.2260
      4  O         18.1710   14.2370   11.6040 O.2   556  LYS556     -0.2867
      5  CB        15.6270   16.4410   12.1310 C.3   556  LYS556      0.0271
      6  CG        16.0860   16.3100   13.5680 C.3   556  LYS556      0.0035
      7  CD        15.7610   17.5590   14.3640 C.3   556  LYS556      0.0206
      8  CE        16.3310   17.4700   15.7680 C.3   556  LYS556      0.1093
      9  NZ        16.0400   18.6900   16.5670 N.3   556  LYS556     -0.1314
     10  N         20.6610   17.0340   12.5870 N.3   558  MET558     -0.1245
     11  CA        21.0400   17.9700   13.6360 C.3   558  MET558      0.1570
     12  C         21.9220   19.0720   13.0650 C.2   558  MET558      0.2261
     13  O         22.3920   18.9710   11.9310 O.2   558  MET558     -0.2867
     14  CB        21.7130   17.2320   14.7900 C.3   558  MET558      0.0387
     15  CG        20.8200   16.1500   15.3800 C.3   558  MET558      0.0595
     16  SD        21.5830   15.1790   16.6860 S.3   558  MET558     -0.1393
     17  CE        21.8950   16.4430   17.9180 C.3   558  MET558      0.0692
     18  N         24.9430   20.3820   13.6570 N.3   560  SER560     -0.1217
     19  CA        26.3910   20.4280   13.8140 C.3   560  SER560      0.1889
     20  C         27.0520   20.2620   12.4530 C.2   560  SER560      0.2288
     21  O         26.3790   19.9950   11.4570 O.2   560  SER560     -0.2866
     22  CB        26.8730   19.3350   14.7630 C.3   560  SER560      0.2089
     23  OG        26.9110   18.0800   14.1070 O.3   560  SER560     -0.2183
     24  N         29.0260   17.9280   11.6220 N.3   562  LYS562     -0.1245
     25  CA        29.0860   16.5040   11.3070 C.3   562  LYS562      0.1561
     26  C         27.7530   15.9960   10.7570 C.2   562  LYS562      0.2260
     27  O         27.6410   14.8400   10.3490 O.2   562  LYS562     -0.2867
     28  CB        29.4740   15.7060   12.5520 C.3   562  LYS562      0.0271
     29  CG        30.7590   16.1680   13.2130 C.3   562  LYS562      0.0035
     30  CD        31.9780   15.8130   12.3770 C.3   562  LYS562      0.0206
     31  CE        33.2560   16.3200   13.0300 C.3   562  LYS562      0.1093
     32  NZ        33.3590   15.9010   14.4580 N.3   562  LYS562     -0.1314
     33  N         24.8230   14.9940   12.0830 N.3   564  PRO564     -0.2116
     34  CA        24.3600   13.7320   12.6630 C.3   564  PRO564      0.1372
     35  C         22.8690   13.5500   12.4470 C.2   564  PRO564      0.2244
     36  O         22.1400   14.5380   12.4140 O.2   564  PRO564     -0.2868
     37  CB        24.6420   13.9090   14.1580 C.3   564  PRO564      0.0268
     38  CG        25.6080   15.0460   14.2500 C.3   564  PRO564      0.0207
     39  CD        25.2540   15.9430   13.1200 C.3   564  PRO564      0.0892
     40  N         19.2590   12.6150   13.8000 N.3   566  TRP566     -0.1241
     41  CA        18.4600   12.4730   15.0050 C.3   566  TRP566      0.1605
     42  C         17.2900   11.5780   14.6280 C.2   566  TRP566      0.2264
     43  O         16.3970   11.9940   13.8930 O.2   566  TRP566     -0.2867
     44  CB        17.9790   13.8500   15.4590 C.3   566  TRP566      0.0550
     45  CG        16.9430   13.8640   16.5430 C.ar  566  TRP566      0.0003
     46  CD1       15.6750   13.3580   16.4800 C.ar  566  TRP566      0.0946
     47  CD2       17.0690   14.4660   17.8360 C.ar  566  TRP566      0.0152
     48  NE1       15.0150   13.5850   17.6630 N.ar  566  TRP566     -0.2442
     49  CE2       15.8500   14.2640   18.5120 C.ar  566  TRP566      0.0810
     50  CE3       18.1020   15.1450   18.4930 C.ar  566  TRP566      0.0012
     51  CZ2       15.6330   14.7190   19.8110 C.ar  566  TRP566      0.0191
     52  CZ3       17.8860   15.5950   19.7830 C.ar  566  TRP566      0.0001
     53  CH2       16.6610   15.3810   20.4280 C.ar  566  TRP566      0.0015
     54  N         20.6340    9.0770   18.2900 N.3   585  ILE585     -0.1245
     55  CA        21.5190    9.8870   17.4580 C.3   585  ILE585      0.1561
     56  C         22.4340    8.9760   16.6430 C.2   585  ILE585      0.2260
     57  O         23.0870    8.0910   17.1900 O.2   585  ILE585     -0.2867
     58  CB        22.4100   10.8130   18.3090 C.3   585  ILE585      0.0252
     59  CG1       21.6320   12.0290   18.7910 C.3   585  ILE585      0.0019
     60  CG2       23.6070   11.2860   17.5150 C.3   585  ILE585      0.0019
     61  CD1       22.5160   13.0680   19.4350 C.3   585  ILE585      0.0001
     62  N         25.6740    9.1110   14.2960 N.3   587  LYS587     -0.1245
     63  CA        26.7440   10.0650   13.9960 C.3   587  LYS587      0.1561
     64  C         27.9000    9.4840   13.1880 C.2   587  LYS587      0.2260
     65  O         28.4290    8.4220   13.5190 O.2   587  LYS587     -0.2867
     66  CB        27.2890   10.6760   15.2920 C.3   587  LYS587      0.0271
     67  CG        28.2620   11.8190   15.0710 C.3   587  LYS587      0.0035
     68  CD        28.7230   12.4170   16.3840 C.3   587  LYS587      0.0206
     69  CE        29.5010   13.7030   16.1520 C.3   587  LYS587      0.1093
     70  NZ        30.1620   14.1860   17.3950 N.3   587  LYS587     -0.1314
     71  N         33.2500   10.8370   13.6960 N.3   590  ASP590     -0.1239
     72  CA        33.9810   10.8000   14.9590 C.3   590  ASP590      0.1674
     73  C         34.3750    9.3790   15.3220 C.2   590  ASP590      0.2266
     74  O         33.6870    8.4270   14.9610 O.2   590  ASP590     -0.2867
     75  CB        33.1470   11.4070   16.0900 C.3   590  ASP590      0.1410
     76  CG        33.4250   12.8850   16.2950 C.2   590  ASP590      0.3668
     77  OD1       34.2940   13.4320   15.5810 O.co2 590  ASP590     -0.2456
     78  OD2       32.7760   13.4950   17.1740 O.co2 590  ASP590     -0.2456
     79  N         34.1130    7.1890   18.1050 N.3   592  LEU592     -0.1245
     80  CA        33.3270    7.1800   19.3410 C.3   592  LEU592      0.1561
     81  C         33.8910    6.2560   20.4080 C.2   592  LEU592      0.2260
     82  O         33.3350    6.1500   21.4960 O.2   592  LEU592     -0.2867
     83  CB        31.8780    6.7890   19.0620 C.3   592  LEU592      0.0270
     84  CG        31.0990    7.6850   18.1100 C.3   592  LEU592      0.0019
     85  CD1       29.6940    7.1420   17.9600 C.3   592  LEU592      0.0001
     86  CD2       31.0860    9.1220   18.6140 C.3   592  LEU592      0.0001
     87  N         34.7270    8.1450   23.7490 N.3   595  ASP595     -0.1239
     88  CA        33.4960    8.3630   24.5040 C.3   595  ASP595      0.1674
     89  C         33.0740    7.1230   25.2830 C.2   595  ASP595      0.2266
     90  O         32.8470    7.1950   26.4940 O.2   595  ASP595     -0.2867
     91  CB        32.3640    8.7940   23.5780 C.3   595  ASP595      0.1410
     92  CG        32.6120   10.1530   22.9550 C.2   595  ASP595      0.3668
     93  OD1       33.3770   10.2230   21.9680 O.co2 595  ASP595     -0.2456
     94  OD2       32.0500   11.1510   23.4560 O.co2 595  ASP595     -0.2456
     95  N         24.8010    8.1660   29.3320 N.3   621  TYR621     -0.1241
     96  CA        23.9560    7.7620   28.2120 C.3   621  TYR621      0.1605
     97  C         24.6600    6.6800   27.3940 C.2   621  TYR621      0.2264
     98  O         25.8870    6.5490   27.4390 O.2   621  TYR621     -0.2867
     99  CB        23.5890    8.9710   27.3330 C.3   621  TYR621      0.0534
    100  CG        24.7830    9.8030   26.9320 C.ar  621  TYR621     -0.0201
    101  CD1       25.4990    9.5230   25.7750 C.ar  621  TYR621     -0.0009
    102  CD2       25.2120   10.8500   27.7270 C.ar  621  TYR621     -0.0009
    103  CE1       26.6030   10.2750   25.4200 C.ar  621  TYR621      0.0417
    104  CE2       26.3120   11.6040   27.3830 C.ar  621  TYR621      0.0417
    105  CZ        27.0020   11.3170   26.2330 C.ar  621  TYR621      0.1957
    106  OH        28.0920   12.0830   25.9010 O.3   621  TYR621     -0.2866
    107  N         26.3170    4.8080   24.3250 N.3   623  CYS623     -0.1235
    108  CA        27.1170    5.2090   23.1760 C.3   623  CYS623      0.1677
    109  C         27.9250    4.0220   22.6660 C.2   623  CYS623      0.2270
    110  O         28.8500    3.5760   23.3290 O.2   623  CYS623     -0.2867
    111  CB        28.0610    6.3490   23.5610 C.3   623  CYS623      0.0956
    112  SG        29.2580    6.7830   22.2830 S.3   623  CYS623     -0.0801
    113  N         24.2480    6.9730   19.5500 N.3   633  ILE633     -0.1231
    114  CA        24.2020    7.5400   20.8880 C.3   633  ILE633      0.1692
    115  C         22.7670    7.6640   21.3430 C.2   633  ILE633      0.2592
    116  O         21.8990    8.0500   20.5610 O.2   633  ILE633     -0.2718
    117  CB        24.8250    8.9380   20.9060 C.3   633  ILE633      0.0266
    118  CG1       26.3100    8.8630   20.5310 C.3   633  ILE633      0.0019
    119  CG2       24.6070    9.6010   22.2590 C.3   633  ILE633      0.0020
    120  CD1       26.7410    9.9750   19.6080 C.3   633  ILE633      0.0001
    121  N         22.5270    7.3300   22.6090 N.am  634  GLU634     -0.1966
    122  CA        21.2100    7.4500   23.2260 C.3   634  GLU634      0.1733
    123  C         20.8310    8.9150   23.3740 C.2   634  GLU634      0.2616
    124  O         21.5970    9.7040   23.9280 O.2   634  GLU634     -0.2715
    125  CB        21.2320    6.7810   24.6040 C.3   634  GLU634      0.0429
    126  CG        19.9310    6.8570   25.4010 C.3   634  GLU634      0.1163
    127  CD        20.0790    6.3250   26.8300 C.2   634  GLU634      0.3649
    128  OE1       21.1440    5.7630   27.1730 O.co2 634  GLU634     -0.2457
    129  OE2       19.1250    6.4730   27.6190 O.co2 634  GLU634     -0.2457
    130  N         19.6580    9.2810   22.8630 N.am  635  ILE635     -0.1963
    131  CA        19.0810   10.5910   23.1440 C.3   635  ILE635      0.1727
    132  C         18.4210   10.5690   24.5170 C.2   635  ILE635      0.2616
    133  O         17.4710    9.8190   24.7400 O.2   635  ILE635     -0.2715
    134  CB        18.0080   10.9800   22.1040 C.3   635  ILE635      0.0290
    135  CG1       18.5910   10.9830   20.6930 C.3   635  ILE635      0.0022
    136  CG2       17.4020   12.3450   22.4350 C.3   635  ILE635      0.0023
    137  CD1       17.5830   11.3860   19.6480 C.3   635  ILE635      0.0001
    138  N         18.9240   11.3850   25.4360 N.am  636  VAL636     -0.1977
    139  CA        18.3260   11.4890   26.7680 C.3   636  VAL636      0.1596
    140  C         17.0340   12.3040   26.7190 C.2   636  VAL636      0.2287
    141  O         17.0360   13.4520   26.2740 O.2   636  VAL636     -0.2864
    142  CB        19.2990   12.1210   27.7850 C.3   636  VAL636      0.0276
    143  CG1       18.5830   12.4360   29.0750 C.3   636  VAL636      0.0022
    144  CG2       20.4700   11.1930   28.0470 C.3   636  VAL636      0.0022
    145  N         15.5350   16.6620   27.3970 N.3   639  ALA639     -0.1245
    146  CA        16.8230   17.2710   27.6950 C.3   639  ALA639      0.1562
    147  C         17.1370   18.4380   26.7650 C.2   639  ALA639      0.2260
    148  O         16.8250   18.4090   25.5760 O.2   639  ALA639     -0.2867
    149  CB        17.9290   16.2250   27.6360 C.3   639  ALA639      0.0290
    150  N         20.2670   21.7570   26.2220 N.3   641  THR641     -0.1218
    151  CA        21.6100   22.1670   26.6120 C.3   641  THR641      0.1862
    152  C         21.5920   23.4500   27.4330 C.2   641  THR641      0.2287
    153  O         20.6630   24.2490   27.3330 O.2   641  THR641     -0.2866
    154  CB        22.5250   22.3650   25.3860 C.3   641  THR641      0.1770
    155  OG1       22.0080   23.4180   24.5620 O.3   641  THR641     -0.2211
    156  CG2       22.6250   21.0720   24.5740 C.3   641  THR641      0.0375
    157  N         27.9330   24.6620   25.9430 N.3   699  ASP699     -0.1225
    158  CA        27.2580   24.0450   24.8130 C.3   699  ASP699      0.1805
    159  C         27.3120   22.5260   24.9790 C.2   699  ASP699      0.2597
    160  O         26.4710   21.7970   24.4550 O.2   699  ASP699     -0.2718
    161  CB        27.9340   24.4630   23.5060 C.3   699  ASP699      0.1424
    162  CG        27.2290   23.9160   22.2800 C.2   699  ASP699      0.3668
    163  OD1       26.0870   23.4200   22.4250 O.co2 699  ASP699     -0.2456
    164  OD2       27.8180   23.9880   21.1730 O.co2 699  ASP699     -0.2456
    165  N         28.3090   22.0600   25.7250 N.am  700  ASN700     -0.1974
    166  CA        28.5340   20.6310   25.9210 C.3   700  ASN700      0.1688
    167  C         27.9690   20.0910   27.2340 C.2   700  ASN700      0.2292
    168  O         28.2450   18.9570   27.6150 O.2   700  ASN700     -0.2864
    169  CB        30.0280   20.3220   25.8460 C.3   700  ASN700      0.1181
    170  CG        30.5960   20.5390   24.4690 C.2   700  ASN700      0.2629
    171  OD1       29.9950   20.1480   23.4690 O.2   700  ASN700     -0.2716
    172  ND2       31.7690   21.1560   24.4040 N.am  700  ASN700     -0.0877
    173  N         24.3750   19.5190   29.4710 N.3   702  MET702     -0.1245
    174  CA        22.9340   19.4600   29.3020 C.3   702  MET702      0.1570
    175  C         22.2110   19.3260   30.6270 C.2   702  MET702      0.2261
    176  O         22.8380   19.1460   31.6690 O.2   702  MET702     -0.2867
    177  CB        22.5520   18.3110   28.3690 C.3   702  MET702      0.0387
    178  CG        23.1130   18.4630   26.9670 C.3   702  MET702      0.0595
    179  SD        22.3720   17.3220   25.7950 S.3   702  MET702     -0.1393
    180  CE        20.6990   17.9400   25.7160 C.3   702  MET702      0.0692
    181  N         24.1000   16.8580   33.1050 N.3   710  PHE710     -0.1241
    182  CA        24.9990   15.8510   32.5330 C.3   710  PHE710      0.1605
    183  C         25.7870   16.3340   31.3190 C.2   710  PHE710      0.2264
    184  O         25.2380   16.9700   30.4240 O.2   710  PHE710     -0.2867
    185  CB        24.2230   14.5780   32.1810 C.3   710  PHE710      0.0534
    186  CG        23.3150   14.7230   30.9950 C.ar  710  PHE710     -0.0203
    187  CD1       23.6770   14.2080   29.7630 C.ar  710  PHE710     -0.0042
    188  CD2       22.0990   15.3690   31.1100 C.ar  710  PHE710     -0.0042
    189  CE1       22.8440   14.3400   28.6640 C.ar  710  PHE710     -0.0003
    190  CE2       21.2610   15.4990   30.0150 C.ar  710  PHE710     -0.0003
    191  CZ        21.6340   14.9820   28.7930 C.ar  710  PHE710     -0.0000
    192  N         28.2550   15.9920   27.8230 N.3   712  ILE712     -0.1231
    193  CA        28.1470   15.2470   26.5710 C.3   712  ILE712      0.1692
    194  C         29.3670   15.4620   25.6970 C.2   712  ILE712      0.2592
    195  O         30.1330   16.3970   25.9140 O.2   712  ILE712     -0.2718
    196  CB        26.9170   15.6770   25.7670 C.3   712  ILE712      0.0266
    197  CG1       27.0760   17.1330   25.3070 C.3   712  ILE712      0.0019
    198  CG2       25.6660   15.4860   26.6000 C.3   712  ILE712      0.0020
    199  CD1       25.9610   17.6400   24.4130 C.3   712  ILE712      0.0001
    200  N         29.5370   14.5870   24.7090 N.am  713  ASP713     -0.1974
    201  CA        30.6250   14.6940   23.7380 C.3   713  ASP713      0.1709
    202  C         31.9900   14.7890   24.4130 C.2   713  ASP713      0.2293
    203  O         32.5840   15.8640   24.4810 O.2   713  ASP713     -0.2864
    204  CB        30.3990   15.9010   22.8270 C.3   713  ASP713      0.1436
    205  CG        31.3320   15.9190   21.6360 C.2   713  ASP713      0.3671
    206  OD1       31.2850   16.9010   20.8640 O.co2 713  ASP713     -0.2456
    207  OD2       32.1060   14.9540   21.4650 O.co2 713  ASP713     -0.2456
@<TRIPOS>BOND
     1    27    26    2
     2    26    25    1
     3     3     2    1
     4     3     4    2
     5     2     1    1
     6     2     5    1
     7    25    24    1
     8    25    28    1
     9    21    20    2
    10    13    12    2
    11    33    34    1
    12    33    39    1
    13     5     6    1
    14    30    31    1
    15    30    29    1
    16    36    35    2
    17    35    34    1
    18    20    19    1
    19    28    29    1
    20    10    11    1
    21    34    37    1
    22    31    32    1
    23    12    11    1
    24    39    38    1
    25    64    65    2
    26    64    63    1
    27     6     7    1
    28    11    14    1
    29    18    19    1
    30    71    72    1
    31    40    41    1
    32    19    22    1
    33    43    42    2
    34    63    62    1
    35    63    66    1
    36    23    22    1
    37    37    38    1
    38     7     8    1
    39    42    41    1
    40    14    15    1
    41    72    73    1
    42    72    75    1
    43    74    73    2
    44    41    44    1
    45    67    66    1
    46    67    68    1
    47    15    16    1
    48    44    45    1
    49    77    76   ar
    50     8     9    1
    51    75    76    1
    52    69    68    1
    53    69    70    1
    54    76    78   ar
    55    46    45   ar
    56    46    48   ar
    57    45    47   ar
    58    56    57    2
    59    56    55    1
    60    16    17    1
    61    55    54    1
    62    55    58    1
    63    60    58    1
    64    48    49   ar
    65    47    50   ar
    66    47    49   ar
    67    85    84    1
    68    79    80    1
    69    84    86    1
    70    84    83    1
    71    58    59    1
    72    50    52   ar
    73    49    51   ar
    74    59    61    1
    75    83    80    1
    76    80    81    1
    77   113   114    1
    78   120   118    1
    79   137   135    1
    80    52    53   ar
    81    51    53   ar
    82    81    82    2
    83   118   117    1
    84   116   115    2
    85   135   134    1
    86   206   205   ar
    87   114   117    1
    88   114   115    1
    89   117   119    1
    90   164   162   ar
    91   115   121   am
    92   207   205   ar
    93   205   204    1
    94    93    92   ar
    95   134   136    1
    96   134   131    1
    97   162   163   ar
    98   162   161    1
    99   112   111    1
   100   121   122    1
   101   109   108    1
   102   109   110    2
   103   204   201    1
   104   130   131    1
   105   130   123   am
   106    92    94   ar
   107    92    91    1
   108   131   132    1
   109   108   111    1
   110   108   107    1
   111   122   123    1
   112   122   125    1
   113   123   124    2
   114   171   170    2
   115   161   158    1
   116    91    88    1
   117   201   202    1
   118   201   200    1
   119    87    88    1
   120   172   170   am
   121   199   197    1
   122   202   203    2
   123   160   159    2
   124   170   169    1
   125    88    89    1
   126   132   133    2
   127   132   138   am
   128   155   154    1
   129   156   154    1
   130   125   126    1
   131   200   194   am
   132   158   159    1
   133   158   157    1
   134   159   165   am
   135    89    90    2
   136   197   196    1
   137   154   151    1
   138   126   127    1
   139   103   101   ar
   140   103   105   ar
   141   138   139    1
   142   148   147    2
   143   194   195    2
   144   194   193    1
   145   180   179    1
   146   165   166    1
   147   196   193    1
   148   196   198    1
   149   101   100   ar
   150   179   178    1
   151   169   166    1
   152   106   105    1
   153   166   167    1
   154   150   151    1
   155   105   104   ar
   156   141   140    2
   157   193   192    1
   158   151   152    1
   159   140   139    1
   160   147   146    1
   161   139   142    1
   162   127   128   ar
   163   127   129   ar
   164   100    99    1
   165   100   102   ar
   166   178   177    1
   167   167   168    2
   168    99    96    1
   169   153   152    2
   170   104   102   ar
   171    97    98    2
   172    97    96    1
   173   145   146    1
   174   149   146    1
   175   142   144    1
   176   142   143    1
   177    96    95    1
   178   177   174    1
   179   189   191   ar
   180   189   187   ar
   181   191   190   ar
   182   174   173    1
   183   174   175    1
   184   187   186   ar
   185   190   188   ar
   186   184   183    2
   187   175   176    2
   188   186   188   ar
   189   186   185    1
   190   183   182    1
   191   185   182    1
   192   182   181    1
