@<TRIPOS>MOLECULE
tmp/3l0aA00.pdb
 92 86 0 0 0
SMALL
GASTEIGER

@<TRIPOS>ATOM
      1  N          9.0070   18.0120   34.2740 N.3     9  TYR9       -0.1241
      2  CA         7.8000   18.7360   34.6780 C.3     9  TYR9        0.1605
      3  C          6.5350   17.9960   34.2390 C.2     9  TYR9        0.2264
      4  O          5.4390   18.5180   34.3830 O.2     9  TYR9       -0.2867
      5  CB         7.8070   20.1740   34.1130 C.3     9  TYR9        0.0534
      6  CG         8.9470   21.0860   34.6120 C.ar    9  TYR9       -0.0201
      7  CD1        8.9960   21.5250   35.9280 C.ar    9  TYR9       -0.0009
      8  CD2        9.9660   21.5050   33.7490 C.ar    9  TYR9       -0.0009
      9  CE1       10.0420   22.3630   36.3770 C.ar    9  TYR9        0.0417
     10  CE2       11.0050   22.3430   34.1870 C.ar    9  TYR9        0.0417
     11  CZ        11.0370   22.7630   35.4900 C.ar    9  TYR9        0.1957
     12  OH        12.0780   23.5710   35.9180 O.3     9  TYR9       -0.2866
     13  N         17.2810   31.5200   32.5480 N.3    59  ASP59      -0.1239
     14  CA        17.7830   30.1260   32.7680 C.3    59  ASP59       0.1674
     15  C         18.2490   29.5330   31.4590 C.2    59  ASP59       0.2266
     16  O         19.3340   28.9410   31.3280 O.2    59  ASP59      -0.2867
     17  CB        16.6800   29.1880   33.2640 C.3    59  ASP59       0.1410
     18  CG        16.4420   29.2800   34.7260 C.2    59  ASP59       0.3668
     19  OD1       17.3550   29.6950   35.4610 O.co2  59  ASP59      -0.2456
     20  OD2       15.3230   28.9230   35.1460 O.co2  59  ASP59      -0.2456
     21  N         21.2640   23.1270   35.2920 N.3   110  GLN110     -0.1245
     22  CA        19.9850   22.3520   35.3670 C.3   110  GLN110      0.1566
     23  C         20.1500   20.8320   35.7070 C.2   110  GLN110      0.2260
     24  O         19.6340   19.9470   35.0050 O.2   110  GLN110     -0.2867
     25  CB        19.1290   22.5320   34.0800 C.3   110  GLN110      0.0367
     26  CG        18.6250   23.9750   33.7730 C.3   110  GLN110      0.0905
     27  CD        17.8750   24.6010   34.9230 C.2   110  GLN110      0.2608
     28  OE1       17.0530   23.9540   35.5830 O.2   110  GLN110     -0.2717
     29  NE2       18.1530   25.8640   35.1740 N.am  110  GLN110     -0.0878
     30  N         15.9620   20.2110   40.7000 N.3   124  LYS124     -0.1245
     31  CA        16.6560   20.6250   39.4880 C.3   124  LYS124      0.1561
     32  C         17.3470   21.9580   39.8050 C.2   124  LYS124      0.2260
     33  O         16.6800   22.9480   40.0710 O.2   124  LYS124     -0.2867
     34  CB        15.6850   20.7890   38.3200 C.3   124  LYS124      0.0271
     35  CG        16.3890   20.9060   36.9950 C.3   124  LYS124      0.0035
     36  CD        15.4750   20.7630   35.7700 C.3   124  LYS124      0.0206
     37  CE        14.5770   21.9790   35.6240 C.3   124  LYS124      0.1093
     38  NZ        14.2970   22.2600   34.1900 N.3   124  LYS124     -0.1314
     39  N         19.9090   25.3070   39.3460 N.3   125  ASP125     -0.1239
     40  CA        20.3590   26.1960   38.2650 C.3   125  ASP125      0.1674
     41  C         21.8460   26.0400   37.9910 C.2   125  ASP125      0.2266
     42  O         22.2270   25.8390   36.8380 O.2   125  ASP125     -0.2867
     43  CB        20.0410   27.6620   38.6150 C.3   125  ASP125      0.1410
     44  CG        18.5580   27.9430   38.6220 C.2   125  ASP125      0.3668
     45  OD1       17.8590   27.1560   37.9830 O.co2 125  ASP125     -0.2456
     46  OD2       18.0880   28.9300   39.2470 O.co2 125  ASP125     -0.2456
     47  N         21.0830   29.1440   43.1070 N.3   135  ASP135     -0.1225
     48  CA        19.8450   29.3600   42.3900 C.3   135  ASP135      0.1805
     49  C         19.7580   30.7970   41.9280 C.2   135  ASP135      0.2598
     50  O         19.8920   31.7210   42.7470 O.2   135  ASP135     -0.2718
     51  CB        18.6490   29.0690   43.2800 C.3   135  ASP135      0.1424
     52  CG        17.4700   28.6220   42.4840 C.2   135  ASP135      0.3668
     53  OD1       17.4220   27.4080   42.1900 O.co2 135  ASP135     -0.2456
     54  OD2       16.6640   29.4700   42.0900 O.co2 135  ASP135     -0.2456
     55  N         19.5620   30.9580   40.6130 N.am  136  LEU136     -0.1966
     56  CA        19.3700   32.2650   39.9980 C.3   136  LEU136      0.1728
     57  C         17.9330   32.5810   40.1180 C.2   136  LEU136      0.2616
     58  O         17.0560   31.7140   39.7900 O.2   136  LEU136     -0.2715
     59  CB        19.7250   32.2910   38.4910 C.3   136  LEU136      0.0311
     60  CG        19.6850   33.6720   37.7630 C.3   136  LEU136      0.0022
     61  CD1       20.6920   34.6400   38.2660 C.3   136  LEU136      0.0001
     62  CD2       19.8960   33.4890   36.2790 C.3   136  LEU136      0.0001
     63  N         17.7110   33.8170   40.5860 N.am  137  LYS137     -0.1977
     64  CA        16.3950   34.4360   40.6720 C.3   137  LYS137      0.1596
     65  C         16.4360   35.8540   40.1280 C.2   137  LYS137      0.2287
     66  O         17.2970   36.6490   40.5220 O.2   137  LYS137     -0.2864
     67  CB        15.9370   34.4620   42.1170 C.3   137  LYS137      0.0298
     68  CG        15.8760   33.0820   42.7040 C.3   137  LYS137      0.0038
     69  CD        14.8110   32.8870   43.7340 C.3   137  LYS137      0.0206
     70  CE        14.9760   31.5070   44.3300 C.3   137  LYS137      0.1093
     71  NZ        14.2960   30.5030   43.4760 N.3   137  LYS137     -0.1314
     72  N         13.1560   25.9540   49.5750 N.3   164  GLN164     -0.1245
     73  CA        13.9070   25.4470   48.4300 C.3   164  GLN164      0.1566
     74  C         15.3540   25.0670   48.7790 C.2   164  GLN164      0.2260
     75  O         15.8350   23.9890   48.4110 O.2   164  GLN164     -0.2867
     76  CB        13.9090   26.4740   47.2950 C.3   164  GLN164      0.0367
     77  CG        14.5820   25.9810   46.0030 C.3   164  GLN164      0.0905
     78  CD        14.5550   27.0430   44.9350 C.2   164  GLN164      0.2608
     79  OE1       14.7850   28.1950   45.2370 O.2   164  GLN164     -0.2717
     80  NE2       14.2520   26.6680   43.6840 N.am  164  GLN164     -0.0878
     81  N         16.8330   21.1580   48.5740 N.3   168  TYR168     -0.1241
     82  CA        17.9480   21.0170   47.6320 C.3   168  TYR168      0.1605
     83  C         19.2060   20.4820   48.3450 C.2   168  TYR168      0.2264
     84  O         19.7560   19.4820   47.9240 O.2   168  TYR168     -0.2867
     85  CB        18.2540   22.3580   46.9470 C.3   168  TYR168      0.0534
     86  CG        17.3340   22.7530   45.7820 C.ar  168  TYR168     -0.0201
     87  CD1       15.9870   22.4070   45.7560 C.ar  168  TYR168     -0.0009
     88  CD2       17.8140   23.5160   44.7350 C.ar  168  TYR168     -0.0009
     89  CE1       15.1750   22.7570   44.7060 C.ar  168  TYR168      0.0417
     90  CE2       17.0010   23.8700   43.6730 C.ar  168  TYR168      0.0417
     91  CZ        15.6660   23.4940   43.6730 C.ar  168  TYR168      0.1957
     92  OH        14.8390   23.8790   42.6340 O.3   168  TYR168     -0.2866
@<TRIPOS>BOND
     1    16    15    2
     2    15    14    1
     3    13    14    1
     4    14    17    1
     5    17    18    1
     6     8    10   ar
     7     8     6   ar
     8    26    25    1
     9    26    27    1
    10    25    22    1
    11     5     6    1
    12     5     2    1
    13    10    11   ar
    14    38    37    1
    15     3     4    2
    16     3     2    1
    17     1     2    1
    18     6     7   ar
    19    18    20   ar
    20    18    19   ar
    21    27    29   am
    22    27    28    2
    23    24    23    2
    24    21    22    1
    25    22    23    1
    26    11    12    1
    27    11     9   ar
    28    37    36    1
    29    36    35    1
    30     7     9   ar
    31    62    60    1
    32    42    41    2
    33    35    34    1
    34    60    61    1
    35    60    59    1
    36    45    44   ar
    37    41    40    1
    38    40    43    1
    39    40    39    1
    40    34    31    1
    41    59    56    1
    42    43    44    1
    43    44    46   ar
    44    31    32    1
    45    31    30    1
    46    58    57    2
    47    32    33    2
    48    56    57    1
    49    56    55    1
    50    57    63   am
    51    65    66    2
    52    65    64    1
    53    63    64    1
    54    55    49   am
    55    64    67    1
    56    49    48    1
    57    49    50    2
    58    54    52   ar
    59    67    68    1
    60    53    52   ar
    61    48    47    1
    62    48    51    1
    63    52    51    1
    64    92    91    1
    65    68    69    1
    66    71    70    1
    67    91    90   ar
    68    91    89   ar
    69    90    88   ar
    70    80    78   am
    71    69    70    1
    72    89    87   ar
    73    88    86   ar
    74    78    79    2
    75    78    77    1
    76    87    86   ar
    77    86    85    1
    78    77    76    1
    79    85    82    1
    80    76    73    1
    81    82    83    1
    82    82    81    1
    83    84    83    2
    84    75    74    2
    85    73    74    1
    86    73    72    1
