@<TRIPOS>MOLECULE
tmp/3l0bA00.pdb
 127 122 0 0 0
SMALL
GASTEIGER

@<TRIPOS>ATOM
      1  N         53.7090    0.2380    9.8810 N.3    21  ASP21      -0.1225
      2  CA        54.9660    0.9360    9.6060 C.3    21  ASP21       0.1805
      3  C         54.7280    2.3510    9.1950 C.2    21  ASP21       0.2597
      4  O         53.8930    2.5830    8.3250 O.2    21  ASP21      -0.2718
      5  CB        55.7340    0.1880    8.5200 C.3    21  ASP21       0.1424
      6  CG        56.3280   -1.0980    9.0450 C.2    21  ASP21       0.3668
      7  OD1       57.2260   -0.9550    9.9260 O.co2  21  ASP21      -0.2456
      8  OD2       55.9000   -2.2190    8.5880 O.co2  21  ASP21      -0.2456
      9  N         55.4610    3.2710    9.8200 N.am   22  GLU22      -0.1979
     10  CA        55.3270    4.7140    9.6140 C.3    22  GLU22       0.1602
     11  C         53.9420    5.2900   10.0500 C.2    22  GLU22       0.2287
     12  O         53.6780    6.4710    9.9030 O.2    22  GLU22      -0.2864
     13  CB        55.6500    5.1090    8.1400 C.3    22  GLU22       0.0415
     14  CG        57.1290    4.9250    7.7590 C.3    22  GLU22       0.1163
     15  CD        57.4980    3.4720    7.4770 C.2    22  GLU22       0.3649
     16  OE1       56.7870    2.8340    6.6860 O.co2  22  GLU22      -0.2457
     17  OE2       58.4810    2.9380    8.0640 O.co2  22  GLU22      -0.2457
     18  N         58.3640    2.9810   13.5570 N.3    26  HIS26      -0.1226
     19  CA        59.2450    3.0170   12.4200 C.3    26  HIS26       0.1752
     20  C         60.4210    2.1610   12.7010 C.2    26  HIS26       0.2597
     21  O         61.0940    2.3240   13.7380 O.2    26  HIS26      -0.2718
     22  CB        59.7340    4.3830   12.1330 C.3    26  HIS26       0.0759
     23  CG        60.7460    4.3950   11.0340 C.ar   26  HIS26       0.0818
     24  ND1       60.4520    3.9280    9.7670 N.ar   26  HIS26      -0.2268
     25  CD2       62.0410    4.8010   11.0100 C.ar   26  HIS26       0.1154
     26  CE1       61.5110    4.0820    8.9990 C.ar   26  HIS26       0.1986
     27  NE2       62.4890    4.5930    9.7330 N.ar   26  HIS26      -0.2212
     28  N         60.6540    1.2450   11.7700 N.am   27  SER27      -0.1938
     29  CA        61.6560    0.1790   11.9030 C.3    27  SER27       0.2055
     30  C         62.7770    0.3360   10.8920 C.2    27  SER27       0.2644
     31  O         62.5520    0.7370    9.7560 O.2    27  SER27      -0.2714
     32  CB        60.9590   -1.1260   11.6500 C.3    27  SER27       0.2130
     33  OG        60.2270   -1.4900   12.8250 O.3    27  SER27      -0.2179
     34  N         63.9850   -0.0360   11.2580 N.am   28  SER28      -0.1935
     35  CA        65.1030    0.0610   10.3540 C.3    28  SER28       0.2055
     36  C         66.1530   -1.0570   10.5560 C.2    28  SER28       0.2643
     37  O         66.2520   -1.6620   11.6100 O.2    28  SER28      -0.2714
     38  CB        65.7540    1.3920   10.6030 C.3    28  SER28       0.2130
     39  OG        66.6850    1.6080    9.5660 O.3    28  SER28      -0.2179
     40  N         66.9670   -1.2950    9.5370 N.am   29  PHE29      -0.1959
     41  CA        68.1360   -2.1740    9.6530 C.3    29  PHE29       0.1771
     42  C         69.3470   -1.4070   10.0590 C.2    29  PHE29       0.2619
     43  O         70.2970   -2.0130   10.5690 O.2    29  PHE29      -0.2715
     44  CB        68.4210   -2.9210    8.3750 C.3    29  PHE29       0.0574
     45  CG        67.4500   -4.0160    8.0950 C.ar   29  PHE29      -0.0200
     46  CD1       67.5710   -5.2600    8.7220 C.ar   29  PHE29      -0.0042
     47  CD2       66.4550   -3.8400    7.1760 C.ar   29  PHE29      -0.0042
     48  CE1       66.6820   -6.3030    8.4470 C.ar   29  PHE29      -0.0003
     49  CE2       65.5470   -4.9000    6.8690 C.ar   29  PHE29      -0.0003
     50  CZ        65.6510   -6.1180    7.5250 C.ar   29  PHE29      -0.0000
     51  N         69.3130   -0.0890    9.8810 N.am   30  LYS30      -0.1977
     52  CA        70.3690    0.7710   10.4090 C.3    30  LYS30       0.1596
     53  C         70.2500    0.8950   11.9210 C.2    30  LYS30       0.2287
     54  O         69.2500    1.2190   12.4530 O.2    30  LYS30      -0.2864
     55  CB        70.3870    2.1800    9.7610 C.3    30  LYS30       0.0298
     56  CG        70.5580    2.1200    8.2810 C.3    30  LYS30       0.0038
     57  CD        69.9670    3.2880    7.4820 C.3    30  LYS30       0.0206
     58  CE        69.7690    2.8260    6.0190 C.3    30  LYS30       0.1093
     59  NZ        68.8800    3.7610    5.2940 N.3    30  LYS30      -0.1314
     60  N         65.4730  -10.6330   13.0070 N.3    41  VAL41      -0.1245
     61  CA        64.7100  -11.2690   11.9180 C.3    41  VAL41       0.1561
     62  C         65.6170  -12.1170   11.0060 C.2    41  VAL41       0.2260
     63  O         66.6820  -11.6440   10.5470 O.2    41  VAL41      -0.2867
     64  CB        63.9810  -10.1970   11.1030 C.3    41  VAL41       0.0252
     65  CG1       63.1530  -10.7790    9.9760 C.3    41  VAL41       0.0019
     66  CG2       63.1290   -9.3800   12.0700 C.3    41  VAL41       0.0019
     67  N         66.6850  -13.7720    7.7090 N.3    43  ILE43      -0.1245
     68  CA        66.4980  -13.5930    6.2480 C.3    43  ILE43       0.1561
     69  C         67.5020  -14.4790    5.4690 C.2    43  ILE43       0.2260
     70  O         68.7250  -14.2490    5.5370 O.2    43  ILE43      -0.2867
     71  CB        66.5720  -12.0880    5.8380 C.3    43  ILE43       0.0252
     72  CG1       65.6120  -11.2570    6.7080 C.3    43  ILE43       0.0019
     73  CG2       66.3230  -11.8470    4.2860 C.3    43  ILE43       0.0019
     74  CD1       65.8100   -9.7650    6.5650 C.3    43  ILE43       0.0001
     75  N         66.5070   -5.7210   13.7720 N.3    50  VAL50      -0.1245
     76  CA        65.6170   -4.6450   13.2790 C.3    50  VAL50       0.1561
     77  C         65.3500   -3.6900   14.4540 C.2    50  VAL50       0.2260
     78  O         64.8480   -4.1280   15.5120 O.2    50  VAL50      -0.2867
     79  CB        64.2950   -5.1630   12.6940 C.3    50  VAL50       0.0252
     80  CG1       63.3870   -3.9600   12.3230 C.3    50  VAL50       0.0019
     81  CG2       64.5440   -6.0490   11.4280 C.3    50  VAL50       0.0019
     82  N         53.8710   -5.7060    5.7890 N.3    77  SER77      -0.1202
     83  CA        55.0880   -6.3650    6.1410 C.3    77  SER77       0.2020
     84  C         54.8000   -7.8040    6.5230 C.2    77  SER77       0.2618
     85  O         53.6500   -8.3370    6.4270 O.2    77  SER77      -0.2717
     86  CB        55.8410   -5.5560    7.2150 C.3    77  SER77       0.2103
     87  OG        55.2300   -5.6880    8.4990 O.3    77  SER77      -0.2182
     88  N         55.8470   -8.4970    6.8740 N.am   78  LEU78      -0.1979
     89  CA        55.7470   -9.9070    6.9300 C.3    78  LEU78       0.1596
     90  C         55.6450  -10.2670    8.3700 C.2    78  LEU78       0.2287
     91  O         56.3510   -9.7040    9.1900 O.2    78  LEU78      -0.2864
     92  CB        57.0060  -10.5400    6.3300 C.3    78  LEU78       0.0297
     93  CG        57.3430  -10.5350    4.8130 C.3    78  LEU78       0.0022
     94  CD1       58.7870  -11.0840    4.5700 C.3    78  LEU78       0.0001
     95  CD2       56.3180  -11.3180    3.9480 C.3    78  LEU78       0.0001
     96  N         57.0090  -12.2190   10.3340 N.3    80  LYS80      -0.1231
     97  CA        58.1590  -12.5860   11.1440 C.3    80  LYS80       0.1693
     98  C         58.7830  -11.3400   11.7260 C.2    80  LYS80       0.2592
     99  O         59.5990  -11.4290   12.6500 O.2    80  LYS80      -0.2718
    100  CB        59.2060  -13.4180   10.3320 C.3    80  LYS80       0.0285
    101  CG        59.8210  -12.6760    9.1300 C.3    80  LYS80       0.0035
    102  CD        60.8640  -13.5680    8.4550 C.3    80  LYS80       0.0206
    103  CE        61.4740  -12.9420    7.2160 C.3    80  LYS80       0.1093
    104  NZ        62.3890  -13.9580    6.5150 N.3    80  LYS80      -0.1314
    105  N         58.4740  -10.1980   11.1300 N.am   81  TYR81      -0.1976
    106  CA        58.8620   -8.9610   11.7170 C.3    81  TYR81       0.1639
    107  C         57.6420   -8.3620   12.4770 C.2    81  TYR81       0.2290
    108  O         57.8030   -7.8090   13.5650 O.2    81  TYR81      -0.2864
    109  CB        59.4270   -7.9860   10.6480 C.3    81  TYR81       0.0560
    110  CG        59.0800   -6.5260   10.9360 C.ar   81  TYR81      -0.0198
    111  CD1       59.7430   -5.8240   11.9200 C.ar   81  TYR81      -0.0009
    112  CD2       58.0650   -5.8740   10.2530 C.ar   81  TYR81      -0.0009
    113  CE1       59.4110   -4.4570   12.2250 C.ar   81  TYR81       0.0417
    114  CE2       57.7300   -4.5070   10.5480 C.ar   81  TYR81       0.0417
    115  CZ        58.4010   -3.8280   11.5480 C.ar   81  TYR81       0.1957
    116  OH        58.0620   -2.5080   11.9050 O.3    81  TYR81      -0.2866
    117  N         51.3310   -9.2950    4.9160 N.3   101  ARG101     -0.1245
    118  CA        51.5930   -9.1510    3.4750 C.3   101  ARG101      0.1563
    119  C         50.7060  -10.0060    2.5760 C.2   101  ARG101      0.2260
    120  O         49.9970   -9.4910    1.7670 O.2   101  ARG101     -0.2867
    121  CB        53.0680   -9.4130    3.1820 C.3   101  ARG101      0.0307
    122  CG        53.4690   -9.4240    1.6550 C.3   101  ARG101      0.0489
    123  CD        54.2390   -8.2320    1.2740 C.3   101  ARG101      0.2205
    124  NE        55.6500   -8.4170    1.5810 N.pl3 101  ARG101     -0.0865
    125  CZ        56.4800   -7.4180    1.9160 C.cat 101  ARG101      0.5346
    126  NH1       56.0520   -6.1700    1.9910 N.pl3 101  ARG101      0.1354
    127  NH2       57.7580   -7.6680    2.1830 N.pl3 101  ARG101      0.1354
@<TRIPOS>BOND
     1   123   124    1
     2   123   122    1
     3   124   125    2
     4   122   121    1
     5   120   119    2
     6   125   126    1
     7   125   127    1
     8   119   118    1
     9   121   118    1
    10   118   117    1
    11    95    93    1
    12    73    71    1
    13    94    93    1
    14    93    92    1
    15    59    58    1
    16    69    70    2
    17    69    68    1
    18    82    83    1
    19    71    68    1
    20    71    72    1
    21    58    57    1
    22    83    84    1
    23    83    86    1
    24    68    67    1
    25    92    89    1
    26    85    84    2
    27   104   103    1
    28    84    88   am
    29    74    72    1
    30    16    15   ar
    31    49    47   ar
    32    49    50   ar
    33    88    89    1
    34    89    90    1
    35    47    45   ar
    36    86    87    1
    37   103   102    1
    38    15    14    1
    39    15    17   ar
    40    57    56    1
    41    50    48   ar
    42    14    13    1
    43    45    44    1
    44    45    46   ar
    45    13    10    1
    46    56    55    1
    47     4     3    2
    48    90    91    2
    49    44    41    1
    50    48    46   ar
    51   102   101    1
    52     5     6    1
    53     5     2    1
    54     8     6   ar
    55    26    27   ar
    56    26    24   ar
    57     6     7   ar
    58   101   100    1
    59     3     2    1
    60     3     9   am
    61    40    41    1
    62    40    36   am
    63    39    38    1
    64     2     1    1
    65    10     9    1
    66    10    11    1
    67    41    42    1
    68    27    25   ar
    69    31    30    2
    70    55    52    1
    71    24    23   ar
    72    51    42   am
    73    51    52    1
    74    12    11    2
    75    65    64    1
    76    42    43    2
    77   112   114   ar
    78   112   110   ar
    79   100    97    1
    80    96    97    1
    81    35    36    1
    82    35    38    1
    83    35    34    1
    84    52    53    1
    85    63    62    2
    86   114   115   ar
    87    36    37    2
    88   109   110    1
    89   109   106    1
    90    30    34   am
    91    30    29    1
    92   110   111   ar
    93    62    61    1
    94    25    23   ar
    95    23    22    1
    96    64    61    1
    97    64    66    1
    98   105   106    1
    99   105    98   am
   100    97    98    1
   101    81    79    1
   102   115   116    1
   103   115   113   ar
   104    32    29    1
   105    32    33    1
   106   106   107    1
   107    98    99    2
   108    28    29    1
   109    28    20   am
   110    61    60    1
   111   111   113   ar
   112    53    54    2
   113    22    19    1
   114    80    79    1
   115    19    20    1
   116    19    18    1
   117   107   108    2
   118    79    76    1
   119    20    21    2
   120    76    75    1
   121    76    77    1
   122    77    78    2
