@<TRIPOS>MOLECULE
tmp/3l0eA00.pdb
 167 157 0 0 0
SMALL
GASTEIGER

@<TRIPOS>ATOM
      1  N         12.7780  -42.1390    2.9540 N.3    61  VAL61      -0.1231
      2  CA        12.7820  -42.0460    4.4330 C.3    61  VAL61       0.1692
      3  C         12.4430  -43.3930    5.1130 C.2    61  VAL61       0.2591
      4  O         13.0470  -43.7490    6.1200 O.2    61  VAL61      -0.2718
      5  CB        11.7930  -40.9550    4.9620 C.3    61  VAL61       0.0266
      6  CG1       11.6850  -41.0100    6.4920 C.3    61  VAL61       0.0020
      7  CG2       12.2040  -39.5640    4.4720 C.3    61  VAL61       0.0020
      8  N         11.4640  -44.1140    4.5700 N.am   62  GLN62      -0.1979
      9  CA        11.1270  -45.4700    5.0320 C.3    62  GLN62       0.1601
     10  C         12.2880  -46.4710    4.8800 C.2    62  GLN62       0.2287
     11  O         12.5640  -47.2220    5.7980 O.2    62  GLN62      -0.2864
     12  CB         9.8690  -45.9860    4.3200 C.3    62  GLN62       0.0394
     13  CG         8.5860  -45.2390    4.7070 C.3    62  GLN62       0.0908
     14  CD         7.4030  -45.4720    3.7640 C.2    62  GLN62       0.2608
     15  OE1        6.2900  -45.0610    4.0590 O.2    62  GLN62      -0.2717
     16  NE2        7.6400  -46.1310    2.6390 N.am   62  GLN62      -0.0878
     17  N         15.0170  -45.3660    7.7070 N.3    65  VAL65      -0.1245
     18  CA        14.6500  -45.7940    9.0540 C.3    65  VAL65       0.1561
     19  C         14.7770  -47.3280    9.1590 C.2    65  VAL65       0.2260
     20  O         15.3890  -47.8390   10.0850 O.2    65  VAL65      -0.2867
     21  CB        13.2290  -45.2980    9.4360 C.3    65  VAL65       0.0252
     22  CG1       12.7020  -46.0080   10.6830 C.3    65  VAL65       0.0019
     23  CG2       13.2370  -43.7990    9.6340 C.3    65  VAL65       0.0019
     24  N         17.4720  -49.2150   11.7140 N.3    69  LYS69      -0.1245
     25  CA        17.0500  -50.1760   12.7260 C.3    69  LYS69       0.1561
     26  C         17.8530  -51.4800   12.6680 C.2    69  LYS69       0.2260
     27  O         18.0230  -52.1500   13.6890 O.2    69  LYS69      -0.2867
     28  CB        15.5560  -50.4630   12.5870 C.3    69  LYS69       0.0271
     29  CG        14.6760  -49.2800   12.9830 C.3    69  LYS69       0.0035
     30  CD        13.2810  -49.3940   12.3960 C.3    69  LYS69       0.0206
     31  CE        12.5090  -50.5700   12.9790 C.3    69  LYS69       0.1093
     32  NZ        11.0690  -50.5260   12.6190 N.3    69  LYS69      -0.1314
     33  N         22.3850  -49.2770   16.8490 N.3    74  PHE74      -0.1227
     34  CA        21.4110  -48.2080   16.6830 C.3    74  PHE74       0.1736
     35  C         20.2320  -48.3020   17.6440 C.2    74  PHE74       0.2595
     36  O         19.9230  -47.3290   18.3340 O.2    74  PHE74      -0.2718
     37  CB        20.9020  -48.1440   15.2350 C.3    74  PHE74       0.0547
     38  CG        19.9990  -46.9810   14.9860 C.ar   74  PHE74      -0.0202
     39  CD1       20.5360  -45.7140   14.7580 C.ar   74  PHE74      -0.0042
     40  CD2       18.6170  -47.1300   15.0510 C.ar   74  PHE74      -0.0042
     41  CE1       19.7130  -44.6290   14.5520 C.ar   74  PHE74      -0.0003
     42  CE2       17.7800  -46.0530   14.8530 C.ar   74  PHE74      -0.0003
     43  CZ        18.3220  -44.8010   14.5940 C.ar   74  PHE74      -0.0000
     44  N         19.5820  -49.4640   17.7040 N.am   75  LEU75      -0.1980
     45  CA        18.4270  -49.6560   18.5960 C.3    75  LEU75       0.1596
     46  C         18.7810  -49.7200   20.0920 C.2    75  LEU75       0.2287
     47  O         17.8910  -49.7540   20.9490 O.2    75  LEU75      -0.2864
     48  CB        17.6330  -50.9060   18.1890 C.3    75  LEU75       0.0297
     49  CG        16.8190  -50.8120   16.8910 C.3    75  LEU75       0.0022
     50  CD1       16.1090  -52.1390   16.6540 C.3    75  LEU75       0.0001
     51  CD2       15.8080  -49.6670   16.8990 C.3    75  LEU75       0.0001
     52  N         15.7410  -43.6930   22.6510 N.3    79  ARG79      -0.1231
     53  CA        14.8050  -43.3420   21.5960 C.3    79  ARG79       0.1694
     54  C         14.9610  -41.9260   21.0410 C.2    79  ARG79       0.2591
     55  O         14.7890  -41.7080   19.8450 O.2    79  ARG79      -0.2718
     56  CB        13.3820  -43.4880   22.1220 C.3    79  ARG79       0.0321
     57  CG        12.3260  -43.3430   21.0580 C.3    79  ARG79       0.0489
     58  CD        12.5760  -44.3380   19.9570 C.3    79  ARG79       0.2205
     59  NE        11.3490  -45.0100   19.5530 N.pl3  79  ARG79      -0.0865
     60  CZ        11.2970  -46.2240   19.0080 C.cat  79  ARG79       0.5346
     61  NH1       12.4140  -46.9290   18.7870 N.pl3  79  ARG79       0.1354
     62  NH2       10.1120  -46.7370   18.6780 N.pl3  79  ARG79       0.1354
     63  N         15.2450  -40.9650   21.9130 N.am   80  GLU80      -0.1979
     64  CA        15.3270  -39.5640   21.5010 C.3    80  GLU80       0.1602
     65  C         16.5680  -39.3010   20.6680 C.2    80  GLU80       0.2287
     66  O         16.5330  -38.4760   19.7520 O.2    80  GLU80      -0.2864
     67  CB        15.2830  -38.6180   22.7100 C.3    80  GLU80       0.0415
     68  CG        13.8770  -38.3940   23.2730 C.3    80  GLU80       0.1163
     69  CD        12.9170  -37.7180   22.2660 C.2    80  GLU80       0.3649
     70  OE1       13.2860  -36.6820   21.6460 O.co2  80  GLU80      -0.2457
     71  OE2       11.7800  -38.2260   22.0980 O.co2  80  GLU80      -0.2457
     72  N         17.9770  -41.7470   18.8120 N.3    82  GLN82      -0.1231
     73  CA        17.5650  -42.3720   17.5510 C.3    82  GLN82       0.1698
     74  C         16.8760  -41.3490   16.6360 C.2    82  GLN82       0.2592
     75  O         17.1790  -41.2630   15.4540 O.2    82  GLN82      -0.2718
     76  CB        16.6200  -43.5580   17.8100 C.3    82  GLN82       0.0381
     77  CG        17.2800  -44.7980   18.4040 C.3    82  GLN82       0.0905
     78  CD        16.2840  -45.8970   18.6740 C.2    82  GLN82       0.2608
     79  OE1       15.2650  -46.0180   17.9780 O.2    82  GLN82      -0.2717
     80  NE2       16.5620  -46.7050   19.6950 N.am   82  GLN82      -0.0878
     81  N         15.9630  -40.5740   17.2140 N.am   83  ILE83      -0.1980
     82  CA        15.1920  -39.5630   16.4890 C.3    83  ILE83       0.1595
     83  C         16.0770  -38.4030   16.0230 C.2    83  ILE83       0.2287
     84  O         15.9840  -37.9790   14.8480 O.2    83  ILE83      -0.2864
     85  CB        14.0100  -39.0290   17.3600 C.3    83  ILE83       0.0276
     86  CG1       12.9320  -40.1110   17.4920 C.3    83  ILE83       0.0022
     87  CG2       13.4100  -37.7550   16.7750 C.3    83  ILE83       0.0022
     88  CD1       11.9100  -39.8440   18.5810 C.3    83  ILE83       0.0001
     89  N         18.3710  -39.5770   13.1630 N.3    86  LEU86      -0.1231
     90  CA        17.6020  -39.7820   11.9160 C.3    86  LEU86       0.1693
     91  C         17.1100  -38.4590   11.3090 C.2    86  LEU86       0.2591
     92  O         17.1110  -38.2810   10.0770 O.2    86  LEU86      -0.2718
     93  CB        16.4230  -40.7560   12.1270 C.3    86  LEU86       0.0284
     94  CG        16.7870  -42.2580   12.2030 C.3    86  LEU86       0.0019
     95  CD1       15.6100  -43.1190   12.6420 C.3    86  LEU86       0.0001
     96  CD2       17.3370  -42.7680   10.8810 C.3    86  LEU86       0.0001
     97  N         16.6930  -37.5240   12.1540 N.am   87  LYS87      -0.1980
     98  CA        16.2670  -36.2260   11.6550 C.3    87  LYS87       0.1596
     99  C         17.4160  -35.5200   10.9070 C.2    87  LYS87       0.2287
    100  O         17.2090  -35.0340    9.7930 O.2    87  LYS87      -0.2864
    101  CB        15.6920  -35.3660   12.7780 C.3    87  LYS87       0.0298
    102  CG        14.2880  -35.7820   13.1810 C.3    87  LYS87       0.0038
    103  CD        13.8320  -35.0900   14.4600 C.3    87  LYS87       0.0206
    104  CE        13.6450  -33.5710   14.2900 C.3    87  LYS87       0.1093
    105  NZ        12.5610  -33.2030   13.3310 N.3    87  LYS87      -0.1314
    106  N         18.8270  -37.7920    7.4680 N.3    90  THR90      -0.1218
    107  CA        17.8910  -38.2040    6.4350 C.3    90  THR90       0.1862
    108  C         18.2330  -37.5770    5.1150 C.2    90  THR90       0.2287
    109  O         18.3700  -38.2800    4.1310 O.2    90  THR90      -0.2866
    110  CB        16.4470  -37.8780    6.8230 C.3    90  THR90       0.1770
    111  OG1       16.0420  -38.8250    7.8050 O.3    90  THR90      -0.2211
    112  CG2       15.5180  -37.9880    5.6430 C.3    90  THR90       0.0375
    113  N          3.1780  -34.7400    5.4320 N.3   233  PRO233     -0.2102
    114  CA         3.3820  -34.6480    6.8870 C.3   233  PRO233      0.1504
    115  C          4.6850  -35.2280    7.4290 C.2   233  PRO233      0.2575
    116  O          5.3310  -34.5810    8.2450 O.2   233  PRO233     -0.2718
    117  CB         2.2010  -35.4370    7.4600 C.3   233  PRO233      0.0282
    118  CG         1.1520  -35.3140    6.4610 C.3   233  PRO233      0.0208
    119  CD         1.8490  -35.3030    5.1220 C.3   233  PRO233      0.0893
    120  N          5.0490  -36.4400    7.0050 N.am  234  LEU234     -0.1980
    121  CA         6.2990  -37.0800    7.4490 C.3   234  LEU234      0.1596
    122  C          7.5010  -36.1940    7.1030 C.2   234  LEU234      0.2287
    123  O          8.3730  -35.9800    7.9460 O.2   234  LEU234     -0.2864
    124  CB         6.4650  -38.4720    6.8150 C.3   234  LEU234      0.0297
    125  CG         7.7450  -39.2660    7.1190 C.3   234  LEU234      0.0022
    126  CD1        7.8220  -39.6670    8.6120 C.3   234  LEU234      0.0001
    127  CD2        7.8330  -40.4860    6.2030 C.3   234  LEU234      0.0001
    128  N          7.4870  -32.7650    6.2330 N.3   236  SER236     -0.1202
    129  CA         7.4470  -31.4870    6.9750 C.3   236  SER236      0.2020
    130  C          7.6880  -31.6430    8.4970 C.2   236  SER236      0.2619
    131  O          8.1330  -30.7030    9.1630 O.2   236  SER236     -0.2717
    132  CB         6.1440  -30.7240    6.6970 C.3   236  SER236      0.2103
    133  OG         5.0070  -31.4410    7.1380 O.3   236  SER236     -0.2182
    134  N          7.4000  -32.8230    9.0450 N.am  237  GLU237     -0.1965
    135  CA         7.7320  -33.1340   10.4430 C.3   237  GLU237      0.1733
    136  C          9.2470  -33.3350   10.6190 C.2   237  GLU237      0.2616
    137  O          9.8800  -32.6610   11.4250 O.2   237  GLU237     -0.2715
    138  CB         6.9840  -34.3870   10.9090 C.3   237  GLU237      0.0429
    139  CG         7.2410  -34.7630   12.3560 C.3   237  GLU237      0.1163
    140  CD         6.7990  -36.1750   12.6950 C.2   237  GLU237      0.3649
    141  OE1        5.5740  -36.4060   12.8260 O.co2 237  GLU237     -0.2457
    142  OE2        7.6820  -37.0480   12.8620 O.co2 237  GLU237     -0.2457
    143  N          9.8220  -34.2640    9.8600 N.am  238  ILE238     -0.1977
    144  CA        11.2600  -34.5660    9.9490 C.3   238  ILE238      0.1596
    145  C         12.1140  -33.3100    9.8030 C.2   238  ILE238      0.2287
    146  O         13.0150  -33.0750   10.6140 O.2   238  ILE238     -0.2864
    147  CB        11.7230  -35.5790    8.8670 C.3   238  ILE238      0.0276
    148  CG1       11.1600  -36.9630    9.1450 C.3   238  ILE238      0.0022
    149  CG2       13.2380  -35.7010    8.8700 C.3   238  ILE238      0.0022
    150  CD1       11.3320  -37.9270    7.9930 C.3   238  ILE238      0.0001
    151  N         11.2930  -30.1990   10.1560 N.3   240  ASP240     -0.1239
    152  CA        10.9540  -29.1160   11.0870 C.3   240  ASP240      0.1674
    153  C         10.3820  -27.8660   10.4070 C.2   240  ASP240      0.2266
    154  O         10.6660  -26.7360   10.8130 O.2   240  ASP240     -0.2867
    155  CB        12.1680  -28.7600   11.9600 C.3   240  ASP240      0.1410
    156  CG        12.5520  -29.8760   12.9420 C.2   240  ASP240      0.3668
    157  OD1       11.7720  -30.8320   13.1550 O.co2 240  ASP240     -0.2456
    158  OD2       13.6630  -29.7950   13.5130 O.co2 240  ASP240     -0.2456
    159  N          7.3150  -26.6680   13.1080 N.3   243  GLU243     -0.1245
    160  CA         7.4230  -26.8250   14.5660 C.3   243  GLU243      0.1567
    161  C          8.8110  -27.3250   14.9910 C.2   243  GLU243      0.2260
    162  O          9.5490  -27.9050   14.1860 O.2   243  GLU243     -0.2867
    163  CB         6.3220  -27.7910   15.0350 C.3   243  GLU243      0.0388
    164  CG         6.2460  -28.0820   16.5300 C.3   243  GLU243      0.1160
    165  CD         5.0570  -28.9890   16.8680 C.2   243  GLU243      0.3649
    166  OE1        5.0540  -29.5930   17.9690 O.co2 243  GLU243     -0.2457
    167  OE2        4.1330  -29.1020   16.0250 O.co2 243  GLU243     -0.2457
@<TRIPOS>BOND
     1    16    14   am
     2     1     2    1
     3    14    15    2
     4    14    13    1
     5   109   108    2
     6    12    13    1
     7    12     9    1
     8     2     5    1
     9     2     3    1
    10     7     5    1
    11     8     9    1
    12     8     3   am
    13    10     9    1
    14    10    11    2
    15     5     6    1
    16     3     4    2
    17   108   107    1
    18   119   113    1
    19   119   118    1
    20   113   114    1
    21   112   110    1
    22   127   125    1
    23   128   129    1
    24   107   110    1
    25   107   106    1
    26   118   117    1
    27   132   129    1
    28   132   133    1
    29   124   125    1
    30   124   121    1
    31   110   111    1
    32   114   115    1
    33   114   117    1
    34   129   130    1
    35   120   115   am
    36   120   121    1
    37   122   121    1
    38   122   123    2
    39   125   126    1
    40   115   116    2
    41    17    18    1
    42   150   148    1
    43   130   134   am
    44   130   131    2
    45   147   149    1
    46   147   148    1
    47   147   144    1
    48   134   135    1
    49    18    19    1
    50    18    21    1
    51    19    20    2
    52    21    23    1
    53    21    22    1
    54   100    99    2
    55   145   144    1
    56   145   146    2
    57   143   144    1
    58   143   136   am
    59    92    91    2
    60   151   152    1
    61   153   154    2
    62   153   152    1
    63   135   136    1
    64   135   138    1
    65   136   137    2
    66    96    94    1
    67    99    98    1
    68   138   139    1
    69   152   155    1
    70    91    90    1
    71    91    97   am
    72    98    97    1
    73    98   101    1
    74    24    25    1
    75    90    93    1
    76    90    89    1
    77   155   156    1
    78    93    94    1
    79    94    95    1
    80   139   140    1
    81    30    31    1
    82    30    29    1
    83    28    25    1
    84    28    29    1
    85    32    31    1
    86    26    25    1
    87    26    27    2
    88   140   141   ar
    89   140   142   ar
    90   101   102    1
    91   156   157   ar
    92   156   158   ar
    93   159   160    1
    94   102   103    1
    95   105   104    1
    96   162   161    2
    97   104   103    1
    98    41    43   ar
    99    41    39   ar
   100   160   161    1
   101   160   163    1
   102    43    42   ar
   103    39    38   ar
   104    84    83    2
   105    42    40   ar
   106    38    40   ar
   107    38    37    1
   108   163   164    1
   109    37    34    1
   110    75    74    2
   111    83    82    1
   112   167   165   ar
   113    82    81    1
   114    82    85    1
   115   164   165    1
   116    74    81   am
   117    74    73    1
   118    50    49    1
   119    34    33    1
   120    34    35    1
   121    87    85    1
   122   165   166   ar
   123    49    51    1
   124    49    48    1
   125    85    86    1
   126    86    88    1
   127    73    76    1
   128    73    72    1
   129    35    44   am
   130    35    36    2
   131    44    45    1
   132    76    77    1
   133    79    78    2
   134    48    45    1
   135    77    78    1
   136    45    46    1
   137    78    80   am
   138    62    60    1
   139    61    60    1
   140    60    59    2
   141    59    58    1
   142    66    65    2
   143    55    54    2
   144    58    57    1
   145    46    47    2
   146    65    64    1
   147    54    53    1
   148    54    63   am
   149    57    56    1
   150    64    63    1
   151    64    67    1
   152    53    56    1
   153    53    52    1
   154    70    69   ar
   155    71    69   ar
   156    69    68    1
   157    67    68    1
