@<TRIPOS>MOLECULE
tmp/3l0eA01.pdb
 246 234 0 0 0
SMALL
GASTEIGER

@<TRIPOS>ATOM
      1  N          5.3360  -32.8250   -8.9630 N.3    50  PHE50      -0.1241
      2  CA         5.7000  -32.5210   -7.5650 C.3    50  PHE50       0.1605
      3  C          5.3580  -33.6690   -6.5900 C.2    50  PHE50       0.2264
      4  O          6.1940  -34.0780   -5.7770 O.2    50  PHE50      -0.2867
      5  CB         5.0170  -31.2190   -7.1300 C.3    50  PHE50       0.0534
      6  CG         5.3370  -30.7930   -5.7230 C.ar   50  PHE50      -0.0203
      7  CD1        6.5380  -30.1720   -5.4170 C.ar   50  PHE50      -0.0042
      8  CD2        4.4230  -30.9950   -4.6990 C.ar   50  PHE50      -0.0042
      9  CE1        6.8250  -29.7800   -4.1130 C.ar   50  PHE50      -0.0003
     10  CE2        4.7120  -30.5950   -3.4000 C.ar   50  PHE50      -0.0003
     11  CZ         5.9220  -29.9900   -3.1150 C.ar   50  PHE50      -0.0000
     12  N          7.6640  -36.8720   -6.8950 N.3    53  PHE53      -0.1227
     13  CA         8.9150  -36.6600   -6.1650 C.3    53  PHE53       0.1736
     14  C          8.7800  -36.7410   -4.6490 C.2    53  PHE53       0.2596
     15  O          9.6110  -37.3850   -3.9960 O.2    53  PHE53      -0.2718
     16  CB         9.5410  -35.3110   -6.5350 C.3    53  PHE53       0.0547
     17  CG        10.6100  -35.4140   -7.5750 C.ar   53  PHE53      -0.0202
     18  CD1       10.3230  -35.9260   -8.8380 C.ar   53  PHE53      -0.0042
     19  CD2       11.9030  -35.0040   -7.3020 C.ar   53  PHE53      -0.0042
     20  CE1       11.2980  -36.0270   -9.7950 C.ar   53  PHE53      -0.0003
     21  CE2       12.8820  -35.1040   -8.2720 C.ar   53  PHE53      -0.0003
     22  CZ        12.5740  -35.6170   -9.5230 C.ar   53  PHE53      -0.0000
     23  N          7.7600  -36.0940   -4.0810 N.am   54  THR54      -0.1953
     24  CA         7.6060  -36.1120   -2.6180 C.3    54  THR54       0.1897
     25  C          7.2140  -37.5130   -2.1230 C.2    54  THR54       0.2313
     26  O          7.4870  -37.8750   -0.9720 O.2    54  THR54      -0.2863
     27  CB         6.6190  -35.0370   -2.0870 C.3    54  THR54       0.1794
     28  OG1        5.2860  -35.3480   -2.4890 O.3    54  THR54      -0.2208
     29  CG2        6.9940  -33.6430   -2.5860 C.3    54  THR54       0.0378
     30  N          8.4050  -40.3400   -3.6800 N.3    56  LEU56      -0.1231
     31  CA         9.6760  -41.0500   -3.7320 C.3    56  LEU56       0.1693
     32  C         10.5050  -40.6890   -2.4870 C.2    56  LEU56       0.2591
     33  O         11.1940  -41.5510   -1.9130 O.2    56  LEU56      -0.2718
     34  CB        10.4500  -40.7160   -5.0190 C.3    56  LEU56       0.0284
     35  CG         9.8570  -41.1140   -6.3900 C.3    56  LEU56       0.0019
     36  CD1       10.7200  -40.5720   -7.5190 C.3    56  LEU56       0.0001
     37  CD2        9.6710  -42.6340   -6.5160 C.3    56  LEU56       0.0001
     38  N         10.4440  -39.4160   -2.0800 N.am   57  ALA57      -0.1980
     39  CA        11.1410  -38.9590   -0.8690 C.3    57  ALA57       0.1597
     40  C         10.6420  -39.7300    0.3560 C.2    57  ALA57       0.2287
     41  O         11.4530  -40.1750    1.1550 O.2    57  ALA57      -0.2864
     42  CB        11.0030  -37.4410   -0.6710 C.3    57  ALA57       0.0319
     43  N          9.2240  -42.7890    0.4790 N.3    59  ILE59      -0.1231
     44  CA         9.7810  -44.1480    0.3720 C.3    59  ILE59       0.1692
     45  C         11.2620  -44.2030    0.7990 C.2    59  ILE59       0.2592
     46  O         11.6750  -45.1290    1.5100 O.2    59  ILE59      -0.2718
     47  CB         9.6710  -44.6980   -1.0600 C.3    59  ILE59       0.0266
     48  CG1        8.2010  -44.8820   -1.4570 C.3    59  ILE59       0.0019
     49  CG2       10.3940  -46.0210   -1.1600 C.3    59  ILE59       0.0020
     50  CD1        8.0020  -45.0410   -2.9620 C.3    59  ILE59       0.0001
     51  N         12.0430  -43.2120    0.3650 N.am   60  SER60      -0.1952
     52  CA        13.4410  -43.0730    0.7710 C.3    60  SER60       0.1924
     53  C         13.5910  -42.9670    2.2980 C.2    60  SER60       0.2314
     54  O         14.4270  -43.6480    2.8650 O.2    60  SER60      -0.2863
     55  CB        14.0930  -41.8720    0.0830 C.3    60  SER60       0.2116
     56  OG        15.4840  -41.8220    0.3450 O.3    60  SER60      -0.2180
     57  N         12.9610  -46.4820    3.7290 N.3    63  GLU63      -0.1245
     58  CA        14.1890  -47.2740    3.5610 C.3    63  GLU63       0.1567
     59  C         15.2740  -46.9430    4.5910 C.2    63  GLU63       0.2260
     60  O         15.9490  -47.8320    5.1010 O.2    63  GLU63      -0.2867
     61  CB        14.8040  -47.0250    2.1910 C.3    63  GLU63       0.0388
     62  CG        14.1170  -47.7010    1.0210 C.3    63  GLU63       0.1160
     63  CD        14.9330  -47.5520   -0.2660 C.2    63  GLU63       0.3649
     64  OE1       15.9060  -46.7410   -0.2500 O.co2  63  GLU63      -0.2457
     65  OE2       14.6050  -48.2310   -1.2880 O.co2  63  GLU63      -0.2457
     66  N         18.3990  -36.2620    5.1020 N.3    91  ILE91      -0.1245
     67  CA        18.7710  -35.5690    3.8740 C.3    91  ILE91       0.1561
     68  C         20.1220  -36.0580    3.3110 C.2    91  ILE91       0.2260
     69  O         20.2820  -36.2180    2.0920 O.2    91  ILE91      -0.2867
     70  CB        18.7740  -34.0270    4.0650 C.3    91  ILE91       0.0252
     71  CG1       18.9620  -33.3430    2.7130 C.3    91  ILE91       0.0019
     72  CG2       19.8520  -33.5630    5.0840 C.3    91  ILE91       0.0019
     73  CD1       17.9060  -33.6970    1.7400 C.3    91  ILE91       0.0001
     74  N         19.7570  -39.5910    1.9210 N.3    94  MET94      -0.1230
     75  CA        19.0050  -39.4260    0.6680 C.3    94  MET94       0.1702
     76  C         19.9190  -39.0160   -0.4910 C.2    94  MET94       0.2592
     77  O         19.7630  -39.5040   -1.6110 O.2    94  MET94      -0.2718
     78  CB        17.9150  -38.3570    0.8120 C.3    94  MET94       0.0401
     79  CG        16.6220  -38.8040    1.4600 C.3    94  MET94       0.0596
     80  SD        15.4820  -37.3980    1.6030 S.3    94  MET94      -0.1393
     81  CE        14.0090  -38.1640    2.2490 C.3    94  MET94       0.0692
     82  N         20.8510  -38.1020   -0.2140 N.am   95  LEU95      -0.1980
     83  CA        21.8070  -37.5970   -1.2170 C.3    95  LEU95       0.1596
     84  C         22.9080  -38.6240   -1.5770 C.2    95  LEU95       0.2287
     85  O         23.3110  -38.7100   -2.7280 O.2    95  LEU95      -0.2864
     86  CB        22.4280  -36.2680   -0.7480 C.3    95  LEU95       0.0297
     87  CG        21.5230  -35.0090   -0.7100 C.3    95  LEU95       0.0022
     88  CD1       22.0610  -33.9360    0.2580 C.3    95  LEU95       0.0001
     89  CD2       21.3250  -34.4130   -2.1020 C.3    95  LEU95       0.0001
     90  N         22.3410  -41.8300   -1.4990 N.3    97  GLU97      -0.1231
     91  CA        21.5390  -42.7920   -2.2580 C.3    97  GLU97       0.1699
     92  C         21.1920  -42.2970   -3.6610 C.2    97  GLU97       0.2592
     93  O         21.1000  -43.0940   -4.5900 O.2    97  GLU97      -0.2718
     94  CB        20.2390  -43.1110   -1.5140 C.3    97  GLU97       0.0402
     95  CG        20.3480  -44.2410   -0.5190 C.3    97  GLU97       0.1161
     96  CD        20.7880  -45.5410   -1.1640 C.2    97  GLU97       0.3649
     97  OE1       20.4470  -45.8090   -2.3660 O.co2  97  GLU97      -0.2457
     98  OE2       21.4940  -46.2900   -0.4620 O.co2  97  GLU97      -0.2457
     99  N         20.9660  -40.9910   -3.7900 N.am   98  THR98      -0.1953
    100  CA        20.8310  -40.3460   -5.0910 C.3    98  THR98       0.1897
    101  C         22.1420  -40.4680   -5.8890 C.2    98  THR98       0.2313
    102  O         22.1170  -40.8050   -7.0800 O.2    98  THR98      -0.2863
    103  CB        20.4480  -38.8620   -4.9380 C.3    98  THR98       0.1794
    104  OG1       19.2660  -38.7530   -4.1360 O.3    98  THR98      -0.2208
    105  CG2       20.2100  -38.2130   -6.2950 C.3    98  THR98       0.0378
    106  N         22.6690  -43.7750   -7.4460 N.3   101  ARG101     -0.1245
    107  CA        21.7810  -44.0060   -8.6030 C.3   101  ARG101      0.1563
    108  C         22.0270  -43.0920   -9.8050 C.2   101  ARG101      0.2260
    109  O         21.2870  -43.1350  -10.7960 O.2   101  ARG101     -0.2867
    110  CB        20.3290  -43.8480   -8.1610 C.3   101  ARG101      0.0307
    111  CG        19.8940  -44.8930   -7.1820 C.3   101  ARG101      0.0489
    112  CD        18.7800  -44.4040   -6.3200 C.3   101  ARG101      0.2205
    113  NE        18.6300  -45.2930   -5.1850 N.pl3 101  ARG101     -0.0865
    114  CZ        17.8510  -46.3650   -5.1580 C.cat 101  ARG101      0.5346
    115  NH1       17.0970  -46.7070   -6.2040 N.pl3 101  ARG101      0.1354
    116  NH2       17.8200  -47.0990   -4.0530 N.pl3 101  ARG101      0.1354
    117  N         15.4020  -43.5050   -9.9170 N.3   111  PHE111     -0.1227
    118  CA        14.7830  -43.8370   -8.6280 C.3   111  PHE111      0.1736
    119  C         13.9550  -45.1270   -8.7760 C.2   111  PHE111      0.2595
    120  O         13.3360  -45.3350   -9.8280 O.2   111  PHE111     -0.2718
    121  CB        13.9060  -42.6770   -8.1570 C.3   111  PHE111      0.0547
    122  CG        14.6720  -41.4100   -7.8390 C.ar  111  PHE111     -0.0202
    123  CD1       15.7230  -41.4180   -6.9280 C.ar  111  PHE111     -0.0042
    124  CD2       14.3270  -40.2020   -8.4400 C.ar  111  PHE111     -0.0042
    125  CE1       16.4180  -40.2510   -6.6320 C.ar  111  PHE111     -0.0003
    126  CE2       15.0120  -39.0360   -8.1390 C.ar  111  PHE111     -0.0003
    127  CZ        16.0600  -39.0650   -7.2320 C.ar  111  PHE111     -0.0000
    128  N         13.9710  -45.9940   -7.7510 N.am  112  LEU112     -0.1980
    129  CA        13.3120  -47.3170   -7.8090 C.3   112  LEU112      0.1596
    130  C         13.7840  -48.1100   -9.0540 C.2   112  LEU112      0.2287
    131  O         14.9510  -47.9960   -9.4340 O.2   112  LEU112     -0.2864
    132  CB        11.7740  -47.1780   -7.7080 C.3   112  LEU112      0.0297
    133  CG        11.2200  -46.5850   -6.3850 C.3   112  LEU112      0.0022
    134  CD1        9.6950  -46.5810   -6.3430 C.3   112  LEU112      0.0001
    135  CD2       11.7640  -47.3210   -5.1600 C.3   112  LEU112      0.0001
    136  N         14.0740  -32.6300  -12.6660 N.3   122  PHE122     -0.1241
    137  CA        14.1350  -32.1520  -11.2730 C.3   122  PHE122      0.1605
    138  C         13.5330  -30.7580  -11.1660 C.2   122  PHE122      0.2264
    139  O         12.8510  -30.4480  -10.2090 O.2   122  PHE122     -0.2867
    140  CB        15.5690  -32.1150  -10.7470 C.3   122  PHE122      0.0534
    141  CG        16.0360  -33.4070  -10.1460 C.ar  122  PHE122     -0.0203
    142  CD1       16.0150  -34.5800  -10.8840 C.ar  122  PHE122     -0.0042
    143  CD2       16.5100  -33.4480   -8.8400 C.ar  122  PHE122     -0.0042
    144  CE1       16.4440  -35.7650  -10.3390 C.ar  122  PHE122     -0.0003
    145  CE2       16.9470  -34.6320   -8.2890 C.ar  122  PHE122     -0.0003
    146  CZ        16.9120  -35.7950   -9.0380 C.ar  122  PHE122     -0.0000
    147  N          9.7720  -31.0000  -11.4090 N.3   125  ALA125     -0.1231
    148  CA         9.2340  -31.4980  -10.1410 C.3   125  ALA125      0.1694
    149  C          9.1540  -30.4050   -9.0580 C.2   125  ALA125      0.2593
    150  O          8.7580  -30.6890   -7.9400 O.2   125  ALA125     -0.2718
    151  CB        10.0690  -32.6780   -9.6370 C.3   125  ALA125      0.0304
    152  N          9.5320  -29.1650   -9.3760 N.am  126  GLY126     -0.1942
    153  CA         9.4030  -28.0410   -8.4320 C.3   126  GLY126      0.2014
    154  C         10.6740  -27.6410   -7.6870 C.2   126  GLY126      0.2638
    155  O         10.6150  -26.8410   -6.7500 O.2   126  GLY126     -0.2714
    156  N         11.8200  -28.1910   -8.0940 N.am  127  LEU127     -0.1977
    157  CA        13.1000  -27.8980   -7.4370 C.3   127  LEU127      0.1596
    158  C         13.8010  -26.7260   -8.1270 C.2   127  LEU127      0.2287
    159  O         13.6560  -26.5230   -9.3310 O.2   127  LEU127     -0.2864
    160  CB        14.0100  -29.1450   -7.3940 C.3   127  LEU127      0.0297
    161  CG        13.4890  -30.3140   -6.5380 C.3   127  LEU127      0.0022
    162  CD1       14.1410  -31.6410   -6.9040 C.3   127  LEU127      0.0001
    163  CD2       13.6450  -30.0280   -5.0580 C.3   127  LEU127      0.0001
    164  N         19.5580  -25.8120   -5.8620 N.3   131  PHE131     -0.1241
    165  CA        19.6530  -27.1300   -5.2540 C.3   131  PHE131      0.1605
    166  C         20.0070  -28.2140   -6.2710 C.2   131  PHE131      0.2264
    167  O         20.7590  -29.1370   -5.9640 O.2   131  PHE131     -0.2867
    168  CB        18.3290  -27.4730   -4.5690 C.3   131  PHE131      0.0534
    169  CG        18.3590  -28.7600   -3.7840 C.ar  131  PHE131     -0.0203
    170  CD1       19.3880  -29.0180   -2.8740 C.ar  131  PHE131     -0.0042
    171  CD2       17.3470  -29.7010   -3.9370 C.ar  131  PHE131     -0.0042
    172  CE1       19.4120  -30.1970   -2.1470 C.ar  131  PHE131     -0.0003
    173  CE2       17.3580  -30.8810   -3.2020 C.ar  131  PHE131     -0.0003
    174  CZ        18.3960  -31.1290   -2.3110 C.ar  131  PHE131     -0.0000
    175  N         23.3300  -31.0930   -6.2710 N.3   135  ILE135     -0.1245
    176  CA        22.9510  -32.5140   -6.2530 C.3   135  ILE135      0.1561
    177  C         23.6710  -33.2910   -7.3580 C.2   135  ILE135      0.2260
    178  O         24.3040  -34.3130   -7.0990 O.2   135  ILE135     -0.2867
    179  CB        21.4060  -32.7290   -6.4170 C.3   135  ILE135      0.0252
    180  CG1       20.6410  -32.3090   -5.1570 C.3   135  ILE135      0.0019
    181  CG2       21.0860  -34.2040   -6.7190 C.3   135  ILE135      0.0019
    182  CD1       19.1050  -32.2320   -5.3710 C.3   135  ILE135      0.0001
    183  N         19.6790  -27.6800    1.0390 N.3   217  HIS217     -0.1241
    184  CA        18.3180  -28.2530    1.0880 C.3   217  HIS217      0.1621
    185  C         17.3470  -27.5120    2.0350 C.2   217  HIS217      0.2264
    186  O         16.1800  -27.3340    1.7000 O.2   217  HIS217     -0.2867
    187  CB        18.3840  -29.7350    1.4730 C.3   217  HIS217      0.0745
    188  CG        17.0430  -30.3660    1.6880 C.ar  217  HIS217      0.0817
    189  ND1       16.4840  -30.5140    2.9390 N.ar  217  HIS217     -0.2268
    190  CD2       16.1510  -30.8840    0.8120 C.ar  217  HIS217      0.1154
    191  CE1       15.3060  -31.0980    2.8230 C.ar  217  HIS217      0.1986
    192  NE2       15.0850  -31.3400    1.5440 N.ar  217  HIS217     -0.2212
    193  N         16.2280  -24.6140    0.1880 N.3   220  GLN220     -0.1231
    194  CA        15.1900  -25.1000   -0.7480 C.3   220  GLN220      0.1698
    195  C         13.8230  -25.2590   -0.0480 C.2   220  GLN220      0.2592
    196  O         12.7970  -24.8320   -0.5950 O.2   220  GLN220     -0.2718
    197  CB        15.6400  -26.4180   -1.4170 C.3   220  GLN220      0.0381
    198  CG        14.5320  -27.3080   -2.0460 C.3   220  GLN220      0.0905
    199  CD        14.0710  -26.8080   -3.4100 C.2   220  GLN220      0.2608
    200  OE1       14.7700  -26.9640   -4.4090 O.2   220  GLN220     -0.2717
    201  NE2       12.8830  -26.2120   -3.4530 N.am  220  GLN220     -0.0878
    202  N         13.8310  -25.8520    1.1560 N.am  221  VAL221     -0.1980
    203  CA        12.6180  -26.0710    1.9710 C.3   221  VAL221      0.1595
    204  C         11.9420  -24.7440    2.3680 C.2   221  VAL221      0.2287
    205  O         10.7510  -24.5780    2.1420 O.2   221  VAL221     -0.2864
    206  CB        12.9120  -26.9430    3.2480 C.3   221  VAL221      0.0276
    207  CG1       11.7740  -26.8640    4.2430 C.3   221  VAL221      0.0022
    208  CG2       13.1640  -28.3940    2.8720 C.3   221  VAL221      0.0022
    209  N         10.2780  -23.3400   -0.7570 N.3   224  LEU224     -0.1245
    210  CA         8.9730  -23.9560   -1.0610 C.3   224  LEU224      0.1561
    211  C          7.8660  -23.2280   -0.3010 C.2   224  LEU224      0.2260
    212  O          6.8870  -22.7840   -0.9110 O.2   224  LEU224     -0.2867
    213  CB         8.9450  -25.4500   -0.6830 C.3   224  LEU224      0.0270
    214  CG         9.5860  -26.4510   -1.6430 C.3   224  LEU224      0.0019
    215  CD1        9.8340  -27.7870   -0.9470 C.3   224  LEU224      0.0001
    216  CD2        8.7010  -26.6190   -2.8730 C.3   224  LEU224      0.0001
    217  N          4.3780  -29.8890    1.2420 N.3   231  LEU231     -0.1245
    218  CA         5.1350  -31.1260    1.5280 C.3   231  LEU231      0.1561
    219  C          4.2880  -32.0480    2.4200 C.2   231  LEU231      0.2260
    220  O          3.6200  -31.5660    3.3410 O.2   231  LEU231     -0.2867
    221  CB         6.4870  -30.8430    2.1970 C.3   231  LEU231      0.0270
    222  CG         7.7290  -30.5320    1.3400 C.3   231  LEU231      0.0019
    223  CD1        8.9750  -30.5190    2.2240 C.3   231  LEU231      0.0001
    224  CD2        7.9390  -31.5120    0.1870 C.3   231  LEU231      0.0001
    225  N          7.5230  -35.6780    5.8700 N.3   235  LEU235     -0.1245
    226  CA         8.6070  -34.8060    5.3940 C.3   235  LEU235      0.1561
    227  C          8.6330  -33.4340    6.1020 C.2   235  LEU235      0.2260
    228  O          9.6910  -32.9850    6.5410 O.2   235  LEU235     -0.2867
    229  CB         8.5410  -34.6250    3.8530 C.3   235  LEU235      0.0270
    230  CG         8.8060  -35.8140    2.9190 C.3   235  LEU235      0.0019
    231  CD1        9.0240  -35.2970    1.4650 C.3   235  LEU235      0.0001
    232  CD2       10.0000  -36.6540    3.3620 C.3   235  LEU235      0.0001
    233  N         11.8140  -32.5150    8.7690 N.3   239  TRP239     -0.1241
    234  CA        12.5930  -31.3270    8.4310 C.3   239  TRP239      0.1605
    235  C         12.1250  -30.0570    9.1190 C.2   239  TRP239      0.2264
    236  O         12.5320  -28.9710    8.7170 O.2   239  TRP239     -0.2867
    237  CB        12.6410  -31.1200    6.9080 C.3   239  TRP239      0.0550
    238  CG        13.3520  -32.2260    6.1900 C.ar  239  TRP239      0.0003
    239  CD1       14.4030  -32.9710    6.6570 C.ar  239  TRP239      0.0946
    240  CD2       13.0710  -32.7150    4.8780 C.ar  239  TRP239      0.0152
    241  NE1       14.7910  -33.8870    5.7160 N.ar  239  TRP239     -0.2442
    242  CE2       13.9890  -33.7540    4.6130 C.ar  239  TRP239      0.0810
    243  CE3       12.1320  -32.3730    3.8920 C.ar  239  TRP239      0.0012
    244  CZ2       13.9940  -34.4600    3.4050 C.ar  239  TRP239      0.0191
    245  CZ3       12.1420  -33.0650    2.6960 C.ar  239  TRP239      0.0001
    246  CH2       13.0670  -34.0990    2.4620 C.ar  239  TRP239      0.0015
@<TRIPOS>BOND
     1   136   137    1
     2   147   148    1
     3   137   138    1
     4   137   140    1
     5   138   139    2
     6   142   144   ar
     7   142   141   ar
     8   109   108    2
     9   140   141    1
    10   144   146   ar
    11   141   143   ar
    12   148   151    1
    13   148   149    1
    14   117   118    1
    15   120   119    2
    16   108   107    1
    17    20    22   ar
    18    20    18   ar
    19    22    21   ar
    20   131   130    2
    21   152   149   am
    22   152   153    1
    23   159   158    2
    24   149   150    2
    25   130   129    1
    26   146   145   ar
    27     1     2    1
    28   143   145   ar
    29    18    17   ar
    30   119   118    1
    31   119   128   am
    32   118   121    1
    33   107   110    1
    34   107   106    1
    35   124   126   ar
    36   124   122   ar
    37   153   154    1
    38    21    19   ar
    39   110   111    1
    40   121   122    1
    41   126   127   ar
    42   158   157    1
    43   156   154   am
    44   156   157    1
    45   122   123   ar
    46   129   128    1
    47   129   132    1
    48   132   133    1
    49   154   155    2
    50    17    19   ar
    51    17    16    1
    52     2     5    1
    53     2     3    1
    54    36    35    1
    55   157   160    1
    56   160   161    1
    57   177   178    2
    58   177   176    1
    59   127   125   ar
    60   111   112    1
    61     5     6    1
    62   102   101    2
    63   123   125   ar
    64   162   161    1
    65    12    13    1
    66   181   179    1
    67     3     4    2
    68   161   163    1
    69    16    13    1
    70    37    35    1
    71   179   176    1
    72   179   180    1
    73    35    34    1
    74   133   134    1
    75   133   135    1
    76   112   113    1
    77   105   103    1
    78   166   167    2
    79   166   165    1
    80   175   176    1
    81   115   114    1
    82    13    14    1
    83   101   100    1
    84   164   165    1
    85     6     7   ar
    86     6     8   ar
    87     7     9   ar
    88   182   180    1
    89   165   168    1
    90   113   114    2
    91   114   116    1
    92   100   103    1
    93   100    99    1
    94    34    31    1
    95   103   104    1
    96     8    10   ar
    97    14    23   am
    98    14    15    2
    99    93    92    2
   100   168   169    1
   101   200   199    2
   102     9    11   ar
   103    23    24    1
   104   171   169   ar
   105   171   173   ar
   106    99    92   am
   107   169   170   ar
   108    31    30    1
   109    31    32    1
   110    92    91    1
   111   201   199   am
   112   199   198    1
   113    10    11   ar
   114   173   174   ar
   115    50    48    1
   116   170   172   ar
   117   216   214    1
   118    85    84    2
   119    24    25    1
   120    24    27    1
   121    29    27    1
   122    28    27    1
   123    32    38   am
   124    32    33    2
   125    97    96   ar
   126   174   172   ar
   127    91    94    1
   128    91    90    1
   129    25    26    2
   130    89    87    1
   131    38    39    1
   132   198   197    1
   133   214   215    1
   134   214   213    1
   135    77    76    2
   136    84    83    1
   137    94    95    1
   138    48    47    1
   139   197   194    1
   140    65    63   ar
   141    83    86    1
   142    83    82    1
   143    96    95    1
   144    96    98   ar
   145    49    47    1
   146   210   209    1
   147   210   213    1
   148   210   211    1
   149    47    44    1
   150   212   211    2
   151    39    42    1
   152    39    40    1
   153    86    87    1
   154   194   195    1
   155   194   193    1
   156    87    88    1
   157   196   195    2
   158    76    82   am
   159    76    75    1
   160    63    64   ar
   161    63    62    1
   162   195   202   am
   163    55    56    1
   164    55    52    1
   165   224   222    1
   166    40    41    2
   167    51    52    1
   168    51    45   am
   169    44    43    1
   170    44    45    1
   171    75    78    1
   172    75    74    1
   173    52    53    1
   174    45    46    2
   175    78    79    1
   176   190   192   ar
   177   190   188   ar
   178    62    61    1
   179   183   184    1
   180   184   187    1
   181   184   185    1
   182   202   203    1
   183   217   218    1
   184   222   221    1
   185   222   223    1
   186    79    80    1
   187   231   230    1
   188   187   188    1
   189   218   221    1
   190   218   219    1
   191   192   191   ar
   192    80    81    1
   193   188   189   ar
   194   186   185    2
   195    73    71    1
   196   203   204    1
   197   203   206    1
   198    69    68    2
   199   205   204    2
   200    61    58    1
   201    53    54    2
   202   219   220    2
   203   246   245   ar
   204   246   244   ar
   205   245   243   ar
   206    71    70    1
   207   191   189   ar
   208   208   206    1
   209   230   232    1
   210   230   229    1
   211   206   207    1
   212    68    67    1
   213   244   242   ar
   214    58    57    1
   215    58    59    1
   216   229   226    1
   217    67    70    1
   218    67    66    1
   219   243   240   ar
   220    70    72    1
   221    59    60    2
   222   242   240   ar
   223   242   241   ar
   224   240   238   ar
   225   226   225    1
   226   226   227    1
   227   241   239   ar
   228   227   228    2
   229   238   239   ar
   230   238   237    1
   231   237   234    1
   232   234   233    1
   233   234   235    1
   234   236   235    2
