@<TRIPOS>MOLECULE
tmp/3l0kA00.pdb
 187 176 0 0 0
SMALL
GASTEIGER

@<TRIPOS>ATOM
      1  N         31.4180   -5.8440   16.3850 N.3    35  SER35      -0.1217
      2  CA        30.3110   -5.9020   17.3220 C.3    35  SER35       0.1889
      3  C         30.7880   -6.6820   18.5340 C.2    35  SER35       0.2288
      4  O         30.8530   -7.9030   18.5150 O.2    35  SER35      -0.2866
      5  CB        29.0930   -6.5500   16.6770 C.3    35  SER35       0.2089
      6  OG        27.9650   -6.4760   17.5270 O.3    35  SER35      -0.2183
      7  N         30.1450   -8.1300   21.2960 N.3    37  ASP37      -0.1239
      8  CA        29.0070   -8.6830   22.0070 C.3    37  ASP37       0.1674
      9  C         29.4740   -9.6670   23.0640 C.2    37  ASP37       0.2266
     10  O         29.4020  -10.8880   22.9020 O.2    37  ASP37      -0.2867
     11  CB        28.0320   -9.2910   21.0100 C.3    37  ASP37       0.1410
     12  CG        27.3410   -8.2270   20.1940 C.2    37  ASP37       0.3668
     13  OD1       27.2700   -7.0800   20.6890 O.co2  37  ASP37      -0.2456
     14  OD2       26.8900   -8.5220   19.0730 O.co2  37  ASP37      -0.2456
     15  N         31.3380   -1.4030   18.1670 N.3    59  LYS59      -0.1245
     16  CA        29.9530   -1.3210   18.5800 C.3    59  LYS59       0.1561
     17  C         29.7420   -2.0780   19.8820 C.2    59  LYS59       0.2260
     18  O         30.1160   -3.2450   20.0140 O.2    59  LYS59      -0.2867
     19  CB        29.0430   -1.8760   17.4730 C.3    59  LYS59       0.0271
     20  CG        27.5860   -1.6800   17.7590 C.3    59  LYS59       0.0035
     21  CD        26.7070   -2.2910   16.6680 C.3    59  LYS59       0.0206
     22  CE        26.6470   -3.8250   16.7320 C.3    59  LYS59       0.1093
     23  NZ        25.9230   -4.2910   17.9330 N.3    59  LYS59      -0.1314
     24  N         27.0390   -3.0870   23.2670 N.3    61  HIS61      -0.1241
     25  CA        25.7380   -3.2130   23.9200 C.3    61  HIS61       0.1621
     26  C         26.0160   -3.1090   25.4140 C.2    61  HIS61       0.2264
     27  O         26.2490   -4.1050   26.0830 O.2    61  HIS61      -0.2867
     28  CB        25.0850   -4.5640   23.6030 C.3    61  HIS61       0.0745
     29  CG        24.3330   -4.5930   22.3070 C.ar   61  HIS61       0.0817
     30  ND1       24.5590   -5.5180   21.3110 N.ar   61  HIS61      -0.2268
     31  CD2       23.3280   -3.8020   21.8650 C.ar   61  HIS61       0.1154
     32  CE1       23.7150   -5.2910   20.3150 C.ar   61  HIS61       0.1986
     33  NE2       22.9650   -4.2540   20.6270 N.ar   61  HIS61      -0.2212
     34  N         30.4360    3.1220   19.0760 N.3    88  PHE88      -0.1241
     35  CA        29.0350    3.1460   18.6680 C.3    88  PHE88       0.1605
     36  C         28.2470    2.2960   19.6560 C.2    88  PHE88       0.2264
     37  O         28.3990    1.0860   19.6780 O.2    88  PHE88      -0.2867
     38  CB        28.9370    2.6020   17.2230 C.3    88  PHE88       0.0534
     39  CG        27.5460    2.1920   16.7480 C.ar   88  PHE88      -0.0203
     40  CD1       26.3770    2.7110   17.2760 C.ar   88  PHE88      -0.0042
     41  CD2       27.4530    1.2710   15.7030 C.ar   88  PHE88      -0.0042
     42  CE1       25.1570    2.2870   16.7900 C.ar   88  PHE88      -0.0003
     43  CE2       26.2340    0.8480   15.2290 C.ar   88  PHE88      -0.0003
     44  CZ        25.0840    1.3340   15.7800 C.ar   88  PHE88      -0.0000
     45  N         24.9350    0.5970   20.5000 N.3    90  ASP90      -0.1239
     46  CA        23.8250    0.0510   19.7220 C.3    90  ASP90       0.1674
     47  C         22.5990   -0.0520   20.6180 C.2    90  ASP90       0.2266
     48  O         22.0780   -1.1260   20.8940 O.2    90  ASP90      -0.2867
     49  CB        24.2480   -1.3060   19.1600 C.3    90  ASP90       0.1410
     50  CG        23.2340   -1.9110   18.2050 C.2    90  ASP90       0.3668
     51  OD1       22.2060   -1.2710   17.9050 O.co2  90  ASP90      -0.2456
     52  OD2       23.4910   -3.0520   17.7890 O.co2  90  ASP90      -0.2456
     53  N         19.5470    1.3940   20.0950 N.3    92  LYS92      -0.1245
     54  CA        18.2610    1.3480   19.3820 C.3    92  LYS92       0.1561
     55  C         17.1890    2.1370   20.1270 C.2    92  LYS92       0.2260
     56  O         16.1210    1.6180   20.4590 O.2    92  LYS92      -0.2867
     57  CB        17.8240   -0.1000   19.0920 C.3    92  LYS92       0.0271
     58  CG        18.8440   -0.8690   18.2850 C.3    92  LYS92       0.0035
     59  CD        18.3250   -2.2240   17.7850 C.3    92  LYS92       0.0206
     60  CE        19.1890   -2.7770   16.6570 C.3    92  LYS92       0.1093
     61  NZ        20.5340   -3.1950   17.1170 N.3    92  LYS92      -0.1314
     62  N         22.3060    4.6920   17.6910 N.3   119  ASN119     -0.1240
     63  CA        21.2910    4.4730   16.6880 C.3   119  ASN119      0.1653
     64  C         19.8970    4.5610   17.2720 C.2   119  ASN119      0.2266
     65  O         19.6860    4.5160   18.4960 O.2   119  ASN119     -0.2867
     66  CB        21.5130    3.1630   15.9260 C.3   119  ASN119      0.1155
     67  CG        21.5130    1.9440   16.8160 C.2   119  ASN119      0.2627
     68  OD1       21.4620    2.0530   18.0480 O.2   119  ASN119     -0.2716
     69  ND2       21.5050    0.7550   16.1960 N.am  119  ASN119     -0.0877
     70  N         17.8300    3.3500   11.8230 N.3   146  ILE146     -0.1245
     71  CA        17.6910    1.9510   11.4220 C.3   146  ILE146      0.1561
     72  C         16.6540    1.8880   10.2770 C.2   146  ILE146      0.2260
     73  O         15.4640    1.9510   10.4930 O.2   146  ILE146     -0.2867
     74  CB        17.3180    1.0390   12.6020 C.3   146  ILE146      0.0252
     75  CG1       18.4100    1.1130   13.6830 C.3   146  ILE146      0.0019
     76  CG2       17.0670   -0.4060   12.1280 C.3   146  ILE146      0.0019
     77  CD1       17.9060    0.6920   15.0580 C.3   146  ILE146      0.0001
     78  N         16.7310   -0.5590    7.6920 N.3   148  GLU148     -0.1231
     79  CA        16.4340   -1.9660    7.4090 C.3   148  GLU148      0.1699
     80  C         17.0560   -2.7810    8.5290 C.2   148  GLU148      0.2592
     81  O         18.0090   -2.3450    9.1490 O.2   148  GLU148     -0.2718
     82  CB        17.0630   -2.4140    6.0750 C.3   148  GLU148      0.0402
     83  CG        16.5390   -1.6570    4.8480 C.3   148  GLU148      0.1161
     84  CD        17.2500   -1.9860    3.5530 C.2   148  GLU148      0.3649
     85  OE1       18.4490   -2.2990    3.5530 O.co2 148  GLU148     -0.2457
     86  OE2       16.5700   -1.9210    2.5060 O.co2 148  GLU148     -0.2457
     87  N         16.5250   -3.9730    8.7710 N.am  149  MET149     -0.1965
     88  CA        17.0950   -4.9120    9.7470 C.3   149  MET149      0.1736
     89  C         17.4430   -6.2080    9.0360 C.2   149  MET149      0.2617
     90  O         16.8830   -6.5460    7.9920 O.2   149  MET149     -0.2715
     91  CB        16.1250   -5.1630   10.9140 C.3   149  MET149      0.0427
     92  CG        15.9590   -3.9510   11.8170 C.3   149  MET149      0.0599
     93  SD        15.2220   -4.2990   13.3970 S.3   149  MET149     -0.1393
     94  CE        16.5030   -5.2070   14.2730 C.3   149  MET149      0.0692
     95  N         18.3560   -6.9530    9.6360 N.am  150  SER150     -0.1936
     96  CA        18.8910   -8.1860    9.0500 C.3   150  SER150      0.2055
     97  C         18.0930   -9.4380    9.3740 C.2   150  SER150      0.2643
     98  O         18.3420  -10.5100    8.8100 O.2   150  SER150     -0.2714
     99  CB        20.3240   -8.4100    9.5310 C.3   150  SER150      0.2130
    100  OG        20.3900   -8.5340   10.9470 O.3   150  SER150     -0.2179
    101  N         17.1310   -9.3080   10.2770 N.am  151  SER151     -0.1949
    102  CA        16.4620  -10.4520   10.8460 C.3   151  SER151      0.1924
    103  C         15.2090  -10.8560   10.0610 C.2   151  SER151      0.2314
    104  O         14.5450  -10.0430    9.3990 O.2   151  SER151     -0.2863
    105  CB        16.1510  -10.1650   12.3270 C.3   151  SER151      0.2116
    106  OG        15.6530   -8.8480   12.4760 O.3   151  SER151     -0.2180
    107  N         21.7310    2.2470    9.7120 N.3   179  ILE179     -0.1245
    108  CA        21.8460    0.7930    9.7480 C.3   179  ILE179      0.1561
    109  C         20.9180    0.2720    8.6260 C.2   179  ILE179      0.2260
    110  O         19.7290    0.5780    8.5980 O.2   179  ILE179     -0.2867
    111  CB        21.4010    0.2150   11.0950 C.3   179  ILE179      0.0252
    112  CG1       22.1640    0.8590   12.2610 C.3   179  ILE179      0.0019
    113  CG2       21.5900   -1.2760   11.1070 C.3   179  ILE179      0.0019
    114  CD1       23.6430    0.7560   12.1700 C.3   179  ILE179      0.0001
    115  N         24.8870   -4.8510    9.4100 N.3   195  PRO195     -0.2102
    116  CA        25.0440   -6.0460   10.2180 C.3   195  PRO195      0.1504
    117  C         24.4550   -7.2680    9.4970 C.2   195  PRO195      0.2576
    118  O         23.9440   -7.1530    8.3890 O.2   195  PRO195     -0.2718
    119  CB        24.2400   -5.7070   11.4650 C.3   195  PRO195      0.0282
    120  CG        23.0590   -4.9630   10.8940 C.3   195  PRO195      0.0208
    121  CD        23.6060   -4.1790    9.7060 C.3   195  PRO195      0.0893
    122  N         24.4860   -8.4300   10.1320 N.am  196  GLY196     -0.1943
    123  CA        24.1230   -9.6740    9.4660 C.3   196  GLY196      0.2014
    124  C         25.1700  -10.0950    8.4440 C.2   196  GLY196      0.2638
    125  O         24.8440  -10.4580    7.3130 O.2   196  GLY196     -0.2714
    126  N         26.4320  -10.0850    8.8670 N.am  197  VAL197     -0.1977
    127  CA        27.5740  -10.3700    7.9910 C.3   197  VAL197      0.1596
    128  C         28.4510  -11.5060    8.5270 C.2   197  VAL197      0.2287
    129  O         28.9070  -11.4770    9.6750 O.2   197  VAL197     -0.2864
    130  CB        28.4410   -9.1260    7.7650 C.3   197  VAL197      0.0276
    131  CG1       29.6510   -9.4450    6.9270 C.3   197  VAL197      0.0022
    132  CG2       27.6100   -8.0600    7.0910 C.3   197  VAL197      0.0022
    133  N         18.4680  -14.3360   12.9340 N.3   208  GLN208     -0.1245
    134  CA        19.5770  -13.6400   12.2830 C.3   208  GLN208      0.1566
    135  C         19.8440  -14.3190   10.9400 C.2   208  GLN208      0.2260
    136  O         19.7420  -15.5450   10.8230 O.2   208  GLN208     -0.2867
    137  CB        20.8370  -13.6580   13.1440 C.3   208  GLN208      0.0367
    138  CG        22.0570  -12.9330   12.5530 C.3   208  GLN208      0.0905
    139  CD        21.8490  -11.4500   12.3120 C.2   208  GLN208      0.2608
    140  OE1       20.9160  -11.0380   11.6180 O.2   208  GLN208     -0.2717
    141  NE2       22.7640  -10.6390   12.8320 N.am  208  GLN208     -0.0878
    142  N         22.6720  -14.1180    7.5790 N.3   210  TYR210     -0.1241
    143  CA        23.9710  -13.6230    7.1500 C.3   210  TYR210      0.1605
    144  C         24.1280  -13.5030    5.6390 C.2   210  TYR210      0.2264
    145  O         23.6310  -14.3240    4.8660 O.2   210  TYR210     -0.2867
    146  CB        25.1040  -14.4890    7.7190 C.3   210  TYR210      0.0534
    147  CG        25.1770  -14.4250    9.2250 C.ar  210  TYR210     -0.0201
    148  CD1       25.4590  -13.2330    9.8680 C.ar  210  TYR210     -0.0009
    149  CD2       24.9570  -15.5410    9.9990 C.ar  210  TYR210     -0.0009
    150  CE1       25.5000  -13.1340   11.2520 C.ar  210  TYR210      0.0417
    151  CE2       24.9970  -15.4650   11.3910 C.ar  210  TYR210      0.0417
    152  CZ        25.2830  -14.2640   12.0010 C.ar  210  TYR210      0.1957
    153  OH        25.3340  -14.2070   13.3810 O.3   210  TYR210     -0.2866
    154  N         29.2970   -4.7380    9.9460 N.3   226  ILE226     -0.1231
    155  CA        29.2510   -4.9080   11.4010 C.3   226  ILE226      0.1692
    156  C         29.2590   -6.4100   11.6330 C.2   226  ILE226      0.2592
    157  O         28.3670   -7.1050   11.1460 O.2   226  ILE226     -0.2718
    158  CB        27.9460   -4.3100   11.9740 C.3   226  ILE226      0.0266
    159  CG1       27.9170   -2.7970   11.7980 C.3   226  ILE226      0.0019
    160  CG2       27.7630   -4.6900   13.4650 C.3   226  ILE226      0.0020
    161  CD1       26.5910   -2.1760   12.1410 C.3   226  ILE226      0.0001
    162  N         30.2710   -6.9060   12.3480 N.am  227  VAL227     -0.1966
    163  CA        30.4650   -8.3400   12.5360 C.3   227  VAL227      0.1727
    164  C         30.6720   -8.6460   14.0010 C.2   227  VAL227      0.2617
    165  O         31.5560   -8.0830   14.6350 O.2   227  VAL227     -0.2715
    166  CB        31.6970   -8.8380   11.7360 C.3   227  VAL227      0.0290
    167  CG1       31.9030  -10.3310   11.9280 C.3   227  VAL227      0.0023
    168  CG2       31.5340   -8.5030   10.2460 C.3   227  VAL227      0.0023
    169  N         29.8330   -9.5280   14.5240 N.am  228  GLY228     -0.1940
    170  CA        29.9220   -9.9970   15.9080 C.3   228  GLY228      0.2014
    171  C         30.4720  -11.4000   15.9790 C.2   228  GLY228      0.2639
    172  O         31.6860  -11.5780   15.9690 O.2   228  GLY228     -0.2714
    173  N         29.5840  -12.3930   16.0150 N.am  229  ARG229     -0.1963
    174  CA        29.9810  -13.7950   16.1930 C.3   229  ARG229      0.1729
    175  C         30.9850  -14.3390   15.1800 C.2   229  ARG229      0.2616
    176  O         31.7960  -15.1880   15.5170 O.2   229  ARG229     -0.2715
    177  CB        28.7370  -14.6800   16.2690 C.3   229  ARG229      0.0348
    178  CG        28.0190  -14.5650   17.6000 C.3   229  ARG229      0.0492
    179  CD        26.6150  -15.1280   17.5890 C.3   229  ARG229      0.2205
    180  NE        25.6840  -14.2340   16.9040 N.pl3 229  ARG229     -0.0865
    181  CZ        24.3820  -14.4660   16.7390 C.cat 229  ARG229      0.5346
    182  NH1       23.8160  -15.5740   17.2040 N.pl3 229  ARG229      0.1354
    183  NH2       23.6340  -13.5600   16.1320 N.pl3 229  ARG229      0.1354
    184  N         30.9370  -13.8570   13.9500 N.am  230  GLY230     -0.1955
    185  CA        31.8970  -14.2620   12.9390 C.3   230  GLY230      0.1869
    186  C         33.3250  -14.0310   13.3870 C.2   230  GLY230      0.2309
    187  O         34.2440  -14.7510   12.9940 O.2   230  GLY230     -0.2863
@<TRIPOS>BOND
     1    86    84   ar
     2    84    85   ar
     3    84    83    1
     4    83    82    1
     5   145   144    2
     6   144   143    1
     7    82    79    1
     8   131   130    1
     9   132   130    1
    10   143   142    1
    11   143   146    1
    12   125   124    2
    13    79    78    1
    14    79    80    1
    15   146   147    1
    16   130   127    1
    17   127   128    1
    18   127   126    1
    19    90    89    2
    20   118   117    2
    21   124   126   am
    22   124   123    1
    23   128   129    2
    24    80    87   am
    25    80    81    2
    26   110   109    2
    27   109   108    1
    28    87    88    1
    29    98    97    2
    30    89    95   am
    31    89    88    1
    32    96    97    1
    33    96    99    1
    34    96    95    1
    35   147   148   ar
    36   147   149   ar
    37    97   101   am
    38   104   103    2
    39   115   121    1
    40   115   116    1
    41   123   122    1
    42   117   122   am
    43   117   116    1
    44    99   100    1
    45   121   120    1
    46   107   108    1
    47    88    91    1
    48   108   111    1
    49   148   150   ar
    50   154   155    1
    51   149   151   ar
    52   103   102    1
    53   116   119    1
    54   168   166    1
    55   101   102    1
    56    72    73    2
    57    72    71    1
    58   136   135    2
    59   102   105    1
    60   120   119    1
    61    91    92    1
    62   135   134    1
    63   111   113    1
    64   111   112    1
    65   157   156    2
    66   150   152   ar
    67   151   152   ar
    68   155   156    1
    69   155   158    1
    70    71    70    1
    71    71    74    1
    72   140   139    2
    73   156   162   am
    74   166   167    1
    75   166   163    1
    76   159   158    1
    77   159   161    1
    78    92    93    1
    79   158   160    1
    80   152   153    1
    81    76    74    1
    82   114   112    1
    83   134   133    1
    84   134   137    1
    85   139   138    1
    86   139   141   am
    87   105   106    1
    88   162   163    1
    89   163   164    1
    90   138   137    1
    91    74    75    1
    92   185   186    1
    93   185   184    1
    94   187   186    2
    95    93    94    1
    96    75    77    1
    97   184   175   am
    98   164   169   am
    99   164   165    2
   100   169   170    1
   101   175   176    2
   102   175   174    1
   103    43    41   ar
   104    43    44   ar
   105    41    39   ar
   106    44    42   ar
   107   170   171    1
   108    66    63    1
   109    66    67    1
   110   172   171    2
   111   171   173   am
   112   173   174    1
   113   183   181    1
   114   174   177    1
   115    69    67   am
   116   177   178    1
   117     1     2    1
   118    60    61    1
   119    60    59    1
   120    21    22    1
   121    21    20    1
   122     5     2    1
   123     5     6    1
   124    63    64    1
   125    63    62    1
   126    22    23    1
   127   181   180    2
   128   181   182    1
   129    39    38    1
   130    39    40   ar
   131    42    40   ar
   132    67    68    2
   133   180   179    1
   134    38    35    1
   135    64    65    2
   136     2     3    1
   137    19    20    1
   138    19    16    1
   139   179   178    1
   140    59    58    1
   141    52    50   ar
   142    51    50   ar
   143    15    16    1
   144    50    49    1
   145    58    57    1
   146     4     3    2
   147    16    17    1
   148    35    34    1
   149    35    36    1
   150    14    12   ar
   151    57    54    1
   152    49    46    1
   153    54    53    1
   154    54    55    1
   155    36    37    2
   156    46    45    1
   157    46    47    1
   158    17    18    2
   159    55    56    2
   160    12    13   ar
   161    12    11    1
   162    32    33   ar
   163    32    30   ar
   164    47    48    2
   165    33    31   ar
   166    11     8    1
   167     7     8    1
   168    30    29   ar
   169    31    29   ar
   170     8     9    1
   171    29    28    1
   172    10     9    2
   173    24    25    1
   174    28    25    1
   175    25    26    1
   176    26    27    2
