@<TRIPOS>MOLECULE
tmp/3l0qB00.pdb
 88 85 0 0 0
SMALL
GASTEIGER

@<TRIPOS>ATOM
      1  N          2.2650  -25.7180   12.4280 N.3    11  GLY11      -0.1210
      2  CA         3.0160  -26.9050   12.7380 C.3    11  GLY11       0.1956
      3  C          4.0600  -27.1440   11.6890 C.2    11  GLY11       0.2612
      4  O          4.3150  -26.2890   10.8690 O.2    11  GLY11      -0.2717
      5  N          4.6890  -28.3090   11.7430 N.am   12  THR12      -0.1952
      6  CA         5.7020  -28.6610   10.7770 C.3    12  THR12       0.1897
      7  C          5.0670  -28.8930    9.4090 C.2    12  THR12       0.2313
      8  O          5.6030  -28.4920    8.3740 O.2    12  THR12      -0.2863
      9  CB         6.3630  -29.9540   11.2290 C.3    12  THR12       0.1794
     10  OG1        7.0120  -29.7170   12.4870 O.3    12  THR12      -0.2208
     11  CG2        7.3510  -30.4620   10.2040 C.3    12  THR12       0.0378
     12  N          6.0570  -23.5550   15.2180 N.3    79  THR79      -0.1203
     13  CA         7.3010  -24.2250   15.5300 C.3    79  THR79       0.1994
     14  C          8.3940  -23.1340   15.6720 C.2    79  THR79       0.2618
     15  O          8.2610  -22.0310   15.1450 O.2    79  THR79      -0.2717
     16  CB         7.7030  -25.1720   14.3910 C.3    79  THR79       0.1784
     17  OG1        7.9730  -24.4130   13.2060 O.3    79  THR79      -0.2211
     18  CG2        6.5910  -26.1190   14.0840 C.3    79  THR79       0.0376
     19  N          9.4780  -23.4470   16.3770 N.am   80  CYS80      -0.1969
     20  CA        10.5280  -22.4770   16.5900 C.3    80  CYS80       0.1712
     21  C         11.4690  -22.5830   15.4080 C.2    80  CYS80       0.2296
     22  O         12.6400  -22.9770   15.5460 O.2    80  CYS80      -0.2864
     23  CB        11.2770  -22.7020   17.9240 C.3    80  CYS80       0.0983
     24  SG        11.6040  -24.4500   18.2470 S.3    80  CYS80      -0.0798
     25  N         12.7330  -25.7320   12.2810 N.3   107  TRP107     -0.1241
     26  CA        13.2780  -26.1180   13.5720 C.3   107  TRP107      0.1605
     27  C         14.1150  -27.3860   13.4970 C.2   107  TRP107      0.2264
     28  O         15.1680  -27.4640   14.1710 O.2   107  TRP107     -0.2867
     29  CB        12.1410  -26.2940   14.5820 C.3   107  TRP107      0.0550
     30  CG        11.2100  -27.4340   14.2750 C.ar  107  TRP107      0.0003
     31  CD1       10.1200  -27.4230   13.4360 C.ar  107  TRP107      0.0946
     32  CD2       11.3010  -28.7650   14.7860 C.ar  107  TRP107      0.0152
     33  NE1        9.5290  -28.6680   13.4140 N.ar  107  TRP107     -0.2442
     34  CE2       10.2380  -29.5040   14.2370 C.ar  107  TRP107      0.0810
     35  CE3       12.2020  -29.4090   15.6420 C.ar  107  TRP107      0.0012
     36  CZ2       10.0300  -30.8840   14.5360 C.ar  107  TRP107      0.0191
     37  CZ3       11.9840  -30.7960   15.9560 C.ar  107  TRP107      0.0001
     38  CH2       10.9300  -31.4980   15.3900 C.ar  107  TRP107      0.0015
     39  N          5.6450  -20.1900   21.2140 N.3   247  ILE247     -0.1231
     40  CA         6.0370  -21.4230   20.5400 C.3   247  ILE247      0.1692
     41  C          4.9410  -22.4930   20.7220 C.2   247  ILE247      0.2592
     42  O          4.2100  -22.4790   21.7310 O.2   247  ILE247     -0.2718
     43  CB         7.4050  -21.9420   21.1230 C.3   247  ILE247      0.0266
     44  CG1        8.5440  -21.0020   20.7410 C.3   247  ILE247      0.0019
     45  CG2        7.7350  -23.3220   20.5950 C.3   247  ILE247      0.0020
     46  CD1        9.8180  -21.2080   21.5320 C.3   247  ILE247      0.0001
     47  N          4.8100  -23.3680   19.7330 N.am  248  ASP248     -0.1960
     48  CA         3.7230  -24.3330   19.7030 C.3   248  ASP248      0.1840
     49  C          3.5680  -25.1750   20.9610 C.2   248  ASP248      0.2621
     50  O          2.4640  -25.2660   21.5120 O.2   248  ASP248     -0.2715
     51  CB         3.7390  -25.1900   18.4150 C.3   248  ASP248      0.1450
     52  CG         5.0170  -25.9720   18.2120 C.2   248  ASP248      0.3671
     53  OD1        5.9620  -25.8850   19.0160 O.co2 248  ASP248     -0.2456
     54  OD2        5.0580  -26.7010   17.1840 O.co2 248  ASP248     -0.2456
     55  N          4.6470  -25.7970   21.4410 N.am  249  ALA249     -0.1977
     56  CA         4.5000  -26.6240   22.6360 C.3   249  ALA249      0.1597
     57  C          4.0080  -25.8240   23.8320 C.2   249  ALA249      0.2287
     58  O          3.2340  -26.3240   24.6870 O.2   249  ALA249     -0.2864
     59  CB         5.8210  -27.3340   22.9720 C.3   249  ALA249      0.0319
     60  N          3.0030  -32.5610   26.6720 N.3   276  ILE276     -0.1231
     61  CA         2.5330  -32.1940   25.3460 C.3   276  ILE276      0.1692
     62  C          3.0120  -33.2660   24.3830 C.2   276  ILE276      0.2593
     63  O          4.1320  -33.2600   23.9850 O.2   276  ILE276     -0.2718
     64  CB         3.0380  -30.8010   24.9380 C.3   276  ILE276      0.0266
     65  CG1        2.7270  -29.7600   26.0150 C.3   276  ILE276      0.0019
     66  CG2        2.5070  -30.3850   23.6150 C.3   276  ILE276      0.0020
     67  CD1        1.3380  -29.6920   26.4700 C.3   276  ILE276      0.0001
     68  N          2.1150  -34.2000   24.0730 N.am  277  GLY277     -0.1942
     69  CA         2.4480  -35.4630   23.4100 C.3   277  GLY277      0.2014
     70  C          2.3460  -35.3820   21.9140 C.2   277  GLY277      0.2639
     71  O          2.0110  -34.3270   21.3460 O.2   277  GLY277     -0.2714
     72  N          2.6910  -36.4650   21.2390 N.am  278  GLY278     -0.1939
     73  CA         2.7930  -36.4260   19.7990 C.3   278  GLY278      0.2014
     74  C          3.8700  -37.4090   19.4330 C.2   278  GLY278      0.2640
     75  O          4.0730  -38.3680   20.1600 O.2   278  GLY278     -0.2714
     76  N          4.5970  -37.1550   18.3620 N.am  279  THR279     -0.1936
     77  CA         5.6510  -38.0910   17.9750 C.3   279  THR279      0.2028
     78  C          6.7530  -38.0060   19.0330 C.2   279  THR279      0.2642
     79  O          7.4650  -38.9570   19.2510 O.2   279  THR279     -0.2714
     80  CB         6.2440  -37.7200   16.6290 C.3   279  THR279      0.1808
     81  OG1        6.7390  -36.3820   16.6900 O.3   279  THR279     -0.2208
     82  CG2        5.1340  -37.7130   15.5930 C.3   279  THR279      0.0379
     83  N          6.9050  -36.8270   19.6410 N.am  280  SER280     -0.1949
     84  CA         7.8180  -36.6610   20.7690 C.3   280  SER280      0.1924
     85  C          6.9700  -36.0200   21.8910 C.2   280  SER280      0.2314
     86  O          5.8600  -35.5780   21.6360 O.2   280  SER280     -0.2863
     87  CB         8.9780  -35.7130   20.4190 C.3   280  SER280      0.2116
     88  OG         8.5210  -34.4300   20.0620 O.3   280  SER280     -0.2180
@<TRIPOS>BOND
     1     8     7    2
     2     7     6    1
     3    11     9    1
     4     6     9    1
     5     6     5    1
     6     4     3    2
     7     9    10    1
     8     3     5   am
     9     3     2    1
    10    25    26    1
    11     1     2    1
    12    17    16    1
    13    33    31   ar
    14    33    34   ar
    15    31    30   ar
    16    27    26    1
    17    27    28    2
    18    26    29    1
    19    18    16    1
    20    34    36   ar
    21    34    32   ar
    22    30    29    1
    23    30    32   ar
    24    16    13    1
    25    36    38   ar
    26    32    35   ar
    27    15    14    2
    28    12    13    1
    29    38    37   ar
    30    21    22    2
    31    21    20    1
    32    13    14    1
    33    82    80    1
    34    35    37   ar
    35    14    19   am
    36    19    20    1
    37    20    23    1
    38    80    81    1
    39    80    77    1
    40    54    52   ar
    41    23    24    1
    42    77    76    1
    43    77    78    1
    44    52    51    1
    45    52    53   ar
    46    76    74   am
    47    51    48    1
    48    78    79    2
    49    78    83   am
    50    74    73    1
    51    74    75    2
    52    83    84    1
    53    48    47    1
    54    48    49    1
    55    47    41   am
    56    73    72    1
    57    88    87    1
    58    87    84    1
    59    40    41    1
    60    40    43    1
    61    40    39    1
    62    45    43    1
    63    41    42    2
    64    44    43    1
    65    44    46    1
    66    84    85    1
    67    49    55   am
    68    49    50    2
    69    72    70   am
    70    71    70    2
    71    55    56    1
    72    86    85    2
    73    70    69    1
    74    56    59    1
    75    56    57    1
    76    69    68    1
    77    66    64    1
    78    57    58    2
    79    63    62    2
    80    68    62   am
    81    62    61    1
    82    64    61    1
    83    64    65    1
    84    61    60    1
    85    65    67    1
