@<TRIPOS>MOLECULE
tmp/3l0qA00.pdb
 142 137 0 0 0
SMALL
GASTEIGER

@<TRIPOS>ATOM
      1  N        -11.8720  -25.1330  -11.2060 N.3    11  THR11      -0.1218
      2  CA       -10.7610  -24.3750  -11.7640 C.3    11  THR11       0.1862
      3  C         -9.7570  -23.9400  -10.7120 C.2    11  THR11       0.2287
      4  O         -8.5550  -24.0130  -10.9260 O.2    11  THR11      -0.2866
      5  CB       -11.3250  -23.1310  -12.5020 C.3    11  THR11       0.1770
      6  OG1      -12.1760  -23.6050  -13.5430 O.3    11  THR11      -0.2211
      7  CG2      -10.2190  -22.3060  -13.0700 C.3    11  THR11       0.0375
      8  N        -13.1410  -30.4520  -13.9110 N.3    78  THR78      -0.1203
      9  CA       -13.1850  -29.7060  -15.1580 C.3    78  THR78       0.1994
     10  C        -12.6960  -30.5760  -16.3020 C.2    78  THR78       0.2618
     11  O        -11.9250  -31.5260  -16.0940 O.2    78  THR78      -0.2717
     12  CB       -12.2670  -28.4640  -15.1110 C.3    78  THR78       0.1784
     13  OG1      -10.8980  -28.8720  -14.9540 O.3    78  THR78      -0.2211
     14  CG2      -12.6450  -27.5480  -13.9140 C.3    78  THR78       0.0376
     15  N        -13.1120  -30.2400  -17.5200 N.am   79  CYS79      -0.1969
     16  CA       -12.6810  -31.0310  -18.6680 C.3    79  CYS79       0.1712
     17  C        -11.2840  -30.6750  -19.1920 C.2    79  CYS79       0.2296
     18  O        -11.1130  -30.2740  -20.3610 O.2    79  CYS79      -0.2864
     19  CB       -13.7280  -30.9290  -19.7930 C.3    79  CYS79       0.0983
     20  SG       -14.1050  -29.1620  -20.1170 S.3    79  CYS79      -0.0798
     21  N         -9.0970  -26.5890  -19.1030 N.3   106  TRP106     -0.1241
     22  CA       -10.2090  -26.5020  -20.0310 C.3   106  TRP106      0.1605
     23  C        -10.2130  -25.1410  -20.7380 C.2   106  TRP106      0.2264
     24  O        -10.4360  -25.0870  -21.9730 O.2   106  TRP106     -0.2867
     25  CB       -11.5340  -26.7140  -19.2710 C.3   106  TRP106      0.0550
     26  CG       -11.8420  -25.6550  -18.2260 C.ar  106  TRP106      0.0003
     27  CD1      -11.4120  -25.6100  -16.9180 C.ar  106  TRP106      0.0946
     28  CD2      -12.6070  -24.4710  -18.4270 C.ar  106  TRP106      0.0152
     29  NE1      -11.8900  -24.4760  -16.3040 N.ar  106  TRP106     -0.2442
     30  CE2      -12.6200  -23.7640  -17.2220 C.ar  106  TRP106      0.0810
     31  CE3      -13.2820  -23.9450  -19.5230 C.ar  106  TRP106      0.0012
     32  CZ2      -13.3080  -22.5630  -17.0810 C.ar  106  TRP106      0.0191
     33  CZ3      -13.9430  -22.7550  -19.3900 C.ar  106  TRP106      0.0001
     34  CH2      -13.9680  -22.0820  -18.1900 C.ar  106  TRP106      0.0015
     35  N        -11.3660  -25.3910  -26.7410 N.3   135  GLU135     -0.1245
     36  CA       -11.3290  -25.8460  -25.3510 C.3   135  GLU135      0.1567
     37  C        -11.3880  -27.3560  -25.2570 C.2   135  GLU135      0.2260
     38  O        -10.9660  -27.9330  -24.2680 O.2   135  GLU135     -0.2867
     39  CB       -12.4200  -25.1620  -24.5080 C.3   135  GLU135      0.0388
     40  CG       -12.2530  -23.6280  -24.4310 C.3   135  GLU135      0.1160
     41  CD       -13.3680  -22.9130  -23.6690 C.2   135  GLU135      0.3649
     42  OE1      -14.2480  -23.5740  -23.0530 O.co2 135  GLU135     -0.2457
     43  OE2      -13.3640  -21.6500  -23.6990 O.co2 135  GLU135     -0.2457
     44  N        -16.0310  -34.5790  -25.1200 N.3   181  LYS181     -0.1245
     45  CA       -14.8220  -33.8210  -25.4020 C.3   181  LYS181      0.1561
     46  C        -13.7760  -34.4740  -26.2760 C.2   181  LYS181      0.2260
     47  O        -12.7990  -33.8150  -26.6280 O.2   181  LYS181     -0.2867
     48  CB       -14.1580  -33.3890  -24.0960 C.3   181  LYS181      0.0271
     49  CG       -15.1410  -32.8700  -23.0720 C.3   181  LYS181      0.0035
     50  CD       -15.6840  -31.4900  -23.4910 C.3   181  LYS181      0.0206
     51  CE       -16.4400  -30.8830  -22.3340 C.3   181  LYS181      0.1093
     52  NZ       -16.9880  -29.5530  -22.7160 N.3   181  LYS181     -0.1314
     53  N        -17.7690  -35.1530  -15.8460 N.3   246  ILE246     -0.1231
     54  CA       -17.2560  -33.7980  -15.9150 C.3   246  ILE246      0.1692
     55  C        -18.0420  -32.9680  -14.9230 C.2   246  ILE246      0.2592
     56  O        -19.1900  -33.3140  -14.6330 O.2   246  ILE246     -0.2718
     57  CB       -17.4300  -33.2500  -17.3570 C.3   246  ILE246      0.0266
     58  CG1      -16.4050  -33.9370  -18.2610 C.3   246  ILE246      0.0019
     59  CG2      -17.2300  -31.7250  -17.3970 C.3   246  ILE246      0.0020
     60  CD1      -16.6800  -33.6570  -19.6840 C.3   246  ILE246      0.0001
     61  N        -17.4360  -31.8920  -14.3900 N.am  247  ASP247     -0.1960
     62  CA       -18.0390  -31.1300  -13.3070 C.3   247  ASP247      0.1840
     63  C        -19.4410  -30.6070  -13.6050 C.2   247  ASP247      0.2622
     64  O        -20.3580  -30.7900  -12.8170 O.2   247  ASP247     -0.2715
     65  CB       -17.1000  -29.9680  -12.8090 C.3   247  ASP247      0.1450
     66  CG       -16.7370  -28.9520  -13.9060 C.2   247  ASP247      0.3671
     67  OD1      -17.1190  -29.1270  -15.0740 O.co2 247  ASP247     -0.2456
     68  OD2      -16.0450  -27.9700  -13.5550 O.co2 247  ASP247     -0.2456
     69  N        -19.6240  -29.9360  -14.7450 N.am  248  ALA248     -0.1963
     70  CA       -20.9250  -29.3750  -15.0360 C.3   248  ALA248      0.1728
     71  C        -21.9750  -30.4690  -15.0780 C.2   248  ALA248      0.2616
     72  O        -23.0950  -30.2840  -14.5940 O.2   248  ALA248     -0.2715
     73  CB       -20.8900  -28.6090  -16.3730 C.3   248  ALA248      0.0334
     74  N        -21.6090  -31.6130  -15.6200 N.am  249  HIS249     -0.1973
     75  CA       -22.5100  -32.7800  -15.6690 C.3   249  HIS249      0.1656
     76  C        -22.8510  -33.4190  -14.3080 C.2   249  HIS249      0.2291
     77  O        -23.9450  -33.9480  -14.1000 O.2   249  HIS249     -0.2864
     78  CB       -21.9570  -33.7880  -16.6340 C.3   249  HIS249      0.0771
     79  CG       -21.5340  -33.1630  -17.9330 C.ar  249  HIS249      0.0820
     80  ND1      -20.5210  -32.2320  -18.0140 N.ar  249  HIS249     -0.2267
     81  CD2      -22.0010  -33.3350  -19.1890 C.ar  249  HIS249      0.1154
     82  CE1      -20.3620  -31.8800  -19.2840 C.ar  249  HIS249      0.1986
     83  NE2      -21.2570  -32.5310  -20.0080 N.ar  249  HIS249     -0.2212
     84  N        -17.5860  -20.7880  -11.8940 N.3   278  THR278     -0.1203
     85  CA       -16.6190  -19.9960  -12.6870 C.3   278  THR278      0.1994
     86  C        -17.1770  -19.7040  -14.0740 C.2   278  THR278      0.2619
     87  O        -17.1100  -18.5590  -14.5860 O.2   278  THR278     -0.2717
     88  CB       -15.3600  -20.8870  -12.8750 C.3   278  THR278      0.1784
     89  OG1      -14.8770  -21.2460  -11.5760 O.3   278  THR278     -0.2211
     90  CG2      -14.2990  -20.1910  -13.6520 C.3   278  THR278      0.0376
     91  N        -17.6820  -20.7800  -14.6580 N.am  279  SER279     -0.1937
     92  CA       -18.4260  -20.8140  -15.9080 C.3   279  SER279      0.2055
     93  C        -19.8090  -21.4120  -15.6420 C.2   279  SER279      0.2644
     94  O        -20.0760  -21.9150  -14.5250 O.2   279  SER279     -0.2714
     95  CB       -17.6040  -21.5990  -16.9490 C.3   279  SER279      0.2130
     96  OG       -17.4270  -22.9640  -16.5700 O.3   279  SER279     -0.2179
     97  N        -20.7020  -21.3650  -16.6260 N.am  280  THR280     -0.1936
     98  CA       -22.0430  -21.9250  -16.4310 C.3   280  THR280      0.2028
     99  C        -22.3820  -22.8330  -17.5800 C.2   280  THR280      0.2642
    100  O        -21.9840  -22.5860  -18.7340 O.2   280  THR280     -0.2714
    101  CB       -23.0860  -20.8230  -16.3620 C.3   280  THR280      0.1808
    102  OG1      -22.8110  -20.0360  -15.2170 O.3   280  THR280     -0.2208
    103  CG2      -24.5240  -21.3630  -16.2700 C.3   280  THR280      0.0379
    104  N        -23.0120  -23.9580  -17.2520 N.am  281  ALA281     -0.1977
    105  CA       -23.4850  -24.8790  -18.2750 C.3   281  ALA281      0.1597
    106  C        -25.0080  -24.8330  -18.3200 C.2   281  ALA281      0.2287
    107  O        -25.6800  -24.6020  -17.3020 O.2   281  ALA281     -0.2864
    108  CB       -22.9830  -26.2730  -17.9720 C.3   281  ALA281      0.0319
    109  N        -23.2740  -27.5130  -28.0560 N.3   294  TRP294     -0.1241
    110  CA       -22.6010  -28.8140  -28.0170 C.3   294  TRP294      0.1605
    111  C        -23.6390  -29.9300  -27.8920 C.2   294  TRP294      0.2264
    112  O        -24.7380  -29.7250  -27.3640 O.2   294  TRP294     -0.2867
    113  CB       -21.5590  -28.8660  -26.8630 C.3   294  TRP294      0.0550
    114  CG       -20.3800  -27.9590  -26.9940 C.ar  294  TRP294      0.0003
    115  CD1      -19.8600  -27.4290  -28.1570 C.ar  294  TRP294      0.0946
    116  CD2      -19.5610  -27.4390  -25.9180 C.ar  294  TRP294      0.0152
    117  NE1      -18.7720  -26.6410  -27.8600 N.ar  294  TRP294     -0.2442
    118  CE2      -18.5710  -26.6250  -26.5000 C.ar  294  TRP294      0.0810
    119  CE3      -19.5880  -27.5760  -24.5100 C.ar  294  TRP294      0.0012
    120  CZ2      -17.5900  -25.9750  -25.7470 C.ar  294  TRP294      0.0191
    121  CZ3      -18.6010  -26.9200  -23.7590 C.ar  294  TRP294      0.0001
    122  CH2      -17.6170  -26.1360  -24.3790 C.ar  294  TRP294      0.0015
    123  N        -25.9190  -29.5390  -24.6550 N.3   309  GLU309     -0.1245
    124  CA       -25.1380  -28.7900  -23.6500 C.3   309  GLU309      0.1567
    125  C        -24.7260  -27.3970  -24.1390 C.2   309  GLU309      0.2260
    126  O        -23.8130  -27.2620  -24.9700 O.2   309  GLU309     -0.2867
    127  CB       -23.8900  -29.5750  -23.3040 C.3   309  GLU309      0.0388
    128  CG       -23.0500  -28.7820  -22.2910 C.3   309  GLU309      0.1160
    129  CD       -21.7530  -29.4270  -21.9180 C.2   309  GLU309      0.3649
    130  OE1      -21.4870  -30.6100  -22.2920 O.co2 309  GLU309     -0.2457
    131  OE2      -20.9910  -28.7390  -21.1960 O.co2 309  GLU309     -0.2457
    132  N        -19.3000  -19.3700  -26.0860 N.3   376  ARG376     -0.1245
    133  CA       -19.4400  -20.8100  -26.2500 C.3   376  ARG376      0.1563
    134  C        -20.7370  -21.1460  -26.9800 C.2   376  ARG376      0.2260
    135  O        -20.7170  -21.7900  -28.0290 O.2   376  ARG376     -0.2867
    136  CB       -19.4050  -21.5110  -24.8900 C.3   376  ARG376      0.0307
    137  CG       -19.5440  -23.0220  -24.9660 C.3   376  ARG376      0.0489
    138  CD       -19.5350  -23.6480  -23.5810 C.3   376  ARG376      0.2205
    139  NE       -18.3030  -23.3530  -22.8560 N.pl3 376  ARG376     -0.0865
    140  CZ       -18.0430  -23.7750  -21.6220 C.cat 376  ARG376      0.5346
    141  NH1      -18.9310  -24.5140  -20.9710 N.pl3 376  ARG376      0.1354
    142  NH2      -16.8950  -23.4590  -21.0390 N.pl3 376  ARG376      0.1354
@<TRIPOS>BOND
     1   115   117   ar
     2   115   114   ar
     3   109   110    1
     4   135   134    2
     5   110   111    1
     6   110   113    1
     7   111   112    2
     8   117   118   ar
     9   114   113    1
    10   114   116   ar
    11   134   133    1
    12    35    36    1
    13    47    46    2
    14   118   116   ar
    15   118   120   ar
    16    46    45    1
    17   133   132    1
    18   133   136    1
    19   116   119   ar
    20   120   122   ar
    21    45    44    1
    22    45    48    1
    23    36    37    1
    24    36    39    1
    25    37    38    2
    26   126   125    2
    27   137   136    1
    28   137   138    1
    29   123   124    1
    30   119   121   ar
    31    39    40    1
    32    40    41    1
    33   122   121   ar
    34   125   124    1
    35    48    49    1
    36    43    41   ar
    37    41    42   ar
    38   124   127    1
    39   138   139    1
    40    50    49    1
    41    50    51    1
    42   127   128    1
    43   139   140    2
    44    52    51    1
    45   130   129   ar
    46   128   129    1
    47    24    23    2
    48   129   131   ar
    49   140   142    1
    50   140   141    1
    51    23    22    1
    52    18    17    2
    53    20    19    1
    54    22    25    1
    55    22    21    1
    56    83    82   ar
    57    83    81   ar
    58    19    16    1
    59    60    58    1
    60    31    33   ar
    61    31    28   ar
    62    33    34   ar
    63    82    80   ar
    64    25    26    1
    65    17    16    1
    66    81    79   ar
    67   100    99    2
    68    16    15    1
    69    28    26   ar
    70    28    30   ar
    71   106   105    1
    72   106   107    2
    73   105   108    1
    74   105   104    1
    75    58    57    1
    76    26    27   ar
    77    34    32   ar
    78    80    79   ar
    79    79    78    1
    80    99   104   am
    81    99    98    1
    82    15    10   am
    83    59    57    1
    84    57    54    1
    85    30    32   ar
    86    30    29   ar
    87    95    96    1
    88    95    92    1
    89    27    29   ar
    90    78    75    1
    91    97    98    1
    92    97    93   am
    93    98   101    1
    94    73    70    1
    95   101   103    1
    96   101   102    1
    97    10    11    2
    98    10     9    1
    99    54    53    1
   100    54    55    1
   101    92    93    1
   102    92    91    1
   103    75    74    1
   104    75    76    1
   105    93    94    2
   106    74    71   am
   107     9    12    1
   108     9     8    1
   109    12    13    1
   110    12    14    1
   111    71    70    1
   112    71    72    2
   113    67    66   ar
   114    70    69    1
   115    55    56    2
   116    55    61   am
   117    69    63   am
   118    91    86   am
   119    87    86    2
   120    61    62    1
   121    76    77    2
   122    86    85    1
   123    66    68   ar
   124    66    65    1
   125    90    88    1
   126    63    62    1
   127    63    64    2
   128     6     5    1
   129    62    65    1
   130     7     5    1
   131    88    85    1
   132    88    89    1
   133    85    84    1
   134     5     2    1
   135     2     1    1
   136     2     3    1
   137     4     3    2
