@<TRIPOS>MOLECULE
tmp/3l0tB00.pdb
 110 107 0 0 0
SMALL
GASTEIGER

@<TRIPOS>ATOM
      1  N         38.8420   37.3460   30.8870 N.3    94  ASP94      -0.1225
      2  CA        40.2320   36.9650   30.6370 C.3    94  ASP94       0.1805
      3  C         40.9120   37.7610   31.7780 C.2    94  ASP94       0.2598
      4  O         40.6060   38.9550   31.9640 O.2    94  ASP94      -0.2718
      5  CB        40.7200   37.4580   29.2590 C.3    94  ASP94       0.1424
      6  CG        42.2170   37.3030   29.0720 C.2    94  ASP94       0.3668
      7  OD1       42.6420   36.2640   28.5210 O.co2  94  ASP94      -0.2456
      8  OD2       42.9630   38.2070   29.4960 O.co2  94  ASP94      -0.2456
      9  N         41.7050   37.0710   32.6220 N.am   95  VAL95      -0.1966
     10  CA        42.3090   37.7040   33.8010 C.3    95  VAL95       0.1727
     11  C         43.1450   38.9610   33.5090 C.2    95  VAL95       0.2616
     12  O         43.0160   39.9470   34.2350 O.2    95  VAL95      -0.2715
     13  CB        42.9780   36.6930   34.7600 C.3    95  VAL95       0.0290
     14  CG1       44.2890   36.1400   34.1960 C.3    95  VAL95       0.0023
     15  CG2       43.1570   37.2970   36.1490 C.3    95  VAL95       0.0023
     16  N         44.0250   38.9030   32.4770 N.am   96  LYS96      -0.1977
     17  CA        44.8590   40.0300   32.0240 C.3    96  LYS96       0.1596
     18  C         43.9580   41.2210   31.6560 C.2    96  LYS96       0.2287
     19  O         44.1770   42.3370   32.1170 O.2    96  LYS96      -0.2864
     20  CB        45.6960   39.5960   30.7990 C.3    96  LYS96       0.0298
     21  CG        46.7530   40.5970   30.4320 C.3    96  LYS96       0.0038
     22  CD        47.4360   40.2210   29.1210 C.3    96  LYS96       0.0206
     23  CE        46.5150   40.3960   27.9080 C.3    96  LYS96       0.1093
     24  NZ        45.2840   39.5760   27.9470 N.3    96  LYS96      -0.1314
     25  N         42.2670   27.5760   33.4180 N.3   126  MET126     -0.1245
     26  CA        43.5330   26.9200   33.7900 C.3   126  MET126      0.1570
     27  C         43.9270   27.0060   35.2740 C.2   126  MET126      0.2261
     28  O         45.1260   27.0080   35.5650 O.2   126  MET126     -0.2867
     29  CB        44.7010   27.5170   32.9660 C.3   126  MET126      0.0387
     30  CG        44.9100   26.9330   31.5950 C.3   126  MET126      0.0595
     31  SD        45.6210   28.1820   30.4770 S.3   126  MET126     -0.1393
     32  CE        47.1920   28.6680   31.3880 C.3   126  MET126      0.0692
     33  N         43.6870   29.6190   37.3170 N.3   128  THR128     -0.1203
     34  CA        44.1870   30.9590   37.6330 C.3   128  THR128      0.1994
     35  C         43.3930   31.5300   38.8000 C.2   128  THR128      0.2618
     36  O         42.1650   31.4500   38.7960 O.2   128  THR128     -0.2717
     37  CB        44.0940   31.8380   36.3680 C.3   128  THR128      0.1784
     38  OG1       45.0920   31.3890   35.4590 O.3   128  THR128     -0.2211
     39  CG2       44.2650   33.3380   36.6460 C.3   128  THR128      0.0376
     40  N         44.0950   32.1310   39.7770 N.am  129  LEU129     -0.1965
     41  CA        43.5130   32.6930   40.9830 C.3   129  LEU129      0.1728
     42  C         43.6390   34.2100   41.1620 C.2   129  LEU129      0.2617
     43  O         42.8200   34.8280   41.8410 O.2   129  LEU129     -0.2715
     44  CB        44.0820   31.9660   42.2000 C.3   129  LEU129      0.0311
     45  CG        43.7110   30.4970   42.2790 C.3   129  LEU129      0.0022
     46  CD1       44.8620   29.6790   42.8570 C.3   129  LEU129      0.0001
     47  CD2       42.3740   30.3090   42.9840 C.3   129  LEU129      0.0001
     48  N         44.6710   34.7840   40.5820 N.am  130  GLY130     -0.1940
     49  CA        44.9000   36.2090   40.6820 C.3   130  GLY130      0.2014
     50  C         45.9010   36.7110   39.6720 C.2   130  GLY130      0.2639
     51  O         46.4690   35.9350   38.8990 O.2   130  GLY130     -0.2714
     52  N         46.0960   38.0240   39.6750 N.am  131  LEU131     -0.1963
     53  CA        47.0360   38.7010   38.7830 C.3   131  LEU131      0.1728
     54  C         47.4040   40.0230   39.4240 C.2   131  LEU131      0.2616
     55  O         46.6370   40.5380   40.2410 O.2   131  LEU131     -0.2715
     56  CB        46.4350   38.8920   37.3810 C.3   131  LEU131      0.0311
     57  CG        47.4400   39.1980   36.2510 C.3   131  LEU131      0.0022
     58  CD1       48.3580   37.9970   35.9800 C.3   131  LEU131      0.0001
     59  CD2       46.7050   39.5590   34.9890 C.3   131  LEU131      0.0001
     60  N         48.6180   40.5000   39.1550 N.am  132  ALA132     -0.1977
     61  CA        49.1540   41.7490   39.7130 C.3   132  ALA132      0.1597
     62  C         50.3330   42.2430   38.8900 C.2   132  ALA132      0.2287
     63  O         51.0410   41.4500   38.2820 O.2   132  ALA132     -0.2864
     64  CB        49.6000   41.5380   41.1450 C.3   132  ALA132      0.0319
     65  N         50.6270   36.3310   47.5120 N.3   186  HIS186     -0.1226
     66  CA        51.3640   36.1320   46.2440 C.3   186  HIS186      0.1752
     67  C         51.1990   37.3490   45.3350 C.2   186  HIS186      0.2595
     68  O         52.1940   37.8980   44.8750 O.2   186  HIS186     -0.2718
     69  CB        50.8320   34.8660   45.5320 C.3   186  HIS186      0.0759
     70  CG        51.5900   34.5250   44.2850 C.ar  186  HIS186      0.0818
     71  ND1       52.6360   33.6190   44.3040 N.ar  186  HIS186     -0.2268
     72  CD2       51.4400   34.9960   43.0210 C.ar  186  HIS186      0.1154
     73  CE1       53.0740   33.5520   43.0570 C.ar  186  HIS186      0.1986
     74  NE2       52.3720   34.3420   42.2500 N.ar  186  HIS186     -0.2212
     75  N         49.9510   37.7710   45.0860 N.am  187  GLU187     -0.1979
     76  CA        49.6320   38.9530   44.2640 C.3   187  GLU187      0.1602
     77  C         50.2980   40.2360   44.8230 C.2   187  GLU187      0.2287
     78  O         50.9880   40.9290   44.0680 O.2   187  GLU187     -0.2864
     79  CB        48.1120   39.1120   44.0790 C.3   187  GLU187      0.0415
     80  CG        47.4470   37.9790   43.3010 C.3   187  GLU187      0.1163
     81  CD        48.1870   37.4280   42.0970 C.2   187  GLU187      0.3649
     82  OE1       48.8480   38.2160   41.3800 O.co2 187  GLU187     -0.2457
     83  OE2       48.1400   36.1970   41.8900 O.co2 187  GLU187     -0.2457
     84  N         54.0720   40.2760   44.1680 N.3   190  HIS190     -0.1241
     85  CA        54.3970   40.8350   42.8380 C.3   190  HIS190      0.1621
     86  C         54.3790   42.3540   42.8920 C.2   190  HIS190      0.2264
     87  O         55.3010   42.9880   42.3720 O.2   190  HIS190     -0.2867
     88  CB        53.4320   40.3480   41.7470 C.3   190  HIS190      0.0745
     89  CG        53.7050   38.9510   41.2870 C.ar  190  HIS190      0.0817
     90  ND1       54.9460   38.5800   40.8120 N.ar  190  HIS190     -0.2268
     91  CD2       52.8810   37.8790   41.2470 C.ar  190  HIS190      0.1154
     92  CE1       54.8450   37.3010   40.4940 C.ar  190  HIS190      0.1986
     93  NE2       53.6200   36.8330   40.7330 N.ar  190  HIS190     -0.2212
     94  N         58.6010   35.1820   40.3700 N.3   196  HIS196     -0.1241
     95  CA        58.4560   33.8170   40.8850 C.3   196  HIS196      0.1621
     96  C         59.7550   33.2510   41.3730 C.2   196  HIS196      0.2264
     97  O         60.8360   33.6170   40.8810 O.2   196  HIS196     -0.2867
     98  CB        57.8260   32.8760   39.8520 C.3   196  HIS196      0.0745
     99  CG        56.3970   33.2080   39.6000 C.ar  196  HIS196      0.0817
    100  ND1       55.7910   32.9200   38.3910 N.ar  196  HIS196     -0.2268
    101  CD2       55.5090   33.8380   40.3990 C.ar  196  HIS196      0.1154
    102  CE1       54.5600   33.3770   38.4990 C.ar  196  HIS196      0.1986
    103  NE2       54.3490   33.9400   39.6910 N.ar  196  HIS196     -0.2212
    104  N         55.8570   29.3980   41.4440 N.3   218  PRO218     -0.2116
    105  CA        55.0250   29.6540   40.2490 C.3   218  PRO218      0.1372
    106  C         53.7290   28.8460   40.1540 C.2   218  PRO218      0.2244
    107  O         52.8110   29.2500   39.4390 O.2   218  PRO218     -0.2868
    108  CB        55.9720   29.3250   39.0840 C.3   218  PRO218      0.0268
    109  CG        56.9700   28.3660   39.6620 C.3   218  PRO218      0.0207
    110  CD        57.1780   28.8640   41.0660 C.3   218  PRO218      0.0892
@<TRIPOS>BOND
     1    23    24    1
     2    23    22    1
     3     7     6   ar
     4     6     5    1
     5     6     8   ar
     6    22    21    1
     7     5     2    1
     8    21    20    1
     9    31    32    1
    10    31    30    1
    11     2     1    1
    12     2     3    1
    13    20    17    1
    14    30    29    1
    15    18    17    1
    16    18    19    2
    17     3     4    2
    18     3     9   am
    19    17    16    1
    20    16    11   am
    21     9    10    1
    22    29    26    1
    23    25    26    1
    24    11    10    1
    25    11    12    2
    26    26    27    1
    27    10    13    1
    28    14    13    1
    29    13    15    1
    30    59    57    1
    31    27    28    2
    32    38    37    1
    33    58    57    1
    34    57    56    1
    35    37    39    1
    36    37    34    1
    37    33    34    1
    38    56    53    1
    39    34    35    1
    40    63    62    2
    41   100   102   ar
    42   100    99   ar
    43   102   103   ar
    44    53    54    1
    45    53    52    1
    46    36    35    2
    47    35    40   am
    48    62    61    1
    49    51    50    2
    50   108   109    1
    51   108   105    1
    52    60    54   am
    53    60    61    1
    54    54    55    2
    55   107   106    2
    56    99    98    1
    57    99   101   ar
    58   109   110    1
    59    50    52   am
    60    50    49    1
    61   103   101   ar
    62    61    64    1
    63    40    41    1
    64    98    95    1
    65   106   105    1
    66   105   104    1
    67    94    95    1
    68    92    93   ar
    69    92    90   ar
    70    48    49    1
    71    48    42   am
    72    93    91   ar
    73    90    89   ar
    74    97    96    2
    75    95    96    1
    76    41    42    1
    77    41    44    1
    78   110   104    1
    79    42    43    2
    80    91    89   ar
    81    89    88    1
    82    82    81   ar
    83    88    85    1
    84    83    81   ar
    85    81    80    1
    86    44    45    1
    87    74    72   ar
    88    74    73   ar
    89    45    46    1
    90    45    47    1
    91    87    86    2
    92    85    86    1
    93    85    84    1
    94    72    70   ar
    95    73    71   ar
    96    80    79    1
    97    78    77    2
    98    79    76    1
    99    76    77    1
   100    76    75    1
   101    70    71   ar
   102    70    69    1
   103    68    67    2
   104    75    67   am
   105    67    66    1
   106    69    66    1
   107    66    65    1
