@<TRIPOS>MOLECULE
tmp/3l0vA00.pdb
 144 139 0 0 0
SMALL
GASTEIGER

@<TRIPOS>ATOM
      1  N         -3.5640   11.4690   19.8730 N.3    99  VAL99      -0.1245
      2  CA        -2.8480   12.2770   20.8980 C.3    99  VAL99       0.1561
      3  C         -2.5100   13.7290   20.4960 C.2    99  VAL99       0.2260
      4  O         -2.6860   14.6450   21.2980 O.2    99  VAL99      -0.2867
      5  CB        -1.6760   11.4760   21.5400 C.3    99  VAL99       0.0252
      6  CG1       -0.4940   11.3210   20.5830 C.3    99  VAL99       0.0019
      7  CG2       -1.2380   12.0730   22.8920 C.3    99  VAL99       0.0019
      8  N          1.3000    2.5050   22.4260 N.3   131  GLY131     -0.1210
      9  CA         1.9400    2.7310   23.7180 C.3   131  GLY131      0.1956
     10  C          2.2930    4.1560   24.0940 C.2   131  GLY131      0.2613
     11  O          3.0410    4.3490   25.0550 O.2   131  GLY131     -0.2717
     12  N          1.7550    5.1720   23.3740 N.am  132  THR132     -0.1938
     13  CA         1.9990    6.5830   23.7210 C.3   132  THR132      0.2028
     14  C          1.3140    6.8680   25.0590 C.2   132  THR132      0.2642
     15  O          0.1720    6.4510   25.2800 O.2   132  THR132     -0.2714
     16  CB         1.5120    7.5240   22.6110 C.3   132  THR132      0.1808
     17  OG1        2.3770    7.3490   21.4800 O.3   132  THR132     -0.2208
     18  CG2        1.5390    9.0090   23.0240 C.3   132  THR132      0.0379
     19  N          2.0230    7.5840   25.9320 N.am  133  LEU133     -0.1963
     20  CA         1.5330    7.9190   27.2630 C.3   133  LEU133      0.1728
     21  C          1.2940    9.4140   27.4690 C.2   133  LEU133      0.2617
     22  O          0.5020    9.7970   28.3380 O.2   133  LEU133     -0.2715
     23  CB         2.5530    7.4120   28.2950 C.3   133  LEU133      0.0311
     24  CG         2.7180    5.8900   28.3840 C.3   133  LEU133      0.0022
     25  CD1        4.1560    5.5110   28.6350 C.3   133  LEU133      0.0001
     26  CD2        1.8470    5.3020   29.4500 C.3   133  LEU133      0.0001
     27  N          1.9870   10.2410   26.7050 N.am  134  GLY134     -0.1940
     28  CA         1.8340   11.6810   26.8270 C.3   134  GLY134      0.2014
     29  C          2.3420   12.4500   25.6360 C.2   134  GLY134      0.2639
     30  O          2.9330   11.8620   24.7130 O.2   134  GLY134     -0.2714
     31  N          2.1630   13.7780   25.6840 N.am  135  LEU135     -0.1963
     32  CA         2.6000   14.6970   24.6150 C.3   135  LEU135      0.1728
     33  C          2.7140   16.1040   25.1440 C.2   135  LEU135      0.2616
     34  O          1.9720   16.4830   26.0550 O.2   135  LEU135     -0.2715
     35  CB         1.6160   14.6510   23.4240 C.3   135  LEU135      0.0311
     36  CG         2.1680   15.0990   22.0580 C.3   135  LEU135      0.0022
     37  CD1        3.1680   14.0770   21.4910 C.3   135  LEU135      0.0001
     38  CD2        1.0420   15.2960   21.0760 C.3   135  LEU135      0.0001
     39  N          3.6520   16.9010   24.5880 N.am  136  ALA136     -0.1977
     40  CA         3.8500   18.2620   25.0770 C.3   136  ALA136      0.1597
     41  C          4.4850   19.1150   23.9980 C.2   136  ALA136      0.2287
     42  O          5.0870   18.5710   23.0610 O.2   136  ALA136     -0.2864
     43  CB         4.7580   18.2390   26.3190 C.3   136  ALA136      0.0319
     44  N          5.6870    4.6850   36.9150 N.3   179  GLU179     -0.1245
     45  CA         5.6340    4.8960   35.4590 C.3   179  GLU179      0.1567
     46  C          5.0000    6.2760   35.1890 C.2   179  GLU179      0.2260
     47  O          5.5680    7.0630   34.4260 O.2   179  GLU179     -0.2867
     48  CB         4.8360    3.7610   34.7640 C.3   179  GLU179      0.0388
     49  CG         5.5280    2.4030   34.8550 C.3   179  GLU179      0.1160
     50  CD         4.7800    1.1660   34.3740 C.2   179  GLU179      0.3649
     51  OE1        3.5270    1.1300   34.4530 O.co2 179  GLU179     -0.2457
     52  OE2        5.4720    0.1950   33.9870 O.co2 179  GLU179     -0.2457
     53  N          7.2340    9.3310   35.6880 N.3   182  LEU182     -0.1231
     54  CA         8.2080    9.4720   34.6040 C.3   182  LEU182      0.1693
     55  C          7.5950   10.0570   33.3290 C.2   182  LEU182      0.2591
     56  O          8.2780   10.7950   32.6310 O.2   182  LEU182     -0.2718
     57  CB         8.9280    8.1580   34.3330 C.3   182  LEU182      0.0284
     58  CG         9.7360    7.5700   35.5030 C.3   182  LEU182      0.0019
     59  CD1       10.1500    6.1710   35.1900 C.3   182  LEU182      0.0001
     60  CD2       10.9270    8.4130   35.8310 C.3   182  LEU182      0.0001
     61  N          6.3180    9.7260   33.0430 N.am  183  VAL183     -0.1980
     62  CA         5.6020   10.2760   31.8840 C.3   183  VAL183      0.1595
     63  C          5.5340   11.7890   32.0770 C.2   183  VAL183      0.2287
     64  O          5.9900   12.5390   31.2240 O.2   183  VAL183     -0.2864
     65  CB         4.1790    9.6500   31.6870 C.3   183  VAL183      0.0276
     66  CG1        3.4500   10.3160   30.5210 C.3   183  VAL183      0.0022
     67  CG2        4.2780    8.1370   31.4620 C.3   183  VAL183      0.0022
     68  N          8.9600   13.4680   31.7670 N.3   186  HIS186     -0.1226
     69  CA         9.2920   13.4820   30.3420 C.3   186  HIS186      0.1752
     70  C          8.5360   14.6250   29.5820 C.2   186  HIS186      0.2595
     71  O          9.1630   15.3850   28.8220 O.2   186  HIS186     -0.2718
     72  CB         9.0610   12.0900   29.7330 C.3   186  HIS186      0.0759
     73  CG         9.3950   12.0060   28.2740 C.ar  186  HIS186      0.0818
     74  ND1       10.6190   11.5420   27.8450 N.ar  186  HIS186     -0.2268
     75  CD2        8.6290   12.2950   27.1920 C.ar  186  HIS186      0.1154
     76  CE1       10.5760   11.5730   26.5200 C.ar  186  HIS186      0.1986
     77  NE2        9.3950   11.9980   26.0810 N.ar  186  HIS186     -0.2212
     78  N          7.2070   14.7570   29.8070 N.am  187  GLU187     -0.1979
     79  CA         6.3890   15.7900   29.1620 C.3   187  GLU187      0.1602
     80  C          6.8050   17.1890   29.6120 C.2   187  GLU187      0.2287
     81  O          7.0040   18.0870   28.7770 O.2   187  GLU187     -0.2864
     82  CB         4.8820   15.5450   29.4000 C.3   187  GLU187      0.0415
     83  CG         4.3640   14.2390   28.8040 C.3   187  GLU187      0.1163
     84  CD         4.8750   13.8850   27.4090 C.2   187  GLU187      0.3649
     85  OE1        5.1340   14.8080   26.6050 O.co2 187  GLU187     -0.2457
     86  OE2        4.9810   12.6790   27.1160 O.co2 187  GLU187     -0.2457
     87  N         10.1200   18.1320   27.9350 N.3   190  HIS190     -0.1241
     88  CA         9.8780   18.7600   26.6250 C.3   190  HIS190      0.1621
     89  C          9.4950   20.2330   26.8230 C.2   190  HIS190      0.2264
     90  O         10.0800   21.0920   26.1680 O.2   190  HIS190     -0.2867
     91  CB         8.7840   18.0210   25.8330 C.3   190  HIS190      0.0745
     92  CG         9.2330   16.7590   25.1570 C.ar  190  HIS190      0.0817
     93  ND1       10.3190   16.7410   24.2900 N.ar  190  HIS190     -0.2268
     94  CD2        8.6860   15.5210   25.2020 C.ar  190  HIS190      0.1154
     95  CE1       10.3970   15.4970   23.8360 C.ar  190  HIS190      0.1986
     96  NE2        9.4260   14.7230   24.3440 N.ar  190  HIS190     -0.2212
     97  N         14.6230   14.6150   22.8250 N.3   196  HIS196     -0.1241
     98  CA        14.9200   13.2320   23.1810 C.3   196  HIS196      0.1621
     99  C         16.4300   12.9760   23.2200 C.2   196  HIS196      0.2264
    100  O         17.1860   13.6340   22.4900 O.2   196  HIS196     -0.2867
    101  CB        14.2720   12.2560   22.1990 C.3   196  HIS196      0.0745
    102  CG        12.7940   12.1810   22.3140 C.ar  196  HIS196      0.0817
    103  ND1       12.0010   11.9530   21.2100 N.ar  196  HIS196     -0.2268
    104  CD2       12.0000   12.3020   23.4090 C.ar  196  HIS196      0.1154
    105  CE1       10.7570   11.9550   21.6630 C.ar  196  HIS196      0.1986
    106  NE2       10.7130   12.1410   22.9770 N.ar  196  HIS196     -0.2212
    107  N         15.4900   10.0900   31.5330 N.3   215  VAL215     -0.1245
    108  CA        14.0580   10.3140   31.3500 C.3   215  VAL215      0.1561
    109  C         13.6070   10.7670   29.9500 C.2   215  VAL215      0.2260
    110  O         12.4890   10.4500   29.5430 O.2   215  VAL215     -0.2867
    111  CB        13.4770   11.1550   32.5050 C.3   215  VAL215      0.0252
    112  CG1       13.8680   12.6270   32.3950 C.3   215  VAL215      0.0019
    113  CG2       11.9620   10.9530   32.6520 C.3   215  VAL215      0.0019
    114  N         14.7070    9.7310   27.1090 N.3   217  TYR217     -0.1228
    115  CA        14.8730    8.6950   26.0890 C.3   217  TYR217      0.1721
    116  C         13.5180    8.5010   25.3510 C.2   217  TYR217      0.2437
    117  O         12.4740    8.6300   25.9980 O.2   217  TYR217     -0.2733
    118  CB        15.4000    7.3900   26.7020 C.3   217  TYR217      0.0547
    119  CG        15.9580    6.4430   25.6630 C.ar  217  TYR217     -0.0200
    120  CD1       17.1550    6.7260   24.9990 C.ar  217  TYR217     -0.0009
    121  CD2       15.2610    5.2980   25.2920 C.ar  217  TYR217     -0.0009
    122  CE1       17.6450    5.8800   23.9990 C.ar  217  TYR217      0.0417
    123  CE2       15.7460    4.4410   24.3030 C.ar  217  TYR217      0.0417
    124  CZ        16.9500    4.7220   23.6790 C.ar  217  TYR217      0.1957
    125  OH        17.4180    3.8600   22.7140 O.3   217  TYR217     -0.2866
    126  N         13.4790    8.3070   24.0010 N.am  218  PRO218     -0.2729
    127  CA        12.1620    8.2720   23.3160 C.3   218  PRO218      0.1401
    128  C         11.2630    7.0790   23.6310 C.2   218  PRO218      0.2269
    129  O         10.0420    7.1830   23.4720 O.2   218  PRO218     -0.2865
    130  CB        12.5060    8.4000   21.8270 C.3   218  PRO218      0.0296
    131  CG        13.9090    7.9590   21.7190 C.3   218  PRO218      0.0237
    132  CD        14.5950    8.2300   23.0380 C.3   218  PRO218      0.0939
    133  N          9.7370    4.9570   26.4790 N.3   220  ALA220     -0.1231
    134  CA         9.4040    5.2030   27.8800 C.3   220  ALA220      0.1694
    135  C         10.1710    4.3610   28.8660 C.2   220  ALA220      0.2591
    136  O         10.0810    3.1360   28.8350 O.2   220  ALA220     -0.2718
    137  CB         7.9030    5.0610   28.1130 C.3   220  ALA220      0.0304
    138  N         10.9630    5.0380   29.7210 N.am  221  VAL221     -0.1980
    139  CA        11.7110    4.4150   30.8050 C.3   221  VAL221      0.1595
    140  C         10.6880    3.8450   31.8130 C.2   221  VAL221      0.2287
    141  O          9.6310    4.4590   32.0280 O.2   221  VAL221     -0.2864
    142  CB        12.7380    5.3790   31.4680 C.3   221  VAL221      0.0276
    143  CG1       13.9380    5.6350   30.5450 C.3   221  VAL221      0.0022
    144  CG2       12.0880    6.6940   31.9070 C.3   221  VAL221      0.0022
@<TRIPOS>BOND
     1     1     2    1
     2     3     2    1
     3     3     4    2
     4     6     5    1
     5     2     5    1
     6    38    36    1
     7   103   105   ar
     8   103   102   ar
     9    17    16    1
    10    37    36    1
    11     5     7    1
    12   105   106   ar
    13   131   130    1
    14   131   132    1
    15   130   127    1
    16    36    35    1
    17   101   102    1
    18   101    98    1
    19   102   104   ar
    20     8     9    1
    21   100    99    2
    22    16    18    1
    23    16    13    1
    24   125   124    1
    25    97    98    1
    26   106   104   ar
    27   132   126    1
    28    42    41    2
    29    98    99    1
    30   127   128    1
    31   127   126    1
    32    12    13    1
    33    12    10   am
    34    35    32    1
    35   129   128    2
    36   124   122   ar
    37   124   123   ar
    38     9    10    1
    39    13    14    1
    40    95    93   ar
    41    95    96   ar
    42    41    40    1
    43   122   120   ar
    44   126   116   am
    45    10    11    2
    46    93    92   ar
    47   123   121   ar
    48    96    94   ar
    49    39    40    1
    50    39    33   am
    51    32    33    1
    52    32    31    1
    53    30    29    2
    54   120   119   ar
    55    14    15    2
    56    14    19   am
    57    40    43    1
    58    33    34    2
    59    92    94   ar
    60    92    91    1
    61   121   119   ar
    62   116   117    2
    63   116   115    1
    64    29    31   am
    65    29    28    1
    66   119   118    1
    67    91    88    1
    68    19    20    1
    69    77    76   ar
    70    77    75   ar
    71   115   118    1
    72   115   114    1
    73    90    89    2
    74   133   134    1
    75    76    74   ar
    76    85    84   ar
    77    88    89    1
    78    88    87    1
    79    27    28    1
    80    27    21   am
    81    86    84   ar
    82    75    73   ar
    83    20    21    1
    84    20    23    1
    85    84    83    1
    86    21    22    2
    87    74    73   ar
    88   134   137    1
    89   134   135    1
    90    73    72    1
    91    23    24    1
    92    24    25    1
    93    24    26    1
    94    81    80    2
    95    83    82    1
    96    71    70    2
    97   136   135    2
    98   135   138   am
    99    79    82    1
   100    79    80    1
   101    79    78    1
   102   110   109    2
   103    70    78   am
   104    70    69    1
   105   138   139    1
   106    72    69    1
   107   109   108    1
   108    69    68    1
   109    66    65    1
   110   143   142    1
   111   139   142    1
   112   139   140    1
   113    64    63    2
   114   108   107    1
   115   108   111    1
   116    67    65    1
   117   142   144    1
   118    65    62    1
   119   140   141    2
   120    62    63    1
   121    62    61    1
   122   112   111    1
   123   111   113    1
   124    56    55    2
   125    61    55   am
   126    55    54    1
   127    52    50   ar
   128    57    54    1
   129    57    58    1
   130    50    51   ar
   131    50    49    1
   132    47    46    2
   133    54    53    1
   134    48    49    1
   135    48    45    1
   136    46    45    1
   137    59    58    1
   138    45    44    1
   139    58    60    1
