@<TRIPOS>MOLECULE
tmp/3l13A00.pdb
 223 210 0 0 0
SMALL
GASTEIGER

@<TRIPOS>ATOM
      1  N         14.1620   61.2570   11.4300 N.3   565  LYS565     -0.1231
      2  CA        14.7390   62.4860   10.8800 C.3   565  LYS565      0.1693
      3  C         16.2810   62.4780   10.8510 C.2   565  LYS565      0.2592
      4  O         16.9210   61.7100   11.5510 O.2   565  LYS565     -0.2718
      5  CB        14.2400   63.6860   11.6950 C.3   565  LYS565      0.0285
      6  CG        14.2710   63.4610   13.2030 C.3   565  LYS565      0.0035
      7  CD        14.2010   64.7580   13.9900 C.3   565  LYS565      0.0206
      8  CE        14.5030   64.5230   15.4630 C.3   565  LYS565      0.1093
      9  NZ        14.6350   65.7840   16.2310 N.3   565  LYS565     -0.1314
     10  N         16.8650   63.3380   10.0230 N.am  566  VAL566     -0.1966
     11  CA        18.2990   63.6260   10.0850 C.3   566  VAL566      0.1727
     12  C         18.4690   64.6450   11.2060 C.2   566  VAL566      0.2616
     13  O         17.6360   65.5300   11.3650 O.2   566  VAL566     -0.2715
     14  CB        18.8380   64.2070    8.7430 C.3   566  VAL566      0.0290
     15  CG1       20.3050   64.6520    8.8640 C.3   566  VAL566      0.0023
     16  CG2       18.6760   63.1970    7.6060 C.3   566  VAL566      0.0023
     17  N         19.5400   64.5320   11.9800 N.am  567  MET567     -0.1963
     18  CA        19.7270   65.4060   13.1330 C.3   567  MET567      0.1736
     19  C         20.5270   66.6530   12.7660 C.2   567  MET567      0.2616
     20  O         21.6220   66.5630   12.2250 O.2   567  MET567     -0.2715
     21  CB        20.3950   64.6400   14.2740 C.3   567  MET567      0.0427
     22  CG        19.4280   63.7430   15.0020 C.3   567  MET567      0.0599
     23  SD        20.2150   62.5160   16.0210 S.3   567  MET567     -0.1393
     24  CE        20.5520   63.4150   17.4490 C.3   567  MET567      0.0692
     25  N         19.9650   67.8190   13.0620 N.am  568  ALA568     -0.1963
     26  CA        20.6130   69.0880   12.7430 C.3   568  ALA568      0.1728
     27  C         21.8040   69.3520   13.6640 C.2   568  ALA568      0.2616
     28  O         21.6510   69.9750   14.7200 O.2   568  ALA568     -0.2715
     29  CB        19.5990   70.2480   12.8190 C.3   568  ALA568      0.0334
     30  N         22.9860   68.8830   13.2570 N.am  569  SER569     -0.1950
     31  CA        24.2210   69.1060   14.0210 C.3   569  SER569      0.1924
     32  C         25.4480   68.3130   13.5030 C.2   569  SER569      0.2314
     33  O         25.9450   68.5690   12.3910 O.2   569  SER569     -0.2863
     34  CB        24.0020   68.8160   15.5240 C.3   569  SER569      0.2116
     35  OG        23.4740   67.5080   15.7360 O.3   569  SER569     -0.2180
     36  N         18.1470   60.0370   13.6000 N.3   575  TRP575     -0.1241
     37  CA        17.2050   59.8000   14.6850 C.3   575  TRP575      0.1605
     38  C         16.0810   58.9210   14.1530 C.2   575  TRP575      0.2264
     39  O         15.1490   59.4090   13.5290 O.2   575  TRP575     -0.2867
     40  CB        16.6570   61.1350   15.1850 C.3   575  TRP575      0.0550
     41  CG        15.6870   61.0650   16.3110 C.ar  575  TRP575      0.0003
     42  CD1       14.4170   60.5670   16.2810 C.ar  575  TRP575      0.0946
     43  CD2       15.8920   61.5530   17.6370 C.ar  575  TRP575      0.0152
     44  NE1       13.8280   60.7000   17.5140 N.ar  575  TRP575     -0.2442
     45  CE2       14.7100   61.3080   18.3650 C.ar  575  TRP575      0.0810
     46  CE3       16.9620   62.1730   18.2910 C.ar  575  TRP575      0.0012
     47  CZ2       14.5690   61.6560   19.7100 C.ar  575  TRP575      0.0191
     48  CZ3       16.8210   62.5200   19.6290 C.ar  575  TRP575      0.0001
     49  CH2       15.6320   62.2610   20.3220 C.ar  575  TRP575      0.0015
     50  N         19.6110   56.1680   17.5460 N.3   594  ILE594     -0.1245
     51  CA        20.3860   57.0680   16.6930 C.3   594  ILE594      0.1561
     52  C         21.4300   56.2660   15.9180 C.2   594  ILE594      0.2260
     53  O         22.0980   55.4200   16.4930 O.2   594  ILE594     -0.2867
     54  CB        21.0940   58.1490   17.5460 C.3   594  ILE594      0.0252
     55  CG1       20.0790   59.1760   18.0530 C.3   594  ILE594      0.0019
     56  CG2       22.2230   58.8460   16.7510 C.3   594  ILE594      0.0019
     57  CD1       20.5600   59.9860   19.2280 C.3   594  ILE594      0.0001
     58  N         24.8860   56.9060   13.7870 N.3   596  LYS596     -0.1245
     59  CA        25.8590   57.9760   13.6170 C.3   596  LYS596      0.1561
     60  C         27.1450   57.4260   13.0340 C.2   596  LYS596      0.2260
     61  O         27.7130   56.4680   13.5610 O.2   596  LYS596     -0.2867
     62  CB        26.1160   58.6680   14.9670 C.3   596  LYS596      0.0271
     63  CG        27.3870   59.5230   15.0760 C.3   596  LYS596      0.0035
     64  CD        27.1250   61.0370   14.9160 C.3   596  LYS596      0.0206
     65  CE        27.1170   61.7970   16.2590 C.3   596  LYS596      0.1093
     66  NZ        27.0520   63.3030   16.1150 N.3   596  LYS596     -0.1314
     67  N         31.8020   59.8060   14.9250 N.3   599  ASP599     -0.1239
     68  CA        32.4540   59.7320   16.2390 C.3   599  ASP599      0.1674
     69  C         32.9740   58.3250   16.5110 C.2   599  ASP599      0.2266
     70  O         32.4220   57.3570   15.9840 O.2   599  ASP599     -0.2867
     71  CB        31.4800   60.1820   17.3430 C.3   599  ASP599      0.1410
     72  CG        31.2050   61.6960   17.3070 C.2   599  ASP599      0.3668
     73  OD1       32.1010   62.4640   16.8670 O.co2 599  ASP599     -0.2456
     74  OD2       30.1320   62.2080   17.6970 O.co2 599  ASP599     -0.2456
     75  N         32.8230   55.4720   18.5030 N.3   601  LEU601     -0.1245
     76  CA        31.8730   54.9380   19.4730 C.3   601  LEU601      0.1561
     77  C         32.4660   53.8380   20.3480 C.2   601  LEU601      0.2260
     78  O         31.9230   53.5320   21.4010 O.2   601  LEU601     -0.2867
     79  CB        30.6020   54.4420   18.7580 C.3   601  LEU601      0.0270
     80  CG        29.3940   55.3960   18.5870 C.3   601  LEU601      0.0019
     81  CD1       29.6730   56.8620   18.9130 C.3   601  LEU601      0.0001
     82  CD2       28.8060   55.2740   17.1910 C.3   601  LEU601      0.0001
     83  N         33.0290   55.4210   23.4780 N.3   604  ASP604     -0.1239
     84  CA        31.7990   55.5780   24.2500 C.3   604  ASP604      0.1674
     85  C         31.3930   54.2500   24.8840 C.2   604  ASP604      0.2266
     86  O         31.0960   54.2200   26.0690 O.2   604  ASP604     -0.2867
     87  CB        30.6650   56.1460   23.4000 C.3   604  ASP604      0.1410
     88  CG        30.9960   57.5090   22.8250 C.2   604  ASP604      0.3668
     89  OD1       31.8930   57.5810   21.9600 O.co2 604  ASP604     -0.2456
     90  OD2       30.4210   58.5610   23.1690 O.co2 604  ASP604     -0.2456
     91  N         30.9410   54.1650   28.9420 N.3   608  LEU608     -0.1245
     92  CA        29.6140   53.7470   29.3920 C.3   608  LEU608      0.1561
     93  C         29.6670   52.4690   30.2040 C.2   608  LEU608      0.2260
     94  O         28.8690   52.2760   31.1120 O.2   608  LEU608     -0.2867
     95  CB        28.6820   53.4970   28.2010 C.3   608  LEU608      0.0270
     96  CG        27.7360   54.5770   27.6600 C.3   608  LEU608      0.0019
     97  CD1       27.6170   55.7840   28.5670 C.3   608  LEU608      0.0001
     98  CD2       28.1230   54.9930   26.2470 C.3   608  LEU608      0.0001
     99  N         23.2770   54.7080   28.9810 N.3   630  TYR630     -0.1241
    100  CA        22.4650   54.1610   27.9000 C.3   630  TYR630      0.1605
    101  C         23.2670   53.2210   27.0130 C.2   630  TYR630      0.2264
    102  O         24.4940   53.1680   27.0780 O.2   630  TYR630     -0.2867
    103  CB        21.9010   55.3050   27.0440 C.3   630  TYR630      0.0534
    104  CG        22.9620   56.3000   26.6390 C.ar  630  TYR630     -0.0201
    105  CD1       23.7540   56.0860   25.5190 C.ar  630  TYR630     -0.0009
    106  CD2       23.1990   57.4300   27.4080 C.ar  630  TYR630     -0.0009
    107  CE1       24.7310   56.9810   25.1700 C.ar  630  TYR630      0.0417
    108  CE2       24.1740   58.3270   27.0680 C.ar  630  TYR630      0.0417
    109  CZ        24.9360   58.1080   25.9510 C.ar  630  TYR630      0.1957
    110  OH        25.9030   59.0200   25.6160 O.3   630  TYR630     -0.2866
    111  N         24.9890   51.7050   23.7440 N.3   632  CYS632     -0.1235
    112  CA        25.7630   52.2350   22.6390 C.3   632  CYS632      0.1677
    113  C         26.6310   51.1080   22.1150 C.2   632  CYS632      0.2270
    114  O         27.4530   50.5730   22.8460 O.2   632  CYS632     -0.2867
    115  CB        26.6360   53.3990   23.1150 C.3   632  CYS632      0.0956
    116  SG        27.8710   53.9590   21.9140 S.3   632  CYS632     -0.0801
    117  N         23.1460   54.1000   19.0020 N.3   642  ILE642     -0.1231
    118  CA        22.9920   54.7240   20.3220 C.3   642  ILE642      0.1692
    119  C         21.5270   54.6660   20.7850 C.2   642  ILE642      0.2592
    120  O         20.6140   54.8290   19.9840 O.2   642  ILE642     -0.2718
    121  CB        23.4680   56.1990   20.2610 C.3   642  ILE642      0.0266
    122  CG1       24.8680   56.3020   19.6210 C.3   642  ILE642      0.0019
    123  CG2       23.4430   56.8290   21.6580 C.3   642  ILE642      0.0020
    124  CD1       25.2080   57.6720   19.0600 C.3   642  ILE642      0.0001
    125  N         21.2980   54.4520   22.0770 N.am  643  GLU643     -0.1966
    126  CA        19.9340   54.3670   22.5980 C.3   643  GLU643      0.1733
    127  C         19.4170   55.7610   22.8800 C.2   643  GLU643      0.2616
    128  O         20.1100   56.5550   23.5190 O.2   643  GLU643     -0.2715
    129  CB        19.8800   53.5450   23.8840 C.3   643  GLU643      0.0429
    130  CG        18.4700   53.3290   24.4170 C.3   643  GLU643      0.1163
    131  CD        18.4260   52.9720   25.8900 C.2   643  GLU643      0.3649
    132  OE1       17.5100   53.4740   26.5850 O.co2 643  GLU643     -0.2457
    133  OE2       19.2860   52.1950   26.3550 O.co2 643  GLU643     -0.2457
    134  N         18.2050   56.0600   22.4160 N.am  644  ILE644     -0.1963
    135  CA        17.5690   57.3400   22.7160 C.3   644  ILE644      0.1727
    136  C         16.8100   57.2240   24.0330 C.2   644  ILE644      0.2616
    137  O         15.8150   56.5020   24.1150 O.2   644  ILE644     -0.2715
    138  CB        16.6040   57.7620   21.5950 C.3   644  ILE644      0.0290
    139  CG1       17.3700   57.9210   20.2770 C.3   644  ILE644      0.0022
    140  CG2       15.8780   59.0570   21.9850 C.3   644  ILE644      0.0023
    141  CD1       16.4970   58.1760   19.0460 C.3   644  ILE644      0.0001
    142  N         17.2870   57.9300   25.0550 N.am  645  VAL645     -0.1977
    143  CA        16.5960   58.0090   26.3330 C.3   645  VAL645      0.1596
    144  C         15.3740   58.8620   26.0950 C.2   645  VAL645      0.2287
    145  O         15.4910   59.9470   25.5490 O.2   645  VAL645     -0.2864
    146  CB        17.4760   58.6470   27.4330 C.3   645  VAL645      0.0276
    147  CG1       16.6460   58.9890   28.6730 C.3   645  VAL645      0.0022
    148  CG2       18.6400   57.7200   27.7990 C.3   645  VAL645      0.0022
    149  N         14.1630   63.2860   26.9890 N.3   648  ALA648     -0.1245
    150  CA        15.3800   63.9510   27.4640 C.3   648  ALA648      0.1562
    151  C         15.7260   65.1590   26.5980 C.2   648  ALA648      0.2260
    152  O         15.6480   65.0940   25.3700 O.2   648  ALA648     -0.2867
    153  CB        16.5390   62.9750   27.4800 C.3   648  ALA648      0.0290
    154  N         18.5920   68.5690   26.0510 N.3   650  THR650     -0.1218
    155  CA        19.9510   69.0350   26.2640 C.3   650  THR650      0.1862
    156  C         19.8800   70.2680   27.1500 C.2   650  THR650      0.2287
    157  O         19.0250   71.1170   26.9360 O.2   650  THR650     -0.2866
    158  CB        20.5960   69.3140   24.8820 C.3   650  THR650      0.1770
    159  OG1       21.1670   68.1000   24.3710 O.3   650  THR650     -0.2211
    160  CG2       21.7770   70.2460   24.9640 C.3   650  THR650      0.0375
    161  N         19.9560   73.5580   25.2580 N.3   653  LYS653     -0.1245
    162  CA        18.6870   73.9120   24.5980 C.3   653  LYS653      0.1561
    163  C         17.7000   74.5340   25.5890 C.2   653  LYS653      0.2260
    164  O         16.8700   75.3610   25.2080 O.2   653  LYS653     -0.2867
    165  CB        18.0680   72.6760   23.9210 C.3   653  LYS653      0.0271
    166  CG        16.6280   72.8150   23.3890 C.3   653  LYS653      0.0035
    167  CD        16.5590   73.5270   22.0450 C.3   653  LYS653      0.0206
    168  CE        15.1420   73.4610   21.4730 C.3   653  LYS653      0.1093
    169  NZ        14.9000   74.3810   20.3090 N.3   653  LYS653     -0.1314
    170  N         26.1350   71.4440   26.0810 N.3   713  ASP713     -0.1239
    171  CA        25.5650   70.7370   24.9370 C.3   713  ASP713      0.1674
    172  C         25.6300   69.2010   25.1020 C.2   713  ASP713      0.2266
    173  O         24.7070   68.4800   24.7020 O.2   713  ASP713     -0.2867
    174  CB        26.2780   71.1830   23.6510 C.3   713  ASP713      0.1410
    175  CG        25.4910   70.8480   22.4030 C.2   713  ASP713      0.3668
    176  OD1       24.3980   71.4320   22.2320 O.co2 713  ASP713     -0.2456
    177  OD2       25.8800   70.0120   21.5490 O.co2 713  ASP713     -0.2456
    178  N         22.5690   66.2010   29.3140 N.3   716  MET716     -0.1245
    179  CA        21.1190   66.2190   29.2140 C.3   716  MET716      0.1570
    180  C         20.4220   65.9380   30.5530 C.2   716  MET716      0.2261
    181  O         21.0600   65.5750   31.5350 O.2   716  MET716     -0.2867
    182  CB        20.6920   65.1920   28.1750 C.3   716  MET716      0.0387
    183  CG        21.4760   65.2790   26.8740 C.3   716  MET716      0.0595
    184  SD        20.7970   64.2100   25.6020 S.3   716  MET716     -0.1393
    185  CE        19.3210   65.1390   25.1290 C.3   716  MET716      0.0692
    186  N         22.1280   63.4180   32.9440 N.3   724  PHE724     -0.1241
    187  CA        23.1620   62.5110   32.4360 C.3   724  PHE724      0.1605
    188  C         24.0240   63.1330   31.3380 C.2   724  PHE724      0.2264
    189  O         23.5670   63.9920   30.6110 O.2   724  PHE724     -0.2867
    190  CB        22.5450   61.1990   31.9420 C.3   724  PHE724      0.0534
    191  CG        21.6160   61.3530   30.7750 C.ar  724  PHE724     -0.0203
    192  CD1       22.0120   60.9730   29.5050 C.ar  724  PHE724     -0.0042
    193  CD2       20.3370   61.8480   30.9480 C.ar  724  PHE724     -0.0042
    194  CE1       21.1600   61.1040   28.4310 C.ar  724  PHE724     -0.0003
    195  CE2       19.4750   61.9830   29.8620 C.ar  724  PHE724     -0.0003
    196  CZ        19.8910   61.6100   28.6070 C.ar  724  PHE724     -0.0000
    197  N         26.4070   62.7750   27.7750 N.3   726  ILE726     -0.1231
    198  CA        26.4830   62.0280   26.5150 C.3   726  ILE726      0.1692
    199  C         27.7900   62.3160   25.7680 C.2   726  ILE726      0.2592
    200  O         28.5200   63.2180   26.1360 O.2   726  ILE726     -0.2718
    201  CB        25.3000   62.4040   25.5910 C.3   726  ILE726      0.0266
    202  CG1       25.1910   63.9390   25.4460 C.3   726  ILE726      0.0019
    203  CG2       23.9980   61.7920   26.1020 C.3   726  ILE726      0.0020
    204  CD1       24.6340   64.4080   24.1430 C.3   726  ILE726      0.0001
    205  N         28.0660   61.5400   24.7220 N.am  727  ASP727     -0.1960
    206  CA        29.1400   61.8070   23.7460 C.3   727  ASP727      0.1840
    207  C         30.5700   61.8720   24.2960 C.2   727  ASP727      0.2622
    208  O         31.1900   62.9300   24.3130 O.2   727  ASP727     -0.2715
    209  CB        28.8300   63.0780   22.9340 C.3   727  ASP727      0.1450
    210  CG        29.5750   63.1210   21.5960 C.2   727  ASP727      0.3671
    211  OD1       30.3690   62.1900   21.3360 O.co2 727  ASP727     -0.2456
    212  OD2       29.4340   64.0350   20.7440 O.co2 727  ASP727     -0.2456
    213  N         31.1150   60.7230   24.6760 N.am  728  PHE728     -0.1974
    214  CA        32.4180   60.6720   25.3440 C.3   728  PHE728      0.1639
    215  C         33.6450   60.5620   24.4250 C.2   728  PHE728      0.2290
    216  O         34.7670   60.5580   24.9120 O.2   728  PHE728     -0.2864
    217  CB        32.4150   59.5440   26.3780 C.3   728  PHE728      0.0560
    218  CG        31.2080   59.5640   27.2810 C.ar  728  PHE728     -0.0200
    219  CD1       30.0860   58.7970   26.9840 C.ar  728  PHE728     -0.0042
    220  CD2       31.1840   60.3670   28.4060 C.ar  728  PHE728     -0.0042
    221  CE1       28.9710   58.8270   27.7990 C.ar  728  PHE728     -0.0003
    222  CE2       30.0690   60.3970   29.2290 C.ar  728  PHE728     -0.0003
    223  CZ        28.9600   59.6280   28.9240 C.ar  728  PHE728     -0.0000
@<TRIPOS>BOND
     1    16    14    1
     2    14    15    1
     3    14    11    1
     4    10    11    1
     5    10     3   am
     6    11    12    1
     7     3     2    1
     8     3     4    2
     9     2     1    1
    10     2     5    1
    11    12    13    2
    12    12    17   am
    13     5     6    1
    14    17    18    1
    15    20    19    2
    16    33    32    2
    17    26    29    1
    18    26    25    1
    19    26    27    1
    20    19    25   am
    21    19    18    1
    22    60    61    2
    23    60    59    1
    24    18    21    1
    25     6     7    1
    26    30    27   am
    27    30    31    1
    28    32    31    1
    29    39    38    2
    30    36    37    1
    31    59    58    1
    32    59    62    1
    33    27    28    2
    34     7     8    1
    35    31    34    1
    36    38    37    1
    37    21    22    1
    38    37    40    1
    39    64    63    1
    40    64    65    1
    41    67    68    1
    42    62    63    1
    43    22    23    1
    44    40    41    1
    45     8     9    1
    46    34    35    1
    47    52    53    2
    48    52    51    1
    49    70    69    2
    50    23    24    1
    51    66    65    1
    52    68    69    1
    53    68    71    1
    54    42    41   ar
    55    42    44   ar
    56    41    43   ar
    57    51    54    1
    58    51    50    1
    59    56    54    1
    60    73    72   ar
    61    82    80    1
    62    72    71    1
    63    72    74   ar
    64    44    45   ar
    65    54    55    1
    66    43    46   ar
    67    43    45   ar
    68    55    57    1
    69    46    48   ar
    70    45    47   ar
    71    75    76    1
    72    80    79    1
    73    80    81    1
    74    79    76    1
    75   117   118    1
    76   141   139    1
    77   124   122    1
    78    76    77    1
    79   122   121    1
    80    48    49   ar
    81    47    49   ar
    82   120   119    2
    83   121   118    1
    84   121   123    1
    85   139   138    1
    86   169   168    1
    87   118   119    1
    88    77    78    2
    89   212   210   ar
    90   119   125   am
    91   211   210   ar
    92   168   167    1
    93   177   175   ar
    94   138   140    1
    95   138   135    1
    96   210   209    1
    97   116   115    1
    98    89    88   ar
    99   167   166    1
   100   125   126    1
   101   113   112    1
   102   113   114    2
   103   176   175   ar
   104   175   174    1
   105   134   135    1
   106   134   127   am
   107   126   127    1
   108   126   129    1
   109   112   115    1
   110   112   111    1
   111   135   136    1
   112    88    90   ar
   113    88    87    1
   114   127   128    2
   115   209   206    1
   116   166   165    1
   117    87    84    1
   118    83    84    1
   119   174   171    1
   120   206   207    1
   121   206   205    1
   122   129   130    1
   123   165   162    1
   124   136   137    2
   125   136   142   am
   126   204   202    1
   127    84    85    1
   128   207   208    2
   129   207   213   am
   130   159   158    1
   131   130   131    1
   132   215   216    2
   133   215   214    1
   134   162   161    1
   135   162   163    1
   136   213   214    1
   137   173   172    2
   138   205   199   am
   139   158   160    1
   140   158   155    1
   141    85    86    2
   142   171   172    1
   143   171   170    1
   144   142   143    1
   145   185   184    1
   146   107   105   ar
   147   107   109   ar
   148   164   163    2
   149   214   217    1
   150   152   151    2
   151   202   201    1
   152   105   104   ar
   153   145   144    2
   154   201   203    1
   155   201   198    1
   156   184   183    1
   157   110   109    1
   158   199   200    2
   159   199   198    1
   160   131   133   ar
   161   131   132   ar
   162   109   108   ar
   163   154   155    1
   164   144   143    1
   165    98    96    1
   166   155   156    1
   167   143   146    1
   168   217   218    1
   169   198   197    1
   170   151   150    1
   171   104   103    1
   172   104   106   ar
   173   183   182    1
   174   157   156    2
   175   219   218   ar
   176   219   221   ar
   177   149   150    1
   178   101   102    2
   179   101   100    1
   180   103   100    1
   181   108   106   ar
   182   218   220   ar
   183   146   148    1
   184   146   147    1
   185   150   153    1
   186    96    95    1
   187    96    97    1
   188   221   223   ar
   189   100    99    1
   190   182   179    1
   191    95    92    1
   192   220   222   ar
   193   194   196   ar
   194   194   192   ar
   195   196   195   ar
   196   223   222   ar
   197    91    92    1
   198   179   178    1
   199   179   180    1
   200    92    93    1
   201   192   191   ar
   202   195   193   ar
   203    93    94    2
   204   180   181    2
   205   189   188    2
   206   191   193   ar
   207   191   190    1
   208   188   187    1
   209   190   187    1
   210   187   186    1
