@<TRIPOS>MOLECULE
tmp/3l14A00.pdb
 167 162 0 0 0
SMALL
GASTEIGER

@<TRIPOS>ATOM
      1  N          8.3330   -0.6710   10.4360 N.3     2  TRP2       -0.1241
      2  CA         7.6890   -1.6260   11.3580 C.3     2  TRP2        0.1605
      3  C          6.6770   -2.4820   10.5910 C.2     2  TRP2        0.2264
      4  O          6.1370   -2.0350    9.5860 O.2     2  TRP2       -0.2867
      5  CB         6.9740   -0.9370   12.4920 C.3     2  TRP2        0.0550
      6  CG         5.7840   -0.1190   12.1250 C.ar    2  TRP2        0.0003
      7  CD1        5.7370    1.1960   11.7810 C.ar    2  TRP2        0.0946
      8  CD2        4.4230   -0.5910   12.0860 C.ar    2  TRP2        0.0152
      9  NE1        4.4400    1.5820   11.5280 N.ar    2  TRP2       -0.2442
     10  CE2        3.6200    0.5080   11.7000 C.ar    2  TRP2        0.0810
     11  CE3        3.8040   -1.8230   12.3310 C.ar    2  TRP2        0.0012
     12  CZ2        2.2400    0.3950   11.5540 C.ar    2  TRP2        0.0191
     13  CZ3        2.4270   -1.9060   12.1890 C.ar    2  TRP2        0.0001
     14  CH2        1.6440   -0.8120   11.8020 C.ar    2  TRP2        0.0015
     15  N         -3.3130    0.1040    3.7170 N.3    59  ASN59      -0.1240
     16  CA        -2.2110    0.9070    4.2230 C.3    59  ASN59       0.1653
     17  C         -0.9320    0.1120    4.4080 C.2    59  ASN59       0.2266
     18  O          0.0410    0.6380    4.9820 O.2    59  ASN59      -0.2867
     19  CB        -2.5880    1.6040    5.5490 C.3    59  ASN59       0.1155
     20  CG        -2.9920    0.5970    6.6090 C.2    59  ASN59       0.2627
     21  OD1       -2.5590   -0.5630    6.5710 O.2    59  ASN59      -0.2716
     22  ND2       -3.7950    1.0250    7.5440 N.am   59  ASN59      -0.0877
     23  N         -0.5410   -2.6410    6.1450 N.3    61  HIS61      -0.1226
     24  CA        -0.6210   -3.6130    7.2610 C.3    61  HIS61       0.1752
     25  C         -2.0510   -4.0940    7.4970 C.2    61  HIS61       0.2595
     26  O         -2.1830   -5.2260    7.9760 O.2    61  HIS61      -0.2718
     27  CB         0.0250   -3.1030    8.5430 C.3    61  HIS61       0.0759
     28  CG        -0.4580   -1.7960    9.0260 C.ar   61  HIS61       0.0818
     29  ND1       -1.4870   -1.6200    9.9270 N.ar   61  HIS61      -0.2268
     30  CD2       -0.0350   -0.5480    8.6710 C.ar   61  HIS61       0.1154
     31  CE1       -1.6910   -0.3360   10.1320 C.ar   61  HIS61       0.1986
     32  NE2       -0.8190    0.3110    9.3850 N.ar   61  HIS61      -0.2212
     33  N         -3.0520   -3.3240    7.1280 N.am   62  ALA62      -0.1980
     34  CA        -4.4510   -3.6860    7.1790 C.3    62  ALA62       0.1597
     35  C         -5.1780   -2.8540    6.1270 C.2    62  ALA62       0.2287
     36  O         -4.5260   -2.3180    5.2130 O.2    62  ALA62      -0.2864
     37  CB        -5.0500   -3.5690    8.5610 C.3    62  ALA62       0.0319
     38  N         -8.2130    0.3240    6.0230 N.3    64  ASN64      -0.1240
     39  CA        -9.0820    1.2630    6.7510 C.3    64  ASN64       0.1653
     40  C        -10.2980    1.6570    5.9150 C.2    64  ASN64       0.2266
     41  O        -10.1490    2.0380    4.7290 O.2    64  ASN64      -0.2867
     42  CB        -8.3310    2.5230    7.1370 C.3    64  ASN64       0.1155
     43  CG        -7.2390    2.2990    8.1470 C.2    64  ASN64       0.2627
     44  OD1       -7.2070    1.3070    8.8570 O.2    64  ASN64      -0.2716
     45  ND2       -6.3120    3.2690    8.2130 N.am   64  ASN64      -0.0877
     46  N        -12.6540    6.0620   11.3380 N.3    89  GLN89      -0.1245
     47  CA       -12.3500    4.9250   10.4920 C.3    89  GLN89       0.1566
     48  C        -12.6260    3.6470   11.2620 C.2    89  GLN89       0.2260
     49  O        -12.6590    3.6650   12.4830 O.2    89  GLN89      -0.2867
     50  CB       -10.9010    4.9280   10.0000 C.3    89  GLN89       0.0367
     51  CG        -9.8360    4.9950   11.0960 C.3    89  GLN89       0.0905
     52  CD        -9.0910    3.7100   11.2680 C.2    89  GLN89       0.2608
     53  OE1       -9.6820    2.6320   11.3430 O.2    89  GLN89      -0.2717
     54  NE2       -7.7750    3.7940   11.3440 N.am   89  GLN89      -0.0878
     55  N        -11.1720   -0.6610   11.0070 N.3    91  HIS91      -0.1241
     56  CA       -10.2900   -1.6180   10.3890 C.3    91  HIS91       0.1621
     57  C        -10.3770   -2.9110   11.1970 C.2    91  HIS91       0.2264
     58  O        -10.9820   -2.9510   12.2640 O.2    91  HIS91      -0.2867
     59  CB        -8.8360   -1.0980   10.3480 C.3    91  HIS91       0.0745
     60  CG        -8.3440   -0.8370   11.7520 C.ar   91  HIS91       0.0817
     61  ND1       -8.5180    0.3750   12.4010 N.ar   91  HIS91      -0.2268
     62  CD2       -7.7200   -1.6820   12.6340 C.ar   91  HIS91       0.1154
     63  CE1       -8.0260    0.2390   13.6350 C.ar   91  HIS91       0.1986
     64  NE2       -7.5210   -1.0000   13.8300 N.ar   91  HIS91      -0.2212
     65  N         -8.0250   -6.6380   12.5150 N.3    93  HIS93      -0.1241
     66  CA        -6.7980   -7.4400   12.6830 C.3    93  HIS93       0.1621
     67  C         -7.2650   -8.8980   12.5350 C.2    93  HIS93       0.2264
     68  O         -8.3510   -9.2600   13.0240 O.2    93  HIS93      -0.2867
     69  CB        -6.1430   -7.2390   14.0470 C.3    93  HIS93       0.0745
     70  CG        -5.8700   -5.7970   14.3600 C.ar   93  HIS93       0.0817
     71  ND1       -4.6320   -5.2110   14.2060 N.ar   93  HIS93      -0.2268
     72  CD2       -6.7150   -4.7930   14.7550 C.ar   93  HIS93       0.1154
     73  CE1       -4.7300   -3.9020   14.5390 C.ar   93  HIS93       0.1986
     74  NE2       -5.9760   -3.6190   14.8690 N.ar   93  HIS93      -0.2212
     75  N        -12.0300   -2.8500   14.9090 N.3   116  HIS116     -0.1241
     76  CA       -11.7980   -1.6320   15.6950 C.3   116  HIS116      0.1621
     77  C        -12.4820   -0.4500   15.0010 C.2   116  HIS116      0.2264
     78  O        -12.0950   -0.0970   13.8810 O.2   116  HIS116     -0.2867
     79  CB       -10.2960   -1.3750   15.8200 C.3   116  HIS116      0.0745
     80  CG        -9.6000   -2.3570   16.7130 C.ar  116  HIS116      0.0817
     81  ND1       -8.2490   -2.6060   16.6880 N.ar  116  HIS116     -0.2268
     82  CD2      -10.1700   -3.1690   17.6740 C.ar  116  HIS116      0.1154
     83  CE1       -7.9840   -3.5160   17.6210 C.ar  116  HIS116      0.1986
     84  NE2       -9.1290   -3.8870   18.2330 N.ar  116  HIS116     -0.2212
     85  N        -12.7020    3.3860   15.3400 N.3   118  VAL118     -0.1245
     86  CA       -11.8690    4.4140   15.9540 C.3   118  VAL118      0.1561
     87  C        -12.5910    5.7620   15.9810 C.2   118  VAL118      0.2260
     88  O        -13.0560    6.2280   14.9290 O.2   118  VAL118     -0.2867
     89  CB       -10.5200    4.5400   15.1900 C.3   118  VAL118      0.0252
     90  CG1       -9.6360    5.6080   15.8430 C.3   118  VAL118      0.0019
     91  CG2       -9.7840    3.2080   15.1010 C.3   118  VAL118      0.0019
     92  N         -8.2460   14.6830   14.8950 N.3   127  PHE127     -0.1241
     93  CA        -7.6230   13.4480   15.3020 C.3   127  PHE127      0.1605
     94  C         -6.1700   13.6290   15.7500 C.2   127  PHE127      0.2264
     95  O         -5.7220   13.0510   16.7200 O.2   127  PHE127     -0.2867
     96  CB        -7.7250   12.4230   14.1510 C.3   127  PHE127      0.0534
     97  CG        -7.0450   11.0930   14.4510 C.ar  127  PHE127     -0.0203
     98  CD1       -7.7380   10.0500   15.0530 C.ar  127  PHE127     -0.0042
     99  CD2       -5.7180   10.8420   14.1160 C.ar  127  PHE127     -0.0042
    100  CE1       -7.1410    8.8290   15.2960 C.ar  127  PHE127     -0.0003
    101  CE2       -5.0650    9.6720   14.3990 C.ar  127  PHE127     -0.0003
    102  CZ        -5.7890    8.6420   15.0070 C.ar  127  PHE127     -0.0000
    103  N         -8.9520    9.3720   22.2870 N.3   137  LEU137     -0.1245
    104  CA        -9.6420    8.4160   21.4110 C.3   137  LEU137      0.1561
    105  C        -10.5110    7.4630   22.2330 C.2   137  LEU137      0.2260
    106  O        -10.2390    7.1540   23.3860 O.2   137  LEU137     -0.2867
    107  CB        -8.6630    7.5840   20.6030 C.3   137  LEU137      0.0270
    108  CG        -7.7270    8.2710   19.6420 C.3   137  LEU137      0.0019
    109  CD1       -6.9610    7.2120   18.8140 C.3   137  LEU137      0.0001
    110  CD2       -8.3950    9.2840   18.7070 C.3   137  LEU137      0.0001
    111  N        -11.9870    3.5610   21.2050 N.3   139  VAL139     -0.1245
    112  CA       -12.0410    2.4980   20.2250 C.3   139  VAL139      0.1561
    113  C        -13.0550    1.4530   20.7000 C.2   139  VAL139      0.2260
    114  O        -12.9230    0.9560   21.8210 O.2   139  VAL139     -0.2867
    115  CB       -10.6730    1.9020   19.8790 C.3   139  VAL139      0.0252
    116  CG1      -10.8780    0.8550   18.7720 C.3   139  VAL139      0.0019
    117  CG2       -9.6870    2.9690   19.4260 C.3   139  VAL139      0.0019
    118  N         -2.9870    2.9630   21.3150 N.3   194  LEU194     -0.1231
    119  CA        -2.9850    2.3970   19.9700 C.3   194  LEU194      0.1693
    120  C         -2.2720    1.0420   20.0390 C.2   194  LEU194      0.2593
    121  O         -1.2610    0.9100   20.7250 O.2   194  LEU194     -0.2718
    122  CB        -2.2060    3.2940   19.0070 C.3   194  LEU194      0.0284
    123  CG        -2.9490    4.3420   18.2010 C.3   194  LEU194      0.0019
    124  CD1       -3.6980    5.3540   19.0110 C.3   194  LEU194      0.0001
    125  CD2       -2.0290    5.0320   17.2150 C.3   194  LEU194      0.0001
    126  N         -2.7390    0.0830   19.2330 N.am  195  THR195     -0.1939
    127  CA        -2.0870   -1.2050   19.1190 C.3   195  THR195      0.2028
    128  C         -1.0790   -1.3050   17.9700 C.2   195  THR195      0.2643
    129  O         -0.4080   -2.3260   17.8500 O.2   195  THR195     -0.2714
    130  CB        -3.0780   -2.3680   19.0460 C.3   195  THR195      0.1808
    131  OG1       -3.6750   -2.3050   17.7480 O.3   195  THR195     -0.2208
    132  CG2       -4.1100   -2.3660   20.1680 C.3   195  THR195      0.0379
    133  N         -0.9730   -0.2430   17.1830 N.am  196  THR196     -0.1937
    134  CA         0.0360   -0.1230   16.1470 C.3   196  THR196      0.2013
    135  C          0.9220    1.0710   16.4770 C.2   196  THR196      0.2484
    136  O          0.4560    2.0140   17.1360 O.2   196  THR196     -0.2729
    137  CB        -0.5550    0.1320   14.7420 C.3   196  THR196      0.1807
    138  OG1       -1.2220    1.3770   14.7190 O.3   196  THR196     -0.2208
    139  CG2       -1.5670   -0.9190   14.3410 C.3   196  THR196      0.0379
    140  N          2.1650    1.0690   16.0070 N.am  197  PRO197     -0.2726
    141  CA         2.9650    2.3160   16.0630 C.3   197  PRO197      0.1402
    142  C          2.1230    3.5010   15.5790 C.2   197  PRO197      0.2269
    143  O          1.3750    3.3440   14.5830 O.2   197  PRO197     -0.2865
    144  CB         4.1380    1.9930   15.1330 C.3   197  PRO197      0.0296
    145  CG         4.3390    0.5180   15.4010 C.3   197  PRO197      0.0237
    146  CD         2.9210   -0.0330   15.3670 C.3   197  PRO197      0.0939
    147  N         -6.0770    6.0610   24.3700 N.3   203  VAL203     -0.1245
    148  CA        -7.3070    5.3450   24.0420 C.3   203  VAL203      0.1561
    149  C         -8.0680    4.9060   25.2700 C.2   203  VAL203      0.2260
    150  O         -7.5420    4.2410   26.1600 O.2   203  VAL203     -0.2867
    151  CB        -7.0280    4.0890   23.1570 C.3   203  VAL203      0.0252
    152  CG1       -8.3530    3.3980   22.8350 C.3   203  VAL203      0.0019
    153  CG2       -6.2960    4.4710   21.8910 C.3   203  VAL203      0.0019
    154  N        -10.5110    2.0830   25.7100 N.3   205  TRP205     -0.1241
    155  CA       -10.9480    0.8730   25.0430 C.3   205  TRP205      0.1605
    156  C        -12.3140    0.4350   25.5730 C.2   205  TRP205      0.2264
    157  O        -12.5520    0.4090   26.7800 O.2   205  TRP205     -0.2867
    158  CB        -9.9420   -0.2950   25.2660 C.3   205  TRP205      0.0550
    159  CG        -8.8220   -0.1460   24.2560 C.ar  205  TRP205      0.0003
    160  CD1       -7.6140    0.4450   24.4250 C.ar  205  TRP205      0.0946
    161  CD2       -8.8900   -0.5710   22.8990 C.ar  205  TRP205      0.0152
    162  NE1       -6.9020    0.4080   23.2520 N.ar  205  TRP205     -0.2442
    163  CE2       -7.6670   -0.2080   22.3040 C.ar  205  TRP205      0.0810
    164  CE3       -9.8580   -1.2140   22.1230 C.ar  205  TRP205      0.0012
    165  CZ2       -7.3880   -0.4640   20.9730 C.ar  205  TRP205      0.0191
    166  CZ3       -9.5720   -1.4790   20.8200 C.ar  205  TRP205      0.0001
    167  CH2       -8.3510   -1.1120   20.2490 C.ar  205  TRP205      0.0015
@<TRIPOS>BOND
     1    15    16    1
     2    16    17    1
     3    16    19    1
     4    17    18    2
     5    41    40    2
     6    36    35    2
     7    19    20    1
     8    40    39    1
     9    38    39    1
    10    35    34    1
    11    23    24    1
    12    21    20    2
    13    20    22   am
    14    39    42    1
    15    33    34    1
    16    33    25   am
    17    42    43    1
    18    34    37    1
    19    24    25    1
    20    24    27    1
    21    25    26    2
    22    43    45   am
    23    43    44    2
    24    27    28    1
    25    30    28   ar
    26    30    32   ar
    27    28    29   ar
    28    32    31   ar
    29     4     3    2
    30    29    31   ar
    31    50    47    1
    32    50    51    1
    33    59    56    1
    34    59    60    1
    35    56    55    1
    36    56    57    1
    37     1     2    1
    38    47    48    1
    39    47    46    1
    40     3     2    1
    41    51    52    1
    42    57    58    2
    43    48    49    2
    44    52    53    2
    45    52    54   am
    46     2     5    1
    47     9    10   ar
    48     9     7   ar
    49    12    10   ar
    50    12    14   ar
    51    10     8   ar
    52    60    61   ar
    53    60    62   ar
    54     7     6   ar
    55    14    13   ar
    56     8     6   ar
    57     8    11   ar
    58     6     5    1
    59    13    11   ar
    60    61    63   ar
    61    65    66    1
    62    67    66    1
    63    67    68    2
    64    62    64   ar
    65    66    69    1
    66    63    64   ar
    67    78    77    2
    68    69    70    1
    69    99   101   ar
    70    99    97   ar
    71    96    97    1
    72    96    93    1
    73    71    70   ar
    74    71    73   ar
    75   139   137    1
    76    70    72   ar
    77   101   102   ar
    78    97    98   ar
    79    73    74   ar
    80   143   142    2
    81   138   137    1
    82   137   134    1
    83    72    74   ar
    84    92    93    1
    85    75    76    1
    86    88    87    2
    87    77    76    1
    88   102   100   ar
    89    98   100   ar
    90    91    89    1
    91   144   145    1
    92   144   141    1
    93    89    90    1
    94    89    86    1
    95    93    94    1
    96    85    86    1
    97   146   145    1
    98   146   140    1
    99   142   141    1
   100    76    79    1
   101    94    95    2
   102    79    80    1
   103    86    87    1
   104   140   141    1
   105   140   135   am
   106   134   135    1
   107   134   133    1
   108   135   136    2
   109    81    80   ar
   110    81    83   ar
   111    80    82   ar
   112   133   128   am
   113   125   123    1
   114    83    84   ar
   115    82    84   ar
   116   131   130    1
   117   129   128    2
   118   128   127    1
   119   123   122    1
   120   123   124    1
   121   110   108    1
   122   116   115    1
   123   109   108    1
   124   122   119    1
   125   130   127    1
   126   130   132    1
   127   127   126    1
   128   126   120   am
   129   117   115    1
   130   108   107    1
   131   115   112    1
   132   119   120    1
   133   119   118    1
   134   120   121    2
   135   112   113    1
   136   112   111    1
   137   167   166   ar
   138   167   165   ar
   139   107   104    1
   140   113   114    2
   141   166   164   ar
   142   165   163   ar
   143   104   105    1
   144   104   103    1
   145   153   151    1
   146   164   161   ar
   147   105   106    2
   148   163   161   ar
   149   163   162   ar
   150   152   151    1
   151   161   159   ar
   152   151   148    1
   153   162   160   ar
   154   148   147    1
   155   148   149    1
   156   159   160   ar
   157   159   158    1
   158   155   158    1
   159   155   156    1
   160   155   154    1
   161   149   150    2
   162   156   157    2
