@<TRIPOS>MOLECULE
tmp/3l17A00.pdb
 213 201 0 0 0
SMALL
GASTEIGER

@<TRIPOS>ATOM
      1  N         14.0620   62.2570   11.5330 N.3   565  LYS565     -0.1231
      2  CA        14.6930   63.4710   11.0340 C.3   565  LYS565      0.1693
      3  C         16.2170   63.3450   10.8850 C.2   565  LYS565      0.2592
      4  O         16.8080   62.3250   11.2130 O.2   565  LYS565     -0.2718
      5  CB        14.3180   64.6710   11.9250 C.3   565  LYS565      0.0285
      6  CG        14.7100   64.5510   13.4060 C.3   565  LYS565      0.0035
      7  CD        13.5410   64.1510   14.3390 C.3   565  LYS565      0.0206
      8  CE        13.0730   65.2920   15.2590 C.3   565  LYS565      0.1093
      9  NZ        14.1210   65.7270   16.2460 N.3   565  LYS565     -0.1314
     10  N         16.8310   64.3850   10.3390 N.am  566  VAL566     -0.1966
     11  CA        18.2700   64.5340   10.3580 C.3   566  VAL566      0.1727
     12  C         18.5510   65.5940   11.3920 C.2   566  VAL566      0.2616
     13  O         17.9360   66.6430   11.3830 O.2   566  VAL566     -0.2715
     14  CB        18.8190   64.9880    9.0030 C.3   566  VAL566      0.0290
     15  CG1       20.2330   65.4970    9.1500 C.3   566  VAL566      0.0023
     16  CG2       18.7700   63.8490    8.0080 C.3   566  VAL566      0.0023
     17  N         19.4770   65.3220   12.2900 N.am  567  MET567     -0.1963
     18  CA        19.7200   66.2280   13.3870 C.3   567  MET567      0.1736
     19  C         20.5700   67.4110   12.9640 C.2   567  MET567      0.2616
     20  O         21.5600   67.2540   12.2530 O.2   567  MET567     -0.2715
     21  CB        20.3930   65.4860   14.5210 C.3   567  MET567      0.0427
     22  CG        19.4820   64.4940   15.1640 C.3   567  MET567      0.0599
     23  SD        20.0830   64.0050   16.7720 S.3   567  MET567     -0.1393
     24  CE        20.7060   62.4000   16.3510 C.3   567  MET567      0.0692
     25  N         20.1780   68.5930   13.4280 N.am  568  ALA568     -0.1963
     26  CA        20.8660   69.8260   13.1020 C.3   568  ALA568      0.1728
     27  C         22.0870   69.9470   13.9890 C.2   568  ALA568      0.2616
     28  O         22.1030   70.7630   14.9110 O.2   568  ALA568     -0.2715
     29  CB        19.9340   71.0160   13.3050 C.3   568  ALA568      0.0334
     30  N         23.1010   69.1300   13.6960 N.am  569  SER569     -0.1950
     31  CA        24.3490   69.0740   14.4700 C.3   569  SER569      0.1924
     32  C         25.5040   69.8050   13.7500 C.2   569  SER569      0.2314
     33  O         25.7860   70.9810   14.0310 O.2   569  SER569     -0.2863
     34  CB        24.7160   67.6120   14.7500 C.3   569  SER569      0.2116
     35  OG        26.1150   67.3800   14.6530 O.3   569  SER569     -0.2180
     36  N         23.6720   63.1250   12.0620 N.3   573  PRO573     -0.2116
     37  CA        23.1500   61.9080   12.6290 C.3   573  PRO573      0.1372
     38  C         21.6530   61.7970   12.3880 C.2   573  PRO573      0.2244
     39  O         20.9880   62.8060   12.1490 O.2   573  PRO573     -0.2868
     40  CB        23.4550   62.0550   14.1200 C.3   573  PRO573      0.0268
     41  CG        23.5300   63.4740   14.3610 C.3   573  PRO573      0.0207
     42  CD        24.0510   64.0880   13.1130 C.3   573  PRO573      0.0892
     43  N         17.8670   60.8070   13.6400 N.3   575  TRP575     -0.1241
     44  CA        16.9780   60.6020   14.7570 C.3   575  TRP575      0.1605
     45  C         15.8800   59.7450   14.2010 C.2   575  TRP575      0.2264
     46  O         14.9970   60.2290   13.5130 O.2   575  TRP575     -0.2867
     47  CB        16.4210   61.9260   15.2680 C.3   575  TRP575      0.0550
     48  CG        15.4790   61.7790   16.3940 C.ar  575  TRP575      0.0003
     49  CD1       14.2510   61.1810   16.3690 C.ar  575  TRP575      0.0946
     50  CD2       15.6680   62.2460   17.7240 C.ar  575  TRP575      0.0152
     51  NE1       13.6730   61.2440   17.6050 N.ar  575  TRP575     -0.2442
     52  CE2       14.5190   61.8950   18.4580 C.ar  575  TRP575      0.0810
     53  CE3       16.6980   62.9230   18.3740 C.ar  575  TRP575      0.0012
     54  CZ2       14.3670   62.2040   19.8080 C.ar  575  TRP575      0.0191
     55  CZ3       16.5490   63.2240   19.7270 C.ar  575  TRP575      0.0001
     56  CH2       15.3900   62.8650   20.4250 C.ar  575  TRP575      0.0015
     57  N         19.4350   56.8750   17.6560 N.3   594  ILE594     -0.1245
     58  CA        20.2170   57.8190   16.8530 C.3   594  ILE594      0.1561
     59  C         21.3280   57.0860   16.1000 C.2   594  ILE594      0.2260
     60  O         21.9270   56.1600   16.6340 O.2   594  ILE594     -0.2867
     61  CB        20.8760   58.8810   17.7330 C.3   594  ILE594      0.0252
     62  CG1       19.8310   59.8120   18.3390 C.3   594  ILE594      0.0019
     63  CG2       21.9070   59.6580   16.9570 C.3   594  ILE594      0.0019
     64  CD1       20.4070   60.7350   19.3670 C.3   594  ILE594      0.0001
     65  N         24.9190   57.8240   14.0880 N.3   596  LYS596     -0.1245
     66  CA        25.9250   58.8550   13.8780 C.3   596  LYS596      0.1561
     67  C         27.1130   58.2690   13.1490 C.2   596  LYS596      0.2260
     68  O         27.5880   57.1750   13.4910 O.2   596  LYS596     -0.2867
     69  CB        26.3570   59.4570   15.2160 C.3   596  LYS596      0.0271
     70  CG        27.2390   60.6870   15.1130 C.3   596  LYS596      0.0035
     71  CD        27.3380   61.3810   16.4790 C.3   596  LYS596      0.0206
     72  CE        28.1930   62.6820   16.4780 C.3   596  LYS596      0.1093
     73  NZ        27.5380   63.9150   15.8730 N.3   596  LYS596     -0.1314
     74  N         31.7980   60.3740   14.8030 N.3   599  ASP599     -0.1239
     75  CA        32.2860   60.1510   16.1670 C.3   599  ASP599      0.1674
     76  C         32.7240   58.6960   16.2830 C.2   599  ASP599      0.2266
     77  O         32.0490   57.7980   15.7470 O.2   599  ASP599     -0.2867
     78  CB        31.1990   60.4470   17.2220 C.3   599  ASP599      0.1410
     79  CG        31.1470   61.9200   17.6260 C.2   599  ASP599      0.3668
     80  OD1       31.8750   62.7450   17.0330 O.co2 599  ASP599     -0.2456
     81  OD2       30.3710   62.2550   18.5450 O.co2 599  ASP599     -0.2456
     82  N         32.5660   56.0190   18.4480 N.3   601  LEU601     -0.1245
     83  CA        31.6500   55.6720   19.5450 C.3   601  LEU601      0.1561
     84  C         32.2410   54.6490   20.5210 C.2   601  LEU601      0.2260
     85  O         31.7300   54.4700   21.6300 O.2   601  LEU601     -0.2867
     86  CB        30.3090   55.1560   18.9790 C.3   601  LEU601      0.0270
     87  CG        29.1410   56.1070   18.6420 C.3   601  LEU601      0.0019
     88  CD1       29.4670   57.5940   18.7640 C.3   601  LEU601      0.0001
     89  CD2       28.5880   55.7710   17.2650 C.3   601  LEU601      0.0001
     90  N         32.7780   56.2820   23.5280 N.3   604  ASP604     -0.1239
     91  CA        31.5250   56.4330   24.2530 C.3   604  ASP604      0.1674
     92  C         31.1530   55.1270   24.9900 C.2   604  ASP604      0.2266
     93  O         30.8370   55.1740   26.1740 O.2   604  ASP604     -0.2867
     94  CB        30.3900   56.9170   23.3290 C.3   604  ASP604      0.1410
     95  CG        30.5530   58.3810   22.8790 C.2   604  ASP604      0.3668
     96  OD1       31.2940   58.6390   21.8980 O.co2 604  ASP604     -0.2456
     97  OD2       29.8950   59.2620   23.4810 O.co2 604  ASP604     -0.2456
     98  N         22.6300   55.4920   28.9890 N.3   630  TYR630     -0.1241
     99  CA        21.8880   55.0110   27.8190 C.3   630  TYR630      0.1605
    100  C         22.7130   54.0270   26.9720 C.2   630  TYR630      0.2264
    101  O         23.9290   54.0200   27.0040 O.2   630  TYR630     -0.2867
    102  CB        21.4490   56.2230   26.9610 C.3   630  TYR630      0.0534
    103  CG        22.6120   57.0920   26.5590 C.ar  630  TYR630     -0.0201
    104  CD1       23.3130   56.8380   25.3980 C.ar  630  TYR630     -0.0009
    105  CD2       23.0500   58.1250   27.3740 C.ar  630  TYR630     -0.0009
    106  CE1       24.3910   57.5970   25.0510 C.ar  630  TYR630      0.0417
    107  CE2       24.1440   58.8930   27.0270 C.ar  630  TYR630      0.0417
    108  CZ        24.8010   58.6270   25.8650 C.ar  630  TYR630      0.1957
    109  OH        25.8880   59.3730   25.4980 O.3   630  TYR630     -0.2866
    110  N         22.7760   54.8160   18.9890 N.3   642  ILE642     -0.1231
    111  CA        22.6270   55.3710   20.3320 C.3   642  ILE642      0.1692
    112  C         21.1730   55.3320   20.8090 C.2   642  ILE642      0.2592
    113  O         20.2570   55.5530   20.0250 O.2   642  ILE642     -0.2718
    114  CB        23.1080   56.8290   20.3510 C.3   642  ILE642      0.0266
    115  CG1       24.5870   56.9190   19.9320 C.3   642  ILE642      0.0019
    116  CG2       22.8740   57.4140   21.7140 C.3   642  ILE642      0.0020
    117  CD1       25.1490   58.3160   19.9310 C.3   642  ILE642      0.0001
    118  N         20.9560   55.0630   22.0910 N.am  643  GLU643     -0.1966
    119  CA        19.5990   54.9740   22.6120 C.3   643  GLU643      0.1733
    120  C         19.0900   56.3630   22.8140 C.2   643  GLU643      0.2616
    121  O         19.8440   57.2380   23.1830 O.2   643  GLU643     -0.2715
    122  CB        19.5770   54.2300   23.9350 C.3   643  GLU643      0.0429
    123  CG        18.2070   54.0240   24.5360 C.3   643  GLU643      0.1163
    124  CD        18.2690   53.5450   25.9820 C.2   643  GLU643      0.3649
    125  OE1       17.2890   53.7730   26.7230 O.co2 643  GLU643     -0.2457
    126  OE2       19.2950   52.9550   26.3920 O.co2 643  GLU643     -0.2457
    127  N         17.8120   56.5720   22.5650 N.am  644  ILE644     -0.1963
    128  CA        17.1980   57.8540   22.8490 C.3   644  ILE644      0.1727
    129  C         16.4490   57.7620   24.1700 C.2   644  ILE644      0.2616
    130  O         15.4380   57.0530   24.2610 O.2   644  ILE644     -0.2715
    131  CB        16.2350   58.2500   21.7420 C.3   644  ILE644      0.0290
    132  CG1       17.0170   58.5060   20.4610 C.3   644  ILE644      0.0022
    133  CG2       15.4750   59.4710   22.1320 C.3   644  ILE644      0.0023
    134  CD1       16.1610   58.6780   19.2520 C.3   644  ILE644      0.0001
    135  N         16.9500   58.4490   25.1940 N.am  645  VAL645     -0.1977
    136  CA        16.2580   58.4850   26.4630 C.3   645  VAL645      0.1596
    137  C         15.0000   59.2760   26.2570 C.2   645  VAL645      0.2287
    138  O         15.0230   60.2830   25.6050 O.2   645  VAL645     -0.2864
    139  CB        17.0850   59.1200   27.5760 C.3   645  VAL645      0.0276
    140  CG1       16.1990   59.4870   28.7610 C.3   645  VAL645      0.0022
    141  CG2       18.1620   58.1740   28.0170 C.3   645  VAL645      0.0022
    142  N         13.8020   63.7340   27.3080 N.3   648  ALA648     -0.1245
    143  CA        14.9770   64.4550   27.8230 C.3   648  ALA648      0.1562
    144  C         15.3010   65.6920   26.9980 C.2   648  ALA648      0.2260
    145  O         15.2270   65.6730   25.7680 O.2   648  ALA648     -0.2867
    146  CB        16.1750   63.5510   27.8720 C.3   648  ALA648      0.0290
    147  N         18.1840   68.9400   26.4670 N.3   650  THR650     -0.1218
    148  CA        19.4720   69.5680   26.7070 C.3   650  THR650      0.1862
    149  C         19.2980   70.7280   27.6700 C.2   650  THR650      0.2287
    150  O         18.2710   71.4100   27.6340 O.2   650  THR650     -0.2866
    151  CB        20.0320   70.0960   25.3860 C.3   650  THR650      0.1770
    152  OG1       20.3990   68.9850   24.5640 O.3   650  THR650     -0.2211
    153  CG2       21.2270   70.9390   25.6110 C.3   650  THR650      0.0375
    154  N         19.2530   74.0790   25.8120 N.3   653  LYS653     -0.1245
    155  CA        17.9860   74.5090   25.2240 C.3   653  LYS653      0.1561
    156  C         17.0280   75.0890   26.2590 C.2   653  LYS653      0.2260
    157  O         16.2520   75.9710   25.9270 O.2   653  LYS653     -0.2867
    158  CB        17.3060   73.3510   24.4830 C.3   653  LYS653      0.0271
    159  CG        16.3520   73.7930   23.3390 C.3   653  LYS653      0.0035
    160  CD        15.3790   72.6330   22.9510 C.3   653  LYS653      0.0206
    161  CE        14.9790   72.6000   21.4470 C.3   653  LYS653      0.1093
    162  NZ        14.8960   71.1390   20.8820 N.3   653  LYS653     -0.1314
    163  N         25.2930   72.1040   26.2060 N.3   713  ASP713     -0.1225
    164  CA        24.7380   71.2880   25.1250 C.3   713  ASP713      0.1805
    165  C         24.7500   69.8020   25.5230 C.2   713  ASP713      0.2597
    166  O         23.7160   69.1360   25.4770 O.2   713  ASP713     -0.2718
    167  CB        25.5090   71.5250   23.8050 C.3   713  ASP713      0.1424
    168  CG        24.7100   71.1080   22.5590 C.2   713  ASP713      0.3668
    169  OD1       23.6400   71.7210   22.3120 O.co2 713  ASP713     -0.2456
    170  OD2       25.1610   70.1890   21.8290 O.co2 713  ASP713     -0.2456
    171  N         25.9130   69.3250   25.9750 N.am  714  ASN714     -0.1974
    172  CA        26.1490   67.9030   26.2590 C.3   714  ASN714      0.1688
    173  C         25.7300   67.4010   27.6440 C.2   714  ASN714      0.2292
    174  O         26.2170   66.3770   28.1000 O.2   714  ASN714     -0.2864
    175  CB        27.6270   67.6040   26.0330 C.3   714  ASN714      0.1181
    176  CG        28.0060   67.6880   24.5860 C.2   714  ASN714      0.2629
    177  OD1       29.1710   67.8760   24.2420 O.2   714  ASN714     -0.2716
    178  ND2       27.0180   67.5360   23.7140 N.am  714  ASN714     -0.0877
    179  N         21.9880   66.7070   29.6070 N.3   716  MET716     -0.1245
    180  CA        20.5460   66.7380   29.4480 C.3   716  MET716      0.1570
    181  C         19.8590   66.4570   30.7660 C.2   716  MET716      0.2261
    182  O         20.5100   66.1340   31.7530 O.2   716  MET716     -0.2867
    183  CB        20.1010   65.7340   28.3940 C.3   716  MET716      0.0387
    184  CG        20.8580   65.8520   27.1040 C.3   716  MET716      0.0595
    185  SD        20.1950   64.7980   25.8330 S.3   716  MET716     -0.1393
    186  CE        18.7870   65.7170   25.2890 C.3   716  MET716      0.0692
    187  N         21.5980   63.8850   33.1450 N.3   724  PHE724     -0.1241
    188  CA        22.6660   63.0360   32.6260 C.3   724  PHE724      0.1605
    189  C         23.4880   63.7060   31.5460 C.2   724  PHE724      0.2264
    190  O         23.0290   64.6540   30.9430 O.2   724  PHE724     -0.2867
    191  CB        22.0950   61.7210   32.0900 C.3   724  PHE724      0.0534
    192  CG        21.2280   61.8610   30.8560 C.ar  724  PHE724     -0.0203
    193  CD1       21.7290   61.5690   29.6020 C.ar  724  PHE724     -0.0042
    194  CD2       19.8980   62.2330   30.9570 C.ar  724  PHE724     -0.0042
    195  CE1       20.9350   61.6630   28.4780 C.ar  724  PHE724     -0.0003
    196  CE2       19.0920   62.3300   29.8140 C.ar  724  PHE724     -0.0003
    197  CZ        19.6140   62.0380   28.5850 C.ar  724  PHE724     -0.0000
    198  N         25.9420   63.4350   27.8690 N.3   726  ILE726     -0.1231
    199  CA        25.9790   62.7360   26.5760 C.3   726  ILE726      0.1692
    200  C         27.2810   62.9700   25.8150 C.2   726  ILE726      0.2592
    201  O         28.1110   63.7440   26.2230 O.2   726  ILE726     -0.2718
    202  CB        24.8270   63.1930   25.6800 C.3   726  ILE726      0.0266
    203  CG1       24.9170   64.7090   25.4290 C.3   726  ILE726      0.0019
    204  CG2       23.4940   62.8160   26.3240 C.3   726  ILE726      0.0020
    205  CD1       23.9450   65.2200   24.4190 C.3   726  ILE726      0.0001
    206  N         27.4560   62.2860   24.7000 N.am  727  ASP727     -0.1974
    207  CA        28.4600   62.6780   23.7180 C.3   727  ASP727      0.1709
    208  C         29.8850   62.6390   24.2520 C.2   727  ASP727      0.2293
    209  O         30.6720   63.5480   24.0330 O.2   727  ASP727     -0.2864
    210  CB        28.1200   64.0800   23.1780 C.3   727  ASP727      0.1436
    211  CG        28.5450   64.2730   21.7340 C.2   727  ASP727      0.3671
    212  OD1       28.1050   65.2810   21.1350 O.co2 727  ASP727     -0.2456
    213  OD2       29.3020   63.4130   21.2020 O.co2 727  ASP727     -0.2456
@<TRIPOS>BOND
     1    16    14    1
     2    14    15    1
     3    14    11    1
     4    10    11    1
     5    10     3   am
     6    11    12    1
     7     3     2    1
     8     3     4    2
     9     2     1    1
    10     2     5    1
    11    13    12    2
    12    12    17   am
    13     5     6    1
    14    36    37    1
    15    36    42    1
    16    39    38    2
    17    20    19    2
    18    17    18    1
    19    38    37    1
    20    37    40    1
    21    19    18    1
    22    19    25   am
    23    26    29    1
    24    26    25    1
    25    26    27    1
    26    42    41    1
    27    67    68    2
    28    67    66    1
    29    18    21    1
    30     6     7    1
    31    46    45    2
    32    43    44    1
    33    30    27   am
    34    30    31    1
    35    32    33    2
    36    32    31    1
    37    66    65    1
    38    66    69    1
    39    27    28    2
    40    40    41    1
    41    45    44    1
    42     7     8    1
    43    31    34    1
    44    21    22    1
    45    35    34    1
    46    44    47    1
    47    74    75    1
    48    70    69    1
    49    70    71    1
    50    22    23    1
    51     8     9    1
    52    47    48    1
    53    77    76    2
    54    73    72    1
    55    59    60    2
    56    59    58    1
    57    75    76    1
    58    75    78    1
    59    24    23    1
    60    49    48   ar
    61    49    51   ar
    62    48    50   ar
    63    72    71    1
    64    58    57    1
    65    58    61    1
    66    63    61    1
    67    80    79   ar
    68    78    79    1
    69    89    87    1
    70    51    52   ar
    71    79    81   ar
    72    50    53   ar
    73    50    52   ar
    74    61    62    1
    75    62    64    1
    76    53    55   ar
    77    82    83    1
    78    52    54   ar
    79    87    88    1
    80    87    86    1
    81    86    83    1
    82   110   111    1
    83   134   132    1
    84    83    84    1
    85    55    56   ar
    86    54    56   ar
    87   117   115    1
    88   115   114    1
    89   113   112    2
    90   111   114    1
    91   111   112    1
    92   114   116    1
    93   132   131    1
    94    84    85    2
    95   112   118   am
    96   162   161    1
    97   212   211   ar
    98   213   211   ar
    99   161   160    1
   100   211   210    1
   101   131   133    1
   102   131   128    1
   103   170   168   ar
   104    96    95   ar
   105   118   119    1
   106   169   168   ar
   107   168   167    1
   108   127   120   am
   109   127   128    1
   110   119   120    1
   111   119   122    1
   112   120   121    2
   113   128   129    1
   114    95    94    1
   115    95    97   ar
   116   160   159    1
   117   210   207    1
   118    94    91    1
   119   159   158    1
   120    90    91    1
   121   178   176   am
   122   207   208    1
   123   207   206    1
   124   167   164    1
   125   122   123    1
   126   209   208    2
   127   129   130    2
   128   129   135   am
   129   177   176    2
   130    91    92    1
   131   205   203    1
   132   158   155    1
   133   123   124    1
   134   152   151    1
   135   176   175    1
   136   206   200   am
   137    92    93    2
   138   106   104   ar
   139   106   108   ar
   140   164   165    1
   141   164   163    1
   142   135   136    1
   143   155   154    1
   144   155   156    1
   145   186   185    1
   146   151   153    1
   147   151   148    1
   148   104   103   ar
   149   203   202    1
   150   166   165    2
   151   109   108    1
   152   165   171   am
   153   138   137    2
   154   202   204    1
   155   202   199    1
   156   145   144    2
   157   200   201    2
   158   200   199    1
   159   185   184    1
   160   108   107   ar
   161   157   156    2
   162   171   172    1
   163   124   126   ar
   164   124   125   ar
   165   175   172    1
   166   137   136    1
   167   172   173    1
   168   136   139    1
   169   147   148    1
   170   103   102    1
   171   103   105   ar
   172   199   198    1
   173   148   149    1
   174   102    99    1
   175   100   101    2
   176   100    99    1
   177   144   143    1
   178   107   105   ar
   179   184   183    1
   180   142   143    1
   181   139   141    1
   182   139   140    1
   183   150   149    2
   184   173   174    2
   185    99    98    1
   186   143   146    1
   187   183   180    1
   188   195   197   ar
   189   195   193   ar
   190   197   196   ar
   191   180   179    1
   192   180   181    1
   193   193   192   ar
   194   196   194   ar
   195   181   182    2
   196   192   194   ar
   197   192   191    1
   198   190   189    2
   199   189   188    1
   200   191   188    1
   201   188   187    1
