@<TRIPOS>MOLECULE
tmp/3l1bA00.pdb
 239 233 0 0 0
SMALL
GASTEIGER

@<TRIPOS>ATOM
      1  N         -1.1000    2.9530   -2.9110 N.3    29  PHE29      -0.1241
      2  CA        -1.5860    1.6040   -2.6990 C.3    29  PHE29       0.1605
      3  C         -0.4320    0.6080   -2.5940 C.2    29  PHE29       0.2264
      4  O         -0.4350   -0.2610   -1.7240 O.2    29  PHE29      -0.2867
      5  CB        -2.5530    1.1930   -3.8060 C.3    29  PHE29       0.0534
      6  CG        -3.3280   -0.0460   -3.4810 C.ar   29  PHE29      -0.0203
      7  CD1       -4.4800    0.0240   -2.7050 C.ar   29  PHE29      -0.0042
      8  CD2       -2.9010   -1.2840   -3.9380 C.ar   29  PHE29      -0.0042
      9  CE1       -5.1920   -1.1210   -2.3970 C.ar   29  PHE29      -0.0003
     10  CE2       -3.6060   -2.4310   -3.6360 C.ar   29  PHE29      -0.0003
     11  CZ        -4.7510   -2.3520   -2.8650 C.ar   29  PHE29      -0.0000
     12  N          0.7970    0.5730    0.7590 N.3    32  LEU32      -0.1231
     13  CA        -0.0680   -0.1770    1.6660 C.3    32  LEU32       0.1693
     14  C          0.1360   -1.6870    1.5380 C.2    32  LEU32       0.2592
     15  O          0.1240   -2.4120    2.5440 O.2    32  LEU32      -0.2718
     16  CB        -1.5280    0.1820    1.3990 C.3    32  LEU32       0.0284
     17  CG        -1.9040    1.5860    1.8740 C.3    32  LEU32       0.0019
     18  CD1       -3.3500    1.8950    1.5150 C.3    32  LEU32       0.0001
     19  CD2       -1.6760    1.7160    3.3790 C.3    32  LEU32       0.0001
     20  N          0.3020   -2.1800    0.3130 N.am   33  THR33      -0.1953
     21  CA         0.5670   -3.6100    0.1580 C.3    33  THR33       0.1897
     22  C          1.8930   -3.9620    0.8240 C.2    33  THR33       0.2313
     23  O          2.0300   -5.0290    1.4310 O.2    33  THR33      -0.2863
     24  CB         0.6130   -4.0810   -1.3180 C.3    33  THR33       0.1794
     25  OG1        1.6580   -3.4000   -2.0170 O.3    33  THR33      -0.2208
     26  CG2       -0.6970   -3.8150   -2.0140 C.3    33  THR33       0.0378
     27  N          3.3650   -2.3970    3.3510 N.3    35  MET35      -0.1230
     28  CA         3.1290   -2.4240    4.7880 C.3    35  MET35       0.1702
     29  C          2.4510   -3.7230    5.2090 C.2    35  MET35       0.2592
     30  O          2.8240   -4.3280    6.2200 O.2    35  MET35      -0.2718
     31  CB         2.2800   -1.2300    5.2280 C.3    35  MET35       0.0401
     32  CG         3.0320    0.0920    5.2450 C.3    35  MET35       0.0596
     33  SD         1.9850    1.4270    5.8760 S.3    35  MET35      -0.1393
     34  CE         3.1050    2.8230    5.7510 C.3    35  MET35       0.0692
     35  N          1.4480   -4.1480    4.4440 N.am   36  ALA36      -0.1980
     36  CA         0.6910   -5.3390    4.8060 C.3    36  ALA36       0.1597
     37  C          1.5710   -6.5820    4.7380 C.2    36  ALA36       0.2287
     38  O          1.4880   -7.4520    5.5930 O.2    36  ALA36      -0.2864
     39  CB        -0.5310   -5.5020    3.8910 C.3    36  ALA36       0.0319
     40  N          3.7800   -6.5820    7.7990 N.3    39  HIS39      -0.1241
     41  CA         3.0370   -6.9930    8.9900 C.3    39  HIS39       0.1621
     42  C          2.7920   -8.5020    9.0060 C.2    39  HIS39       0.2264
     43  O          2.9170   -9.1580   10.0380 O.2    39  HIS39      -0.2867
     44  CB         1.6910   -6.2740    9.0820 C.3    39  HIS39       0.0745
     45  CG         0.8150   -6.8090   10.1700 C.ar   39  HIS39       0.0817
     46  ND1        1.1000   -6.6230   11.5090 N.ar   39  HIS39      -0.2268
     47  CD2       -0.3030   -7.5670   10.1250 C.ar   39  HIS39       0.1154
     48  CE1        0.1790   -7.2220   12.2410 C.ar   39  HIS39       0.1986
     49  NE2       -0.6800   -7.8060   11.4260 N.ar   39  HIS39      -0.2212
     50  N         -4.1640   -7.1890   11.4750 N.3    73  MET73      -0.1230
     51  CA        -3.6500   -6.0030   10.7930 C.3    73  MET73       0.1702
     52  C         -4.3580   -4.7550   11.3050 C.2    73  MET73       0.2592
     53  O         -3.7410   -3.7080   11.5000 O.2    73  MET73      -0.2718
     54  CB        -3.8800   -6.1160    9.2790 C.3    73  MET73       0.0401
     55  CG        -3.3960   -4.8910    8.5280 C.3    73  MET73       0.0596
     56  SD        -3.6910   -4.9880    6.7560 S.3    73  MET73      -0.1393
     57  CE        -5.4580   -4.8410    6.7380 C.3    73  MET73       0.0692
     58  N         -5.6610   -4.8700   11.5220 N.am   74  PHE74      -0.1976
     59  CA        -6.4360   -3.7170   11.9670 C.3    74  PHE74       0.1639
     60  C         -6.1980   -3.4090   13.4290 C.2    74  PHE74       0.2290
     61  O         -6.2770   -2.2540   13.8480 O.2    74  PHE74      -0.2864
     62  CB        -7.9190   -3.9060   11.6730 C.3    74  PHE74       0.0560
     63  CG        -8.2970   -3.5250   10.2670 C.ar   74  PHE74      -0.0200
     64  CD1       -8.2530   -2.1990    9.8660 C.ar   74  PHE74      -0.0042
     65  CD2       -8.6550   -4.4880    9.3460 C.ar   74  PHE74      -0.0042
     66  CE1       -8.5840   -1.8350    8.5750 C.ar   74  PHE74      -0.0003
     67  CE2       -8.9910   -4.1360    8.0370 C.ar   74  PHE74      -0.0003
     68  CZ        -8.9620   -2.8090    7.6550 C.ar   74  PHE74      -0.0000
     69  N         -3.3050   -3.9860   15.0290 N.3    76  ARG76      -0.1231
     70  CA        -2.0120   -3.3270   15.0110 C.3    76  ARG76       0.1694
     71  C         -2.1160   -1.8880   14.4680 C.2    76  ARG76       0.2592
     72  O         -1.4370   -0.9810   14.9740 O.2    76  ARG76      -0.2718
     73  CB        -1.0100   -4.1470   14.2110 C.3    76  ARG76       0.0321
     74  CG         0.3410   -3.4960   14.0620 C.3    76  ARG76       0.0489
     75  CD         1.1350   -3.5100   15.3670 C.3    76  ARG76       0.2205
     76  NE         2.3960   -2.7910   15.2020 N.pl3  76  ARG76      -0.0865
     77  CZ         3.3310   -2.6760   16.1420 C.cat  76  ARG76       0.5346
     78  NH1        3.1500   -3.2310   17.3380 N.pl3  76  ARG76       0.1354
     79  NH2        4.4480   -2.0020   15.8860 N.pl3  76  ARG76       0.1354
     80  N         -2.9690   -1.6750   13.4660 N.am   77  SER77      -0.1952
     81  CA        -3.1870   -0.3310   12.9080 C.3    77  SER77       0.1924
     82  C         -3.7940    0.6030   13.9560 C.2    77  SER77       0.2314
     83  O         -3.4170    1.7710   14.0440 O.2    77  SER77      -0.2863
     84  CB        -4.1010   -0.3650   11.6750 C.3    77  SER77       0.2116
     85  OG        -3.5460   -1.1080   10.6010 O.3    77  SER77      -0.2180
     86  N         -0.9790    1.6130   16.2310 N.3    80  ILE80      -0.1231
     87  CA        -0.1200    2.6240   15.6170 C.3    80  ILE80       0.1692
     88  C         -0.7950    3.9920   15.6030 C.2    80  ILE80       0.2592
     89  O         -0.1670    5.0170   15.9020 O.2    80  ILE80      -0.2718
     90  CB         0.2190    2.2380   14.1660 C.3    80  ILE80       0.0266
     91  CG1        1.0020    0.9200   14.1420 C.3    80  ILE80       0.0019
     92  CG2        0.9770    3.3620   13.4740 C.3    80  ILE80       0.0020
     93  CD1        1.0710    0.2890   12.7480 C.3    80  ILE80       0.0001
     94  N         -2.0720    4.0020   15.2300 N.am   81  PHE81      -0.1976
     95  CA        -2.8650    5.2300   15.1750 C.3    81  PHE81       0.1639
     96  C         -2.9130    5.9250   16.5520 C.2    81  PHE81       0.2290
     97  O         -2.8430    7.1560   16.6400 O.2    81  PHE81      -0.2864
     98  CB        -4.2820    4.9050   14.6860 C.3    81  PHE81       0.0560
     99  CG        -5.2020    6.1040   14.5990 C.ar   81  PHE81      -0.0200
    100  CD1       -5.3340    6.8140   13.4120 C.ar   81  PHE81      -0.0042
    101  CD2       -5.9550    6.4980   15.6960 C.ar   81  PHE81      -0.0042
    102  CE1       -6.1910    7.9070   13.3320 C.ar   81  PHE81      -0.0003
    103  CE2       -6.8110    7.5940   15.6240 C.ar   81  PHE81      -0.0003
    104  CZ        -6.9340    8.2920   14.4430 C.ar   81  PHE81      -0.0000
    105  N          1.4350    5.8240   18.2620 N.3    84  LYS84      -0.1231
    106  CA         2.6050    6.2130   17.4810 C.3    84  LYS84       0.1693
    107  C          2.4020    7.4040   16.5680 C.2    84  LYS84       0.2592
    108  O          3.3130    8.2020   16.3650 O.2    84  LYS84      -0.2718
    109  CB         3.1420    5.0270   16.6720 C.3    84  LYS84       0.0285
    110  CG         4.0340    4.1080   17.4940 C.3    84  LYS84       0.0035
    111  CD         4.0010    2.6800   16.9640 C.3    84  LYS84       0.0206
    112  CE         4.9870    1.7840   17.7230 C.3    84  LYS84       0.1093
    113  NZ         4.7390    1.7610   19.2010 N.3    84  LYS84      -0.1314
    114  N          1.2060    7.5240   16.0150 N.am   85  LEU85      -0.1966
    115  CA         0.9310    8.5780   15.0500 C.3    85  LEU85       0.1713
    116  C          0.5140    9.8450   15.7740 C.2    85  LEU85       0.2458
    117  O         -0.5280    9.8510   16.4240 O.2    85  LEU85      -0.2730
    118  CB        -0.1950    8.1280   14.1260 C.3    85  LEU85       0.0310
    119  CG        -0.6560    9.0880   13.0250 C.3    85  LEU85       0.0022
    120  CD1        0.4380    9.3410   11.9940 C.3    85  LEU85       0.0001
    121  CD2       -1.8950    8.5240   12.3580 C.3    85  LEU85       0.0001
    122  N          1.3150   10.9200   15.6510 N.am   86  PRO86      -0.2727
    123  CA         0.8810   12.2040   16.2090 C.3    86  PRO86       0.1402
    124  C         -0.5430   12.5150   15.7640 C.2    86  PRO86       0.2269
    125  O         -0.8840   12.3270   14.5950 O.2    86  PRO86      -0.2865
    126  CB         1.8650   13.2110   15.5950 C.3    86  PRO86       0.0296
    127  CG         3.1000   12.4070   15.3480 C.3    86  PRO86       0.0237
    128  CD         2.5990   11.0370   14.9350 C.3    86  PRO86       0.0939
    129  N         -1.1870   14.3890   12.5630 N.3    89  HIS89      -0.1241
    130  CA        -1.0280   13.7170   11.2770 C.3    89  HIS89       0.1621
    131  C         -2.2020   12.7940   10.9780 C.2    89  HIS89       0.2264
    132  O         -2.2390   12.1420    9.9380 O.2    89  HIS89      -0.2867
    133  CB         0.2650   12.9010   11.2570 C.3    89  HIS89       0.0745
    134  CG         1.5030   13.7360   11.2170 C.ar   89  HIS89       0.0817
    135  ND1        2.6430   13.4120   11.9180 N.ar   89  HIS89      -0.2268
    136  CD2        1.7750   14.8940   10.5690 C.ar   89  HIS89       0.1154
    137  CE1        3.5670   14.3290   11.6990 C.ar   89  HIS89       0.1986
    138  NE2        3.0670   15.2390   10.8820 N.ar   89  HIS89      -0.2212
    139  N         -2.9650   10.9120    7.2850 N.3    93  LEU93      -0.1245
    140  CA        -3.0900    9.4690    7.0950 C.3    93  LEU93       0.1561
    141  C         -4.3870    9.1250    6.3860 C.2    93  LEU93       0.2260
    142  O         -4.3900    8.3800    5.4050 O.2    93  LEU93      -0.2867
    143  CB        -3.0460    8.7290    8.4380 C.3    93  LEU93       0.0270
    144  CG        -3.2140    7.2140    8.2750 C.3    93  LEU93       0.0019
    145  CD1       -1.9840    6.6330    7.6040 C.3    93  LEU93       0.0001
    146  CD2       -3.4940    6.5080    9.6060 C.3    93  LEU93       0.0001
    147  N         -4.8300    7.5880    2.5760 N.3    97  ILE97      -0.1245
    148  CA        -5.5300    6.3170    2.4190 C.3    97  ILE97       0.1561
    149  C         -6.7070    6.4690    1.4440 C.2    97  ILE97       0.2260
    150  O         -6.9780    5.5720    0.6470 O.2    97  ILE97      -0.2867
    151  CB        -6.0100    5.7620    3.7840 C.3    97  ILE97       0.0252
    152  CG1       -4.8130    5.3800    4.6660 C.3    97  ILE97       0.0019
    153  CG2       -6.9230    4.5680    3.6080 C.3    97  ILE97       0.0019
    154  CD1       -5.2250    4.9320    6.0750 C.3    97  ILE97       0.0001
    155  N         -9.0490    3.3030   -1.9950 N.3   102  ILE102     -0.1245
    156  CA        -9.9880    2.9320   -0.9470 C.3   102  ILE102      0.1561
    157  C        -10.9580    4.0790   -0.6710 C.2   102  ILE102      0.2260
    158  O        -10.5420    5.1700   -0.2710 O.2   102  ILE102     -0.2867
    159  CB        -9.2290    2.5800    0.3480 C.3   102  ILE102      0.0252
    160  CG1       -8.0990    1.5870    0.0480 C.3   102  ILE102      0.0019
    161  CG2      -10.1790    2.0410    1.4060 C.3   102  ILE102      0.0019
    162  CD1       -7.3330    1.1530    1.2810 C.3   102  ILE102      0.0001
    163  N        -13.3130    2.2980    9.6240 N.3   110  MET110     -0.1245
    164  CA       -11.9290    1.9970    9.9570 C.3   110  MET110      0.1570
    165  C        -11.3980    2.9960   10.9950 C.2   110  MET110      0.2261
    166  O        -10.9100    2.6150   12.0620 O.2   110  MET110     -0.2867
    167  CB       -11.1070    2.0030    8.6620 C.3   110  MET110      0.0387
    168  CG        -9.6200    2.0570    8.7950 C.3   110  MET110      0.0595
    169  SD        -8.8430    2.0640    7.1490 S.3   110  MET110     -0.1393
    170  CE        -9.8520    0.8780    6.2690 C.3   110  MET110      0.0692
    171  N        -10.5200    2.8710   15.1150 N.3   114  TYR114     -0.1241
    172  CA        -9.2640    3.3530   15.7020 C.3   114  TYR114      0.1605
    173  C         -9.5410    4.2770   16.8810 C.2   114  TYR114      0.2264
    174  O         -8.9060    4.1730   17.9260 O.2   114  TYR114     -0.2867
    175  CB        -8.4000    4.0880   14.6840 C.3   114  TYR114      0.0534
    176  CG        -7.9760    3.2310   13.5180 C.ar  114  TYR114     -0.0201
    177  CD1       -7.9780    1.8430   13.6110 C.ar  114  TYR114     -0.0009
    178  CD2       -7.5670    3.8110   12.3280 C.ar  114  TYR114     -0.0009
    179  CE1       -7.5860    1.0510   12.5280 C.ar  114  TYR114      0.0417
    180  CE2       -7.1800    3.0370   11.2500 C.ar  114  TYR114      0.0417
    181  CZ        -7.1930    1.6660   11.3520 C.ar  114  TYR114      0.1957
    182  OH        -6.8000    0.9220   10.2560 O.3   114  TYR114     -0.2866
    183  N        -12.8200   -5.9030    4.2870 N.3   192  HIS192     -0.1241
    184  CA       -11.6140   -6.1800    3.5130 C.3   192  HIS192      0.1621
    185  C        -11.8990   -7.0470    2.2940 C.2   192  HIS192      0.2264
    186  O        -11.3020   -6.8790    1.2250 O.2   192  HIS192     -0.2867
    187  CB       -10.5640   -6.8610    4.3860 C.3   192  HIS192      0.0745
    188  CG        -9.1930   -6.8470    3.7920 C.ar  192  HIS192      0.0817
    189  ND1       -8.4190   -5.7070    3.7320 N.ar  192  HIS192     -0.2268
    190  CD2       -8.4490   -7.8350    3.2450 C.ar  192  HIS192      0.1154
    191  CE1       -7.2600   -5.9920    3.1670 C.ar  192  HIS192      0.1986
    192  NE2       -7.2550   -7.2760    2.8590 N.ar  192  HIS192     -0.2212
    193  N        -13.2520   -4.9390   -0.2960 N.3   195  MET195     -0.1245
    194  CA       -12.1310   -4.1550   -0.8030 C.3   195  MET195      0.1570
    195  C        -11.2690   -4.9030   -1.8250 C.2   195  MET195      0.2261
    196  O        -10.9920   -4.3790   -2.8980 O.2   195  MET195     -0.2867
    197  CB       -11.2680   -3.6440    0.3620 C.3   195  MET195      0.0387
    198  CG       -12.0180   -2.7680    1.3970 C.3   195  MET195      0.0595
    199  SD       -11.0180   -2.2330    2.8290 S.3   195  MET195     -0.1393
    200  CE       -12.2570   -1.4860    3.8880 C.3   195  MET195      0.0692
    201  N        -10.6170   -3.9720   -5.7160 N.3   199  TRP199     -0.1241
    202  CA        -9.2140   -3.7910   -6.0580 C.3   199  TRP199      0.1605
    203  C         -8.8090   -4.7000   -7.2110 C.2   199  TRP199      0.2264
    204  O         -8.0970   -4.2850   -8.1210 O.2   199  TRP199     -0.2867
    205  CB        -8.3120   -4.0340   -4.8360 C.3   199  TRP199      0.0550
    206  CG        -8.4830   -3.0110   -3.7280 C.ar  199  TRP199      0.0003
    207  CD1       -8.8290   -1.6970   -3.8740 C.ar  199  TRP199      0.0946
    208  CD2       -8.2840   -3.2170   -2.3140 C.ar  199  TRP199      0.0152
    209  NE1       -8.8780   -1.0810   -2.6430 N.ar  199  TRP199     -0.2442
    210  CE2       -8.5460   -1.9910   -1.6720 C.ar  199  TRP199      0.0810
    211  CE3       -7.9230   -4.3200   -1.5320 C.ar  199  TRP199      0.0012
    212  CZ2       -8.4550   -1.8370   -0.2880 C.ar  199  TRP199      0.0191
    213  CZ3       -7.8280   -4.1620   -0.1550 C.ar  199  TRP199      0.0001
    214  CH2       -8.0990   -2.9320    0.4490 C.ar  199  TRP199      0.0015
    215  N         -1.1100   -8.0770   -6.5770 N.3   206  PHE206     -0.1241
    216  CA        -0.6030   -8.2030   -5.2120 C.3   206  PHE206      0.1605
    217  C          0.5950   -9.1440   -5.1350 C.2   206  PHE206      0.2264
    218  O          0.7870   -9.9940   -6.0040 O.2   206  PHE206     -0.2867
    219  CB        -1.6960   -8.7220   -4.2630 C.3   206  PHE206      0.0534
    220  CG        -2.8910   -7.8210   -4.1470 C.ar  206  PHE206     -0.0203
    221  CD1       -2.9370   -6.8260   -3.1800 C.ar  206  PHE206     -0.0042
    222  CD2       -3.9790   -7.9820   -4.9910 C.ar  206  PHE206     -0.0042
    223  CE1       -4.0410   -5.9910   -3.0710 C.ar  206  PHE206     -0.0003
    224  CE2       -5.0860   -7.1590   -4.8880 C.ar  206  PHE206     -0.0003
    225  CZ        -5.1190   -6.1630   -3.9250 C.ar  206  PHE206     -0.0000
    226  N         -4.6310  -13.5510    1.9380 N.3   214  TRP214     -0.1241
    227  CA        -5.9290  -12.9060    1.7480 C.3   214  TRP214      0.1605
    228  C         -6.8390  -13.6080    0.7430 C.2   214  TRP214      0.2264
    229  O         -7.8420  -13.0420    0.3090 O.2   214  TRP214     -0.2867
    230  CB        -5.7510  -11.4560    1.2890 C.3   214  TRP214      0.0550
    231  CG        -5.2090  -10.5370    2.3500 C.ar  214  TRP214      0.0003
    232  CD1       -5.0990  -10.8020    3.6790 C.ar  214  TRP214      0.0946
    233  CD2       -4.7410   -9.1910    2.1680 C.ar  214  TRP214      0.0152
    234  NE1       -4.5650   -9.7240    4.3360 N.ar  214  TRP214     -0.2442
    235  CE2       -4.3420   -8.7170    3.4330 C.ar  214  TRP214      0.0810
    236  CE3       -4.6160   -8.3490    1.0590 C.ar  214  TRP214      0.0012
    237  CZ2       -3.8300   -7.4310    3.6250 C.ar  214  TRP214      0.0191
    238  CZ3       -4.1030   -7.0700    1.2490 C.ar  214  TRP214      0.0001
    239  CH2       -3.7180   -6.6240    2.5220 C.ar  214  TRP214      0.0015
@<TRIPOS>BOND
     1   204   203    2
     2   203   202    1
     3   215   216    1
     4   202   201    1
     5   202   205    1
     6   218   217    2
     7   216   217    1
     8   216   219    1
     9   222   224   ar
    10   222   220   ar
    11   224   225   ar
    12   205   206    1
    13   219   220    1
    14   220   221   ar
    15     8    10   ar
    16     8     6   ar
    17   225   223   ar
    18   207   206   ar
    19   207   209   ar
    20     5     6    1
    21     5     2    1
    22   206   208   ar
    23    10    11   ar
    24     6     7   ar
    25   221   223   ar
    26     1     2    1
    27   196   195    2
    28    11     9   ar
    29     7     9   ar
    30     2     3    1
    31   209   210   ar
    32     3     4    2
    33   208   210   ar
    34   208   211   ar
    35    25    24    1
    36    26    24    1
    37   155   156    1
    38   195   194    1
    39   210   212   ar
    40   211   213   ar
    41    24    21    1
    42   156   157    1
    43   156   159    1
    44   194   193    1
    45   194   197    1
    46   157   158    2
    47   212   214   ar
    48   213   214   ar
    49   160   159    1
    50   160   162    1
    51    21    20    1
    52    21    22    1
    53   229   228    2
    54    20    14   am
    55   159   161    1
    56   197   198    1
    57   150   149    2
    58   228   227    1
    59    12    13    1
    60    22    23    2
    61   236   238   ar
    62   236   233   ar
    63   186   185    2
    64   238   239   ar
    65   230   227    1
    66   230   231    1
    67   198   199    1
    68    16    13    1
    69    16    17    1
    70   149   148    1
    71    18    17    1
    72    14    13    1
    73    14    15    2
    74   227   226    1
    75    17    19    1
    76   233   231   ar
    77   233   235   ar
    78   185   184    1
    79   231   232   ar
    80   148   147    1
    81   148   151    1
    82   239   237   ar
    83   199   200    1
    84   192   191   ar
    85   192   190   ar
    86   191   189   ar
    87   190   188   ar
    88    27    28    1
    89   235   237   ar
    90   235   234   ar
    91   184   183    1
    92   184   187    1
    93   153   151    1
    94   232   234   ar
    95   189   188   ar
    96   151   152    1
    97   188   187    1
    98    39    36    1
    99    35    36    1
   100    35    29   am
   101   152   154    1
   102    37    36    1
   103    37    38    2
   104    28    29    1
   105    28    31    1
   106    29    30    2
   107    31    32    1
   108    32    33    1
   109   142   141    2
   110    34    33    1
   111   170   169    1
   112   141   140    1
   113    57    56    1
   114    56    55    1
   115   140   139    1
   116   140   143    1
   117   169   168    1
   118   145   144    1
   119    68    67   ar
   120    68    66   ar
   121    40    41    1
   122    67    65   ar
   123   144   143    1
   124   144   146    1
   125    55    54    1
   126    66    64   ar
   127   167   168    1
   128   167   164    1
   129    41    42    1
   130    41    44    1
   131    42    43    2
   132    44    45    1
   133    54    51    1
   134    65    63   ar
   135   163   164    1
   136    64    63   ar
   137   132   131    2
   138   164   165    1
   139    47    45   ar
   140    47    49   ar
   141    45    46   ar
   142   182   181    1
   143    63    62    1
   144   136   138   ar
   145   136   134   ar
   146    85    84    1
   147    51    52    1
   148    51    50    1
   149   138   137   ar
   150   131   130    1
   151   165   166    2
   152   134   133    1
   153   134   135   ar
   154   180   181   ar
   155   180   178   ar
   156   133   130    1
   157   130   129    1
   158    52    53    2
   159    52    58   am
   160   181   179   ar
   161    49    48   ar
   162    46    48   ar
   163    58    59    1
   164    62    59    1
   165    84    81    1
   166   137   135   ar
   167    59    60    1
   168   120   119    1
   169   178   176   ar
   170   121   119    1
   171   179   177   ar
   172    93    91    1
   173    81    80    1
   174    81    82    1
   175   119   118    1
   176   102   100   ar
   177   102   104   ar
   178   100    99   ar
   179    60    61    2
   180    80    71   am
   181    92    90    1
   182   176   177   ar
   183   176   175    1
   184    82    83    2
   185    74    73    1
   186    74    75    1
   187   118   115    1
   188    91    90    1
   189    90    87    1
   190    73    70    1
   191   104   103   ar
   192    71    72    2
   193    71    70    1
   194   125   124    2
   195    99    98    1
   196    99   101   ar
   197   175   172    1
   198    98    95    1
   199   128   127    1
   200   128   122    1
   201    70    69    1
   202   115   116    1
   203   115   114    1
   204   171   172    1
   205    95    94    1
   206    95    96    1
   207    76    75    1
   208    76    77    2
   209    94    88   am
   210   127   126    1
   211   126   123    1
   212    88    87    1
   213    88    89    2
   214    87    86    1
   215   103   101   ar
   216   122   116   am
   217   122   123    1
   218   172   173    1
   219   124   123    1
   220   116   117    2
   221    79    77    1
   222   114   107   am
   223    77    78    1
   224   108   107    2
   225    96    97    2
   226   107   106    1
   227   109   106    1
   228   109   110    1
   229   173   174    2
   230   111   110    1
   231   111   112    1
   232   106   105    1
   233   112   113    1
