@<TRIPOS>MOLECULE
tmp/3l1nA00.pdb
 122 109 0 0 0
SMALL
GASTEIGER

@<TRIPOS>ATOM
      1  N         14.2500   21.9620   43.2600 N.3    78  LEU78      -0.1245
      2  CA        12.8760   21.4970   43.3140 C.3    78  LEU78       0.1561
      3  C         12.8220   20.0010   43.6180 C.2    78  LEU78       0.2260
      4  O         12.0550   19.5650   44.4800 O.2    78  LEU78      -0.2867
      5  CB        12.1440   21.8260   42.0130 C.3    78  LEU78       0.0270
      6  CG        10.6520   21.4740   42.0030 C.3    78  LEU78       0.0019
      7  CD1        9.9340   21.9600   43.2670 C.3    78  LEU78       0.0001
      8  CD2        9.9710   22.0370   40.7700 C.3    78  LEU78       0.0001
      9  N         11.0320   18.2620   46.9060 N.3    82  ILE82      -0.1245
     10  CA        10.0400   17.2020   46.7460 C.3    82  ILE82       0.1561
     11  C         10.4390   15.9460   47.5220 C.2    82  ILE82       0.2260
     12  O          9.6170   15.3610   48.2320 O.2    82  ILE82      -0.2867
     13  CB         9.8300   16.8650   45.2600 C.3    82  ILE82       0.0252
     14  CG1        9.1330   18.0350   44.5590 C.3    82  ILE82       0.0019
     15  CG2        9.0380   15.5660   45.1010 C.3    82  ILE82       0.0019
     16  CD1        9.2430   18.0020   43.0430 C.3    82  ILE82       0.0001
     17  N          9.8620   16.4970   51.1240 N.3    84  ALA84      -0.1231
     18  CA         8.4320   16.4320   51.4230 C.3    84  ALA84       0.1694
     19  C          7.9800   14.9920   51.6220 C.2    84  ALA84       0.2591
     20  O          7.2190   14.6960   52.5490 O.2    84  ALA84      -0.2718
     21  CB         7.6360   17.0920   50.3150 C.3    84  ALA84       0.0304
     22  N          8.4540   14.0990   50.7580 N.am   85  ILE85      -0.1980
     23  CA         8.0860   12.6930   50.8590 C.3    85  ILE85       0.1595
     24  C          8.5750   12.0940   52.1770 C.2    85  ILE85       0.2287
     25  O          7.8140   11.4420   52.8920 O.2    85  ILE85      -0.2864
     26  CB         8.5890   11.8900   49.6400 C.3    85  ILE85       0.0276
     27  CG1        7.8430   12.3560   48.3810 C.3    85  ILE85       0.0022
     28  CG2        8.4020   10.3880   49.8770 C.3    85  ILE85       0.0022
     29  CD1        8.5420   12.1050   47.0810 C.3    85  ILE85       0.0001
     30  N          6.6240   13.4710   55.1550 N.3    88  LEU88      -0.1245
     31  CA         5.2850   12.8910   55.2270 C.3    88  LEU88       0.1561
     32  C          5.3270   11.4890   55.8400 C.2    88  LEU88       0.2260
     33  O          4.5670   11.1830   56.7640 O.2    88  LEU88      -0.2867
     34  CB         4.6540   12.8560   53.8400 C.3    88  LEU88       0.0270
     35  CG         3.2630   12.2260   53.7610 C.3    88  LEU88       0.0019
     36  CD1        2.2110   12.9950   54.5730 C.3    88  LEU88       0.0001
     37  CD2        2.8600   12.0970   52.3130 C.3    88  LEU88       0.0001
     38  N         -4.4350   10.4840   53.0520 N.3   104  VAL104     -0.1245
     39  CA        -3.0670   10.7250   52.6070 C.3   104  VAL104      0.1561
     40  C         -2.7000    9.7980   51.4350 C.2   104  VAL104      0.2260
     41  O         -2.1600   10.2620   50.4250 O.2   104  VAL104     -0.2867
     42  CB        -2.0600   10.6110   53.7700 C.3   104  VAL104      0.0252
     43  CG1       -0.6210   10.5990   53.2510 C.3   104  VAL104      0.0019
     44  CG2       -2.2700   11.7530   54.7630 C.3   104  VAL104      0.0019
     45  N         -4.4440   11.0820   48.3560 N.3   107  ASN107     -0.1225
     46  CA        -3.8040   12.2980   47.8700 C.3   107  ASN107      0.1785
     47  C         -2.4960   11.9840   47.1490 C.2   107  ASN107      0.2597
     48  O         -2.2140   12.5330   46.0800 O.2   107  ASN107     -0.2718
     49  CB        -3.5650   13.2760   49.0200 C.3   107  ASN107      0.1169
     50  CG        -3.3520   14.6890   48.5360 C.2   107  ASN107      0.2627
     51  OD1       -2.2210   15.1190   48.3290 O.2   107  ASN107     -0.2716
     52  ND2       -4.4430   15.4190   48.3370 N.am  107  ASN107     -0.0877
     53  N         -1.7170   11.0710   47.7150 N.am  108  LEU108     -0.1980
     54  CA        -0.4710   10.6330   47.0890 C.3   108  LEU108      0.1596
     55  C         -0.6870    9.9720   45.7290 C.2   108  LEU108      0.2287
     56  O          0.1020   10.1860   44.8040 O.2   108  LEU108     -0.2864
     57  CB         0.2910    9.6880   48.0070 C.3   108  LEU108      0.0297
     58  CG         1.0120   10.3400   49.1830 C.3   108  LEU108      0.0022
     59  CD1        1.5040    9.2610   50.1270 C.3   108  LEU108      0.0001
     60  CD2        2.1720   11.2210   48.7090 C.3   108  LEU108      0.0001
     61  N         -1.1400   12.7790   43.4700 N.3   111  GLN111     -0.1245
     62  CA         0.1670   13.4030   43.2140 C.3   111  GLN111      0.1566
     63  C          0.8960   12.5880   42.1580 C.2   111  GLN111      0.2260
     64  O          1.5130   13.1430   41.2450 O.2   111  GLN111     -0.2867
     65  CB         1.0490   13.4490   44.4760 C.3   111  GLN111      0.0367
     66  CG         0.5280   14.2170   45.6970 C.3   111  GLN111      0.0905
     67  CD         0.5380   15.7400   45.5520 C.2   111  GLN111      0.2608
     68  OE1        1.1340   16.3100   44.6260 O.2   111  GLN111     -0.2717
     69  NE2       -0.1160   16.4100   46.4940 N.am  111  GLN111     -0.0878
     70  N         -0.6630   13.1380   38.6370 N.3   114  ALA114     -0.1231
     71  CA        -0.3730   14.4900   38.1630 C.3   114  ALA114      0.1694
     72  C          1.1020   14.6290   37.7720 C.2   114  ALA114      0.2591
     73  O          1.4200   15.1720   36.7060 O.2   114  ALA114     -0.2718
     74  CB        -0.7610   15.5230   39.2210 C.3   114  ALA114      0.0304
     75  N          1.9900   14.1120   38.6230 N.am  115  ALA115     -0.1980
     76  CA         3.4310   14.1130   38.3420 C.3   115  ALA115      0.1597
     77  C          3.7610   13.3520   37.0570 C.2   115  ALA115      0.2287
     78  O          4.5850   13.8030   36.2590 O.2   115  ALA115     -0.2864
     79  CB         4.2050   13.5350   39.5070 C.3   115  ALA115      0.0319
     80  N          2.8150   15.6320   34.0540 N.3   118  LEU118     -0.1231
     81  CA         3.7600   16.7210   33.8470 C.3   118  LEU118      0.1693
     82  C          5.0970   16.1670   33.3610 C.2   118  LEU118      0.2592
     83  O          5.7260   16.7490   32.4740 O.2   118  LEU118     -0.2718
     84  CB         3.9200   17.5700   35.1110 C.3   118  LEU118      0.0284
     85  CG         4.7940   18.8190   34.9570 C.3   118  LEU118      0.0019
     86  CD1        4.3570   19.7190   33.8000 C.3   118  LEU118      0.0001
     87  CD2        4.8000   19.5910   36.2600 C.3   118  LEU118      0.0001
     88  N          5.5090   15.0250   33.9110 N.am  119  SER119     -0.1952
     89  CA         6.7320   14.3530   33.4570 C.3   119  SER119      0.1924
     90  C          6.6810   13.9910   31.9690 C.2   119  SER119      0.2314
     91  O          7.6640   14.1970   31.2500 O.2   119  SER119     -0.2863
     92  CB         7.0180   13.1140   34.3000 C.3   119  SER119      0.2116
     93  OG         7.3100   13.4760   35.6350 O.3   119  SER119     -0.2180
     94  N          6.9950   17.2390   29.9090 N.3   122  VAL122     -0.1245
     95  CA         8.3830   17.7030   29.9370 C.3   122  VAL122      0.1561
     96  C          9.2550   16.8670   28.9950 C.2   122  VAL122      0.2260
     97  O         10.1080   17.4130   28.2950 O.2   122  VAL122     -0.2867
     98  CB         8.9470   17.7200   31.3750 C.3   122  VAL122      0.0252
     99  CG1       10.4510   17.9770   31.3750 C.3   122  VAL122      0.0019
    100  CG2        8.2350   18.7800   32.2070 C.3   122  VAL122      0.0019
    101  N         12.8140   12.7280   36.6900 N.3   138  SER138     -0.1217
    102  CA        11.3900   12.4310   36.8670 C.3   138  SER138      0.1889
    103  C         11.1490   11.0290   37.4480 C.2   138  SER138      0.2288
    104  O         10.2670   10.8520   38.2900 O.2   138  SER138     -0.2866
    105  CB        10.6040   12.6490   35.5670 C.3   138  SER138      0.2089
    106  OG        11.0450   11.7910   34.5350 O.3   138  SER138     -0.2183
    107  N         11.7230   11.1160   41.2690 N.3   141  ILE141     -0.1245
    108  CA        10.5540   11.6780   41.9410 C.3   141  ILE141      0.1561
    109  C          9.4050   10.6660   41.9560 C.2   141  ILE141      0.2260
    110  O          8.7650   10.4690   42.9880 O.2   141  ILE141     -0.2867
    111  CB        10.1320   13.0280   41.3090 C.3   141  ILE141      0.0252
    112  CG1       11.1650   14.1030   41.6600 C.3   141  ILE141      0.0019
    113  CG2        8.7450   13.4560   41.7840 C.3   141  ILE141      0.0019
    114  CD1       11.0990   15.3430   40.7890 C.3   141  ILE141      0.0001
    115  N          7.4100    9.1960   45.2340 N.3   145  ILE145     -0.1245
    116  CA         5.9650    9.2170   45.4490 C.3   145  ILE145      0.1561
    117  C          5.4470    7.8060   45.7380 C.2   145  ILE145      0.2260
    118  O          4.5950    7.6210   46.6150 O.2   145  ILE145     -0.2867
    119  CB         5.2040    9.8530   44.2630 C.3   145  ILE145      0.0252
    120  CG1        5.6340   11.3120   44.0700 C.3   145  ILE145      0.0019
    121  CG2        3.6930    9.7590   44.4840 C.3   145  ILE145      0.0019
    122  CD1        5.1410   11.9400   42.7850 C.3   145  ILE145      0.0001
@<TRIPOS>BOND
     1    97    96    2
     2    96    95    1
     3    94    95    1
     4    95    98    1
     5    91    90    2
     6    98    99    1
     7    98   100    1
     8    90    89    1
     9    83    82    2
    10    82    81    1
    11    82    88   am
    12    89    88    1
    13    89    92    1
    14    86    85    1
    15    81    80    1
    16    81    84    1
    17    92    93    1
    18   106   105    1
    19    85    84    1
    20    85    87    1
    21   105   102    1
    22    78    77    2
    23   101   102    1
    24    73    72    2
    25   102   103    1
    26    77    76    1
    27   103   104    2
    28    72    71    1
    29    72    75   am
    30    71    70    1
    31    71    74    1
    32    76    75    1
    33    76    79    1
    34     8     6    1
    35   114   112    1
    36    64    63    2
    37   107   108    1
    38   111   112    1
    39   111   113    1
    40   111   108    1
    41   108   109    1
    42   109   110    2
    43     6     5    1
    44     6     7    1
    45     5     2    1
    46    63    62    1
    47   122   120    1
    48    16    14    1
    49    62    61    1
    50    62    65    1
    51     1     2    1
    52     2     3    1
    53     3     4    2
    54   120   119    1
    55   119   121    1
    56   119   116    1
    57    65    66    1
    58    14    13    1
    59    68    67    2
    60    56    55    2
    61    15    13    1
    62   115   116    1
    63    13    10    1
    64   116   117    1
    65    67    66    1
    66    67    69   am
    67    55    54    1
    68   117   118    2
    69    48    47    2
    70    10     9    1
    71    10    11    1
    72    29    27    1
    73    54    53    1
    74    54    57    1
    75    47    53   am
    76    47    46    1
    77    11    12    2
    78    46    45    1
    79    46    49    1
    80    57    58    1
    81    51    50    2
    82    52    50   am
    83    27    26    1
    84    50    49    1
    85    60    58    1
    86    58    59    1
    87    26    28    1
    88    26    23    1
    89    21    18    1
    90    41    40    2
    91    22    23    1
    92    22    19   am
    93    23    24    1
    94    17    18    1
    95    18    19    1
    96    40    39    1
    97    19    20    2
    98    24    25    2
    99    37    35    1
   100    39    38    1
   101    39    42    1
   102    43    42    1
   103    35    34    1
   104    35    36    1
   105    42    44    1
   106    34    31    1
   107    30    31    1
   108    31    32    1
   109    32    33    2
