@<TRIPOS>MOLECULE
tmp/3l1rB02.pdb
 135 135 0 0 0
SMALL
GASTEIGER

@<TRIPOS>ATOM
      1  N        -36.0770   22.0210   10.0840 N.3    59  TRP59      -0.1241
      2  CA       -35.3510   21.4030    8.9810 C.3    59  TRP59       0.1605
      3  C        -34.4640   22.3650    8.2240 C.2    59  TRP59       0.2264
      4  O        -34.6640   23.5770    8.2580 O.2    59  TRP59      -0.2867
      5  CB       -36.3180   20.7920    7.9810 C.3    59  TRP59       0.0550
      6  CG       -36.9280   19.5090    8.3980 C.ar   59  TRP59       0.0003
      7  CD1      -36.4670   18.2600    8.1200 C.ar   59  TRP59       0.0946
      8  CD2      -38.1390   19.3380    9.1360 C.ar   59  TRP59       0.0152
      9  NE1      -37.3080   17.3160    8.6490 N.ar   59  TRP59      -0.2442
     10  CE2      -38.3440   17.9510    9.2810 C.ar   59  TRP59       0.0810
     11  CE3      -39.0670   20.2220    9.6950 C.ar   59  TRP59       0.0012
     12  CZ2      -39.4400   17.4240    9.9650 C.ar   59  TRP59       0.0191
     13  CZ3      -40.1540   19.6990   10.3720 C.ar   59  TRP59       0.0001
     14  CH2      -40.3310   18.3130   10.5020 C.ar   59  TRP59       0.0015
     15  N        -34.3830   22.5090    4.6500 N.3    61  GLU61      -0.1245
     16  CA       -35.0900   21.9860    3.5010 C.3    61  GLU61       0.1567
     17  C        -34.4120   22.3810    2.2260 C.2    61  GLU61       0.2260
     18  O        -34.1520   23.5460    1.9960 O.2    61  GLU61      -0.2867
     19  CB       -36.5170   22.4910    3.4870 C.3    61  GLU61       0.0388
     20  CG       -37.4290   21.7240    4.3860 C.3    61  GLU61       0.1160
     21  CD       -38.6230   22.5240    4.7610 C.2    61  GLU61       0.3649
     22  OE1      -38.7850   23.6240    4.2190 O.co2  61  GLU61      -0.2457
     23  OE2      -39.4020   22.0620    5.5980 O.co2  61  GLU61      -0.2457
     24  N        -39.4330    9.6450    3.9670 N.3    88  PHE88      -0.1241
     25  CA       -40.8800    9.5270    3.8730 C.3    88  PHE88       0.1605
     26  C        -41.3360    8.3360    3.0300 C.2    88  PHE88       0.2264
     27  O        -42.5210    8.2360    2.6840 O.2    88  PHE88      -0.2867
     28  CB       -41.4900   10.8250    3.3280 C.3    88  PHE88       0.0534
     29  CG       -41.1910   12.0400    4.1630 C.ar   88  PHE88      -0.0203
     30  CD1      -40.0790   12.8280    3.8840 C.ar   88  PHE88      -0.0042
     31  CD2      -42.0280   12.4080    5.2170 C.ar   88  PHE88      -0.0042
     32  CE1      -39.7940   13.9580    4.6440 C.ar   88  PHE88      -0.0003
     33  CE2      -41.7550   13.5380    5.9810 C.ar   88  PHE88      -0.0003
     34  CZ       -40.6320   14.3150    5.6940 C.ar   88  PHE88      -0.0000
     35  N        -50.6550   15.8810    4.0550 N.3   164  TYR164     -0.1241
     36  CA       -49.2300   15.6250    4.1980 C.3   164  TYR164      0.1605
     37  C        -48.4380   16.2480    3.0490 C.2   164  TYR164      0.2264
     38  O        -47.3630   16.8160    3.2580 O.2   164  TYR164     -0.2867
     39  CB       -48.9290   14.1230    4.2890 C.3   164  TYR164      0.0534
     40  CG       -47.5260   13.8060    3.8460 C.ar  164  TYR164     -0.0201
     41  CD1      -46.4390   14.0480    4.6850 C.ar  164  TYR164     -0.0009
     42  CD2      -47.2780   13.3190    2.5620 C.ar  164  TYR164     -0.0009
     43  CE1      -45.1500   13.7940    4.2690 C.ar  164  TYR164      0.0417
     44  CE2      -45.9960   13.0590    2.1360 C.ar  164  TYR164      0.0417
     45  CZ       -44.9340   13.2960    2.9960 C.ar  164  TYR164      0.1957
     46  OH       -43.6520   13.0310    2.5730 O.3   164  TYR164     -0.2866
     47  N        -48.8370   20.2630    5.1490 N.3   168  TYR168     -0.1227
     48  CA       -47.7060   19.9790    6.0130 C.3   168  TYR168      0.1736
     49  C        -46.4130   20.7000    5.5630 C.2   168  TYR168      0.2595
     50  O        -45.4380   20.7780    6.3090 O.2   168  TYR168     -0.2718
     51  CB       -47.5530   18.4570    6.1110 C.3   168  TYR168      0.0548
     52  CG       -46.4270   17.9480    6.9820 C.ar  168  TYR168     -0.0200
     53  CD1      -46.2890   18.3610    8.3080 C.ar  168  TYR168     -0.0009
     54  CD2      -45.5100   17.0240    6.4780 C.ar  168  TYR168     -0.0009
     55  CE1      -45.2510   17.8800    9.0940 C.ar  168  TYR168      0.0417
     56  CE2      -44.4780   16.5400    7.2540 C.ar  168  TYR168      0.0417
     57  CZ       -44.3500   16.9650    8.5570 C.ar  168  TYR168      0.1957
     58  OH       -43.3160   16.4680    9.3180 O.3   168  TYR168     -0.2866
     59  N        -46.4330   21.2530    4.3530 N.am  169  GLU169     -0.1965
     60  CA       -45.3290   22.0650    3.8410 C.3   169  GLU169      0.1733
     61  C        -45.6630   23.5590    3.8790 C.2   169  GLU169      0.2616
     62  O        -44.8180   24.3800    4.2540 O.2   169  GLU169     -0.2715
     63  CB       -44.9770   21.6550    2.4020 C.3   169  GLU169      0.0429
     64  CG       -43.7890   22.3990    1.7800 C.3   169  GLU169      0.1163
     65  CD       -42.4750   22.1790    2.5310 C.2   169  GLU169      0.3649
     66  OE1      -41.6800   23.1320    2.6320 O.co2 169  GLU169     -0.2457
     67  OE2      -42.2270   21.0590    3.0310 O.co2 169  GLU169     -0.2457
     68  N        -46.8900   23.9080    3.4890 N.am  170  PHE170     -0.1974
     69  CA       -47.2600   25.3100    3.3170 C.3   170  PHE170      0.1639
     70  C        -48.1790   25.8710    4.3900 C.2   170  PHE170      0.2290
     71  O        -48.4630   27.0680    4.3920 O.2   170  PHE170     -0.2864
     72  CB       -47.8410   25.5300    1.9280 C.3   170  PHE170      0.0560
     73  CG       -46.9170   25.1220    0.8350 C.ar  170  PHE170     -0.0200
     74  CD1      -47.3490   24.2760   -0.1750 C.ar  170  PHE170     -0.0042
     75  CD2      -45.5920   25.5570    0.8340 C.ar  170  PHE170     -0.0042
     76  CE1      -46.4870   23.8920   -1.1860 C.ar  170  PHE170     -0.0003
     77  CE2      -44.7230   25.1710   -0.1670 C.ar  170  PHE170     -0.0003
     78  CZ       -45.1720   24.3370   -1.1810 C.ar  170  PHE170     -0.0000
     79  N        -36.8460   23.0780   -3.4930 N.3   188  PHE188     -0.1241
     80  CA       -36.4910   21.6870   -3.7640 C.3   188  PHE188      0.1605
     81  C        -35.9130   21.4970   -5.1510 C.2   188  PHE188      0.2264
     82  O        -35.1290   20.5680   -5.3810 O.2   188  PHE188     -0.2867
     83  CB       -37.6930   20.7790   -3.5680 C.3   188  PHE188      0.0534
     84  CG       -38.2370   20.8120   -2.1810 C.ar  188  PHE188     -0.0203
     85  CD1      -39.4780   21.3850   -1.9220 C.ar  188  PHE188     -0.0042
     86  CD2      -37.4990   20.2900   -1.1190 C.ar  188  PHE188     -0.0042
     87  CE1      -39.9860   21.4250   -0.6190 C.ar  188  PHE188     -0.0003
     88  CE2      -37.9940   20.3250    0.1820 C.ar  188  PHE188     -0.0003
     89  CZ       -39.2410   20.8950    0.4340 C.ar  188  PHE188     -0.0000
     90  N        -34.6890   16.8380    2.9910 N.3   195  VAL195     -0.1245
     91  CA       -34.7770   17.7210    4.1520 C.3   195  VAL195      0.1561
     92  C        -34.0660   17.0700    5.3530 C.2   195  VAL195      0.2260
     93  O        -34.0860   15.8450    5.5070 O.2   195  VAL195     -0.2867
     94  CB       -36.2490   18.1220    4.4840 C.3   195  VAL195      0.0252
     95  CG1      -36.9190   18.7630    3.2840 C.3   195  VAL195      0.0019
     96  CG2      -37.0660   16.9310    4.9540 C.3   195  VAL195      0.0019
     97  N        -48.3070   27.1690   11.7480 N.3   297  TYR297     -0.1241
     98  CA       -47.8420   25.7810   11.7470 C.3   297  TYR297      0.1605
     99  C        -47.4760   25.3990   13.1830 C.2   297  TYR297      0.2264
    100  O        -46.4260   25.7940   13.6970 O.2   297  TYR297     -0.2867
    101  CB       -46.6400   25.6750   10.7960 C.3   297  TYR297      0.0534
    102  CG       -45.9390   24.3320   10.6200 C.ar  297  TYR297     -0.0201
    103  CD1      -46.2060   23.5210    9.5110 C.ar  297  TYR297     -0.0009
    104  CD2      -44.9420   23.9150   11.5120 C.ar  297  TYR297     -0.0009
    105  CE1      -45.5270   22.3060    9.3210 C.ar  297  TYR297      0.0417
    106  CE2      -44.2590   22.7080   11.3340 C.ar  297  TYR297      0.0417
    107  CZ       -44.5540   21.9090   10.2390 C.ar  297  TYR297      0.1957
    108  OH       -43.8850   20.7160   10.0740 O.3   297  TYR297     -0.2866
    109  N        -44.9000   31.1890    9.1510 N.3   402  PHE402     -0.1241
    110  CA       -44.2590   31.5660    7.8870 C.3   402  PHE402      0.1605
    111  C        -45.2840   31.9950    6.8450 C.2   402  PHE402      0.2264
    112  O        -46.4760   31.7130    6.9860 O.2   402  PHE402     -0.2867
    113  CB       -43.3460   30.4500    7.3430 C.3   402  PHE402      0.0534
    114  CG       -43.9230   29.0680    7.4730 C.ar  402  PHE402     -0.0203
    115  CD1      -44.8220   28.5790    6.5240 C.ar  402  PHE402     -0.0042
    116  CD2      -43.5590   28.2460    8.5400 C.ar  402  PHE402     -0.0042
    117  CE1      -45.3580   27.2920    6.6440 C.ar  402  PHE402     -0.0003
    118  CE2      -44.0840   26.9600    8.6700 C.ar  402  PHE402     -0.0003
    119  CZ       -44.9840   26.4800    7.7220 C.ar  402  PHE402     -0.0000
    120  N        -40.7410   31.7440    3.1320 N.3   437  GLY437     -0.1210
    121  CA       -41.1920   30.7640    4.1190 C.3   437  GLY437      0.1956
    122  C        -40.1470   29.7980    4.6480 C.2   437  GLY437      0.2611
    123  O        -40.4980   28.8030    5.2780 O.2   437  GLY437     -0.2717
    124  N        -38.8700   30.0850    4.4020 N.am  438  TYR438     -0.1976
    125  CA       -37.7810   29.1840    4.8060 C.3   438  TYR438      0.1639
    126  C        -36.6160   29.9020    5.4590 C.2   438  TYR438      0.2290
    127  O        -36.3780   31.0790    5.2010 O.2   438  TYR438     -0.2864
    128  CB       -37.2690   28.3700    3.6130 C.3   438  TYR438      0.0560
    129  CG       -38.3260   27.4870    3.0020 C.ar  438  TYR438     -0.0198
    130  CD1      -39.0620   27.9210    1.9060 C.ar  438  TYR438     -0.0009
    131  CD2      -38.6130   26.2280    3.5440 C.ar  438  TYR438     -0.0009
    132  CE1      -40.0470   27.1340    1.3590 C.ar  438  TYR438      0.0417
    133  CE2      -39.5910   25.4300    3.0000 C.ar  438  TYR438      0.0417
    134  CZ       -40.3030   25.8940    1.9060 C.ar  438  TYR438      0.1957
    135  OH       -41.2870   25.1290    1.3460 O.3   438  TYR438     -0.2866
@<TRIPOS>BOND
     1    82    81    2
     2    81    80    1
     3    80    83    1
     4    80    79    1
     5    83    84    1
     6    84    85   ar
     7    84    86   ar
     8    85    87   ar
     9    76    78   ar
    10    76    74   ar
    11    78    77   ar
    12    86    88   ar
    13    87    89   ar
    14    74    73   ar
    15    77    75   ar
    16    88    89   ar
    17    75    73   ar
    18    73    72    1
    19   135   134    1
    20   132   134   ar
    21   132   130   ar
    22    64    63    1
    23    64    65    1
    24   134   133   ar
    25   130   129   ar
    26    72    69    1
    27    18    17    2
    28    44    42   ar
    29    44    45   ar
    30    17    16    1
    31    63    60    1
    32    65    66   ar
    33    65    67   ar
    34    42    40   ar
    35    46    45    1
    36    27    26    2
    37    90    91    1
    38    45    43   ar
    39   133   131   ar
    40   129   131   ar
    41   129   128    1
    42    26    25    1
    43    37    38    2
    44    37    36    1
    45   120   121    1
    46    95    94    1
    47    69    68    1
    48    69    70    1
    49    28    25    1
    50    28    29    1
    51    19    16    1
    52    19    20    1
    53    68    61   am
    54    16    15    1
    55   128   125    1
    56    60    61    1
    57    60    59    1
    58    40    39    1
    59    40    41   ar
    60    25    24    1
    61    61    62    2
    62    30    29   ar
    63    30    32   ar
    64    35    36    1
    65   121   122    1
    66    91    94    1
    67    91    92    1
    68    29    31   ar
    69    36    39    1
    70    22    21   ar
    71    43    41   ar
    72    59    49   am
    73    20    21    1
    74    70    71    2
    75   124   122   am
    76   124   125    1
    77    94    96    1
    78    32    34   ar
    79   122   123    2
    80    21    23   ar
    81   125   126    1
    82    47    48    1
    83   127   126    2
    84    31    33   ar
    85    92    93    2
    86    49    48    1
    87    49    50    2
    88    34    33   ar
    89    48    51    1
    90    51    52    1
    91    54    52   ar
    92    54    56   ar
    93   115   117   ar
    94   115   114   ar
    95   117   119   ar
    96   111   112    2
    97   111   110    1
    98    52    53   ar
    99    56    57   ar
   100   113   114    1
   101   113   110    1
   102   114   116   ar
   103   119   118   ar
   104   110   109    1
   105     5     6    1
   106     5     2    1
   107     7     6   ar
   108     7     9   ar
   109     3     4    2
   110     3     2    1
   111    53    55   ar
   112     6     8   ar
   113   116   118   ar
   114    57    55   ar
   115    57    58    1
   116     9    10   ar
   117     2     1    1
   118     8    10   ar
   119     8    11   ar
   120    10    12   ar
   121   105   103   ar
   122   105   107   ar
   123   103   102   ar
   124    11    13   ar
   125    12    14   ar
   126   108   107    1
   127   107   106   ar
   128    13    14   ar
   129   102   101    1
   130   102   104   ar
   131   101    98    1
   132   106   104   ar
   133    98    97    1
   134    98    99    1
   135    99   100    2
