@<TRIPOS>MOLECULE
tmp/3l1sB00.pdb
 175 164 0 0 0
SMALL
GASTEIGER

@<TRIPOS>ATOM
      1  N         23.0070   65.8940   75.4260 N.3    27  ILE27      -0.1231
      2  CA        24.0440   65.0890   76.0700 C.3    27  ILE27       0.1692
      3  C         24.0210   63.6540   75.5390 C.2    27  ILE27       0.2592
      4  O         24.9380   62.8730   75.8140 O.2    27  ILE27      -0.2718
      5  CB        24.0330   65.1710   77.6210 C.3    27  ILE27       0.0266
      6  CG1       22.7100   64.6580   78.2170 C.3    27  ILE27       0.0019
      7  CG2       24.3770   66.5890   78.0900 C.3    27  ILE27       0.0020
      8  CD1       22.6630   64.5830   79.7690 C.3    27  ILE27       0.0001
      9  N         22.9860   63.3270   74.7730 N.am   28  GLY28      -0.1957
     10  CA        22.8370   61.9910   74.2320 C.3    28  GLY28       0.1869
     11  C         21.6710   61.8490   73.2930 C.2    28  GLY28       0.2309
     12  O         20.7120   62.6110   73.3530 O.2    28  GLY28      -0.2863
     13  N         15.3350   55.8330   71.1270 N.3    32  PHE32      -0.1241
     14  CA        14.2880   56.3550   72.0030 C.3    32  PHE32       0.1605
     15  C         13.9020   57.8210   71.6980 C.2    32  PHE32       0.2264
     16  O         12.7100   58.1680   71.6490 O.2    32  PHE32      -0.2867
     17  CB        14.7410   56.2380   73.4720 C.3    32  PHE32       0.0534
     18  CG        16.0040   56.9880   73.8230 C.ar   32  PHE32      -0.0203
     19  CD1       15.9510   58.2940   74.2710 C.ar   32  PHE32      -0.0042
     20  CD2       17.2490   56.3740   73.7350 C.ar   32  PHE32      -0.0042
     21  CE1       17.1240   58.9970   74.5550 C.ar   32  PHE32      -0.0003
     22  CE2       18.4260   57.0720   74.0590 C.ar   32  PHE32      -0.0003
     23  CZ        18.3560   58.3730   74.4660 C.ar   32  PHE32      -0.0000
     24  N         18.4410   63.0730   74.9350 N.3    35  VAL35      -0.1245
     25  CA        18.6660   63.4280   76.3330 C.3    35  VAL35       0.1561
     26  C         19.3410   64.8000   76.3790 C.2    35  VAL35       0.2260
     27  O         20.3640   65.0310   75.7080 O.2    35  VAL35      -0.2867
     28  CB        19.4600   62.3810   77.1310 C.3    35  VAL35       0.0252
     29  CG1       19.3370   62.6500   78.6210 C.3    35  VAL35       0.0019
     30  CG2       18.9480   60.9880   76.8340 C.3    35  VAL35       0.0019
     31  N         18.3990   66.3100   83.8350 N.3    48  ALA48      -0.1245
     32  CA        18.4790   65.7270   82.5160 C.3    48  ALA48       0.1562
     33  C         17.0440   65.6750   82.0220 C.2    48  ALA48       0.2260
     34  O         16.1390   65.4210   82.8130 O.2    48  ALA48      -0.2867
     35  CB        19.0540   64.3250   82.5970 C.3    48  ALA48       0.0290
     36  N         14.8600   63.6790   79.2670 N.3    50  LYS50      -0.1245
     37  CA        14.7420   62.6360   78.2510 C.3    50  LYS50       0.1561
     38  C         13.4370   62.8820   77.4690 C.2    50  LYS50       0.2260
     39  O         12.3300   62.7830   78.0110 O.2    50  LYS50      -0.2867
     40  CB        14.7830   61.2220   78.8840 C.3    50  LYS50       0.0271
     41  CG        14.5910   60.0780   77.8720 C.3    50  LYS50       0.0035
     42  CD        14.7320   58.6860   78.5100 C.3    50  LYS50       0.0206
     43  CE        14.3870   57.5550   77.5550 C.3    50  LYS50       0.1093
     44  NZ        14.6030   56.1700   78.1130 N.3    50  LYS50      -0.1314
     45  N          7.4820   53.3390   80.3450 N.3    62  GLU62      -0.1245
     46  CA         8.6570   53.8300   81.0570 C.3    62  GLU62       0.1567
     47  C          8.2510   54.8120   82.1410 C.2    62  GLU62       0.2260
     48  O          8.7290   54.7300   83.2690 O.2    62  GLU62      -0.2867
     49  CB         9.6410   54.4970   80.0900 C.3    62  GLU62       0.0388
     50  CG        10.9120   54.9990   80.7550 C.3    62  GLU62       0.1160
     51  CD        12.0330   55.5430   79.8870 C.2    62  GLU62       0.3649
     52  OE1       13.1900   55.5210   80.3650 O.co2  62  GLU62      -0.2457
     53  OE2       11.7620   56.0850   78.7940 O.co2  62  GLU62      -0.2457
     54  N          8.6130   54.3790   86.2070 N.3    66  MET66      -0.1245
     55  CA         9.4450   55.3560   86.8970 C.3    66  MET66       0.1570
     56  C          8.7340   56.1690   87.9330 C.2    66  MET66       0.2261
     57  O          9.3550   56.5850   88.9020 O.2    66  MET66      -0.2867
     58  CB        10.1930   56.2340   85.9290 C.3    66  MET66       0.0387
     59  CG        11.2890   55.4760   85.2480 C.3    66  MET66       0.0595
     60  SD        12.5820   56.5530   84.6200 S.3    66  MET66      -0.1393
     61  CE        13.5640   56.7720   86.0470 C.3    66  MET66       0.0692
     62  N         18.0320   56.5140   88.8680 N.3    75  VAL75      -0.1245
     63  CA        17.8440   57.9100   88.5200 C.3    75  VAL75       0.1561
     64  C         16.3990   58.3730   88.8460 C.2    75  VAL75       0.2260
     65  O         15.4250   57.6820   88.5140 O.2    75  VAL75      -0.2867
     66  CB        18.2950   58.2260   87.0850 C.3    75  VAL75       0.0252
     67  CG1       17.3130   57.7640   86.0270 C.3    75  VAL75       0.0019
     68  CG2       18.6750   59.6930   86.9410 C.3    75  VAL75       0.0019
     69  N         10.8490   63.5730   80.1680 N.3    93  LEU93      -0.1245
     70  CA        11.0950   63.1080   81.5230 C.3    93  LEU93       0.1561
     71  C         12.1840   63.9500   82.1570 C.2    93  LEU93       0.2260
     72  O         13.3050   63.9660   81.6540 O.2    93  LEU93      -0.2867
     73  CB        11.4770   61.6250   81.5290 C.3    93  LEU93       0.0270
     74  CG        10.4780   60.6660   80.9090 C.3    93  LEU93       0.0019
     75  CD1       10.8460   59.3030   81.2440 C.3    93  LEU93       0.0001
     76  CD2        9.0910   60.8400   81.5010 C.3    93  LEU93       0.0001
     77  N         14.6860   64.2800   84.8860 N.3    95  LEU95      -0.1231
     78  CA        15.3760   63.3890   85.8100 C.3    95  LEU95       0.1693
     79  C         16.5240   64.0800   86.4720 C.2    95  LEU95       0.2592
     80  O         16.9660   65.1240   85.9960 O.2    95  LEU95      -0.2718
     81  CB        15.9100   62.1860   84.9890 C.3    95  LEU95       0.0284
     82  CG        14.8790   61.4420   84.1320 C.3    95  LEU95       0.0019
     83  CD1       15.4670   60.8940   82.8760 C.3    95  LEU95       0.0001
     84  CD2       14.2340   60.3640   84.9080 C.3    95  LEU95       0.0001
     85  N         17.0740   63.4740   87.5300 N.am   96  ASP96      -0.1960
     86  CA        18.2940   63.9910   88.1330 C.3    96  ASP96       0.1840
     87  C         19.3920   63.8730   87.0990 C.2    96  ASP96       0.2622
     88  O         19.3970   62.9350   86.2950 O.2    96  ASP96      -0.2715
     89  CB        18.6990   63.1590   89.3350 C.3    96  ASP96       0.1450
     90  CG        17.8990   63.4450   90.5800 C.2    96  ASP96       0.3671
     91  OD1       17.8930   62.5790   91.4920 O.co2  96  ASP96      -0.2456
     92  OD2       17.2920   64.5360   90.6600 O.co2  96  ASP96      -0.2456
     93  N         20.3200   64.8240   87.1230 N.am   97  TYR97      -0.1960
     94  CA        21.4520   64.8020   86.2190 C.3    97  TYR97       0.1771
     95  C         22.6030   64.0840   86.8680 C.2    97  TYR97       0.2619
     96  O         22.8700   64.3150   88.0470 O.2    97  TYR97      -0.2715
     97  CB        21.8340   66.2110   85.7930 C.3    97  TYR97       0.0574
     98  CG        23.1160   66.2450   85.0060 C.ar   97  TYR97      -0.0198
     99  CD1       23.1680   65.7780   83.6970 C.ar   97  TYR97      -0.0009
    100  CD2       24.2980   66.6770   85.5870 C.ar   97  TYR97      -0.0009
    101  CE1       24.3540   65.7920   82.9720 C.ar   97  TYR97       0.0417
    102  CE2       25.4910   66.7040   84.8680 C.ar   97  TYR97       0.0417
    103  CZ        25.5120   66.2720   83.5580 C.ar   97  TYR97       0.1957
    104  OH        26.7010   66.2590   82.8620 O.3    97  TYR97      -0.2866
    105  N         23.2280   63.1510   86.1270 N.am   98  VAL98      -0.1964
    106  CA        24.3960   62.3880   86.5650 C.3    98  VAL98       0.1712
    107  C         25.4570   62.6150   85.4900 C.2    98  VAL98       0.2458
    108  O         25.1200   62.5680   84.3020 O.2    98  VAL98      -0.2730
    109  CB        24.1180   60.9120   86.8910 C.3    98  VAL98       0.0289
    110  CG1       25.2890   60.3020   87.6520 C.3    98  VAL98       0.0023
    111  CG2       22.8690   60.7870   87.7280 C.3    98  VAL98       0.0023
    112  N         26.7040   62.9780   85.8680 N.am   99  PRO99      -0.2716
    113  CA        27.6780   63.3930   84.8510 C.3    99  PRO99       0.1536
    114  C         28.2320   62.3630   83.8900 C.2    99  PRO99       0.2598
    115  O         28.5150   62.7100   82.7500 O.2    99  PRO99      -0.2715
    116  CB        28.7840   64.0670   85.6660 C.3    99  PRO99       0.0310
    117  CG        28.3730   64.0680   87.0510 C.3    99  PRO99       0.0237
    118  CD        27.2570   63.1090   87.2290 C.3    99  PRO99       0.0939
    119  N         28.4210   61.1300   84.3460 N.am  100  GLU100     -0.1964
    120  CA        29.1040   60.1040   83.5650 C.3   100  GLU100      0.1733
    121  C         28.3650   58.8130   83.4760 C.2   100  GLU100      0.2617
    122  O         27.3050   58.6680   84.0780 O.2   100  GLU100     -0.2715
    123  CB        30.4800   59.8400   84.2020 C.3   100  GLU100      0.0429
    124  CG        31.5300   60.8500   83.8070 C.3   100  GLU100      0.1163
    125  CD        31.9390   60.8170   82.3530 C.2   100  GLU100      0.3649
    126  OE1       31.5410   59.8640   81.6530 O.co2 100  GLU100     -0.2457
    127  OE2       32.7070   61.7060   81.9260 O.co2 100  GLU100     -0.2457
    128  N         28.9380   57.8510   82.7380 N.am  101  THR101     -0.1951
    129  CA        28.3940   56.5030   82.5770 C.3   101  THR101      0.1897
    130  C         29.5190   55.5170   82.7710 C.2   101  THR101      0.2313
    131  O         30.6910   55.8890   82.6020 O.2   101  THR101     -0.2863
    132  CB        27.7610   56.3220   81.2020 C.3   101  THR101      0.1794
    133  OG1       28.7990   56.2630   80.2110 O.3   101  THR101     -0.2208
    134  CG2       26.7260   57.4240   80.8770 C.3   101  THR101      0.0378
    135  N         31.5870   55.1890   79.4650 N.3   104  ARG104     -0.1245
    136  CA        32.6100   56.1910   79.1790 C.3   104  ARG104      0.1563
    137  C         33.8090   56.0410   80.0920 C.2   104  ARG104      0.2260
    138  O         34.9370   56.1230   79.6080 O.2   104  ARG104     -0.2867
    139  CB        32.0380   57.5870   79.2910 C.3   104  ARG104      0.0307
    140  CG        31.0130   57.8690   78.2360 C.3   104  ARG104      0.0489
    141  CD        30.3570   59.1580   78.5890 C.3   104  ARG104      0.2205
    142  NE        31.2860   60.2180   78.2110 N.pl3 104  ARG104     -0.0865
    143  CZ        31.2090   61.4780   78.6010 C.cat 104  ARG104      0.5346
    144  NH1       32.0880   62.3610   78.1700 N.pl3 104  ARG104      0.1354
    145  NH2       30.2270   61.8770   79.3960 N.pl3 104  ARG104      0.1354
    146  N         23.7960   52.2380   80.3770 N.3   149  ASN149     -0.1240
    147  CA        22.5990   52.4980   81.1770 C.3   149  ASN149      0.1653
    148  C         22.9460   52.6130   82.6400 C.2   149  ASN149      0.2266
    149  O         22.0720   52.5720   83.4910 O.2   149  ASN149     -0.2867
    150  CB        21.5470   51.4100   80.9160 C.3   149  ASN149      0.1155
    151  CG        20.9000   51.6020   79.5990 C.2   149  ASN149      0.2627
    152  OD1       20.9790   52.6820   79.0010 O.2   149  ASN149     -0.2716
    153  ND2       20.2040   50.5930   79.1440 N.am  149  ASN149     -0.0877
    154  N         24.6790   55.1000   85.1480 N.3   151  LEU151     -0.1245
    155  CA        25.1700   56.4590   85.3500 C.3   151  LEU151      0.1561
    156  C         26.0600   56.5070   86.5620 C.2   151  LEU151      0.2260
    157  O         25.8580   55.7350   87.5030 O.2   151  LEU151     -0.2867
    158  CB        24.0220   57.4620   85.4780 C.3   151  LEU151      0.0270
    159  CG        22.9780   57.4450   84.3500 C.3   151  LEU151      0.0019
    160  CD1       21.8450   58.4190   84.6530 C.3   151  LEU151      0.0001
    161  CD2       23.6000   57.6980   82.9770 C.3   151  LEU151      0.0001
    162  N         19.5970   53.7670   84.8320 N.3   162  CYS162     -0.1221
    163  CA        18.7050   54.5940   84.0210 C.3   162  CYS162      0.1808
    164  C         18.1630   53.7630   82.8650 C.2   162  CYS162      0.2601
    165  O         18.4450   52.5620   82.7680 O.2   162  CYS162     -0.2717
    166  CB        19.4080   55.8560   83.5320 C.3   162  CYS162      0.0970
    167  SG        20.6030   55.5670   82.2110 S.3   162  CYS162     -0.0800
    168  N         17.4070   54.4100   81.9800 N.am  163  ASP163     -0.1973
    169  CA        16.7730   53.7990   80.8140 C.3   163  ASP163      0.1709
    170  C         15.7530   52.6930   80.9880 C.2   163  ASP163      0.2293
    171  O         15.9120   51.5960   80.4490 O.2   163  ASP163     -0.2864
    172  CB        17.7730   53.3740   79.7360 C.3   163  ASP163      0.1436
    173  CG        17.1150   52.8890   78.4560 C.2   163  ASP163      0.3671
    174  OD1       15.8780   53.0900   78.3000 O.co2 163  ASP163     -0.2456
    175  OD2       17.8320   52.3480   77.5940 O.co2 163  ASP163     -0.2456
@<TRIPOS>BOND
     1    13    14    1
     2    16    15    2
     3    15    14    1
     4    14    17    1
     5    11    12    2
     6    11    10    1
     7    17    18    1
     8    20    18   ar
     9    20    22   ar
    10    18    19   ar
    11    22    23   ar
    12    10     9    1
    13    19    21   ar
    14    23    21   ar
    15     9     3   am
    16    24    25    1
    17     1     2    1
    18     3     4    2
    19     3     2    1
    20    27    26    2
    21     2     5    1
    22    25    26    1
    23    25    28    1
    24    30    28    1
    25    28    29    1
    26    38    39    2
    27    38    37    1
    28    43    44    1
    29    43    42    1
    30   175   173   ar
    31     5     7    1
    32     5     6    1
    33    41    42    1
    34    41    40    1
    35   144   143    1
    36   142   141    1
    37   142   143    2
    38     6     8    1
    39   140   141    1
    40   140   139    1
    41    37    40    1
    42    37    36    1
    43   174   173   ar
    44   173   172    1
    45   143   145    1
    46    53    51   ar
    47   152   151    2
    48   153   151   am
    49   136   139    1
    50   136   135    1
    51   136   137    1
    52   151   150    1
    53   138   137    2
    54   172   169    1
    55    51    52   ar
    56    51    50    1
    57    49    50    1
    58    49    46    1
    59    69    70    1
    60   133   132    1
    61    45    46    1
    62   146   147    1
    63   171   170    2
    64   169   170    1
    65   169   168    1
    66   134   132    1
    67    74    75    1
    68    74    76    1
    69    74    73    1
    70   150   147    1
    71    46    47    1
    72   147   148    1
    73   132   129    1
    74    70    73    1
    75    70    71    1
    76   126   125   ar
    77    72    71    2
    78   127   125   ar
    79   168   164   am
    80    33    32    1
    81    33    34    2
    82    47    48    2
    83   167   166    1
    84   125   124    1
    85    32    35    1
    86    32    31    1
    87   129   128    1
    88   129   130    1
    89   131   130    2
    90   148   149    2
    91   128   121   am
    92   115   114    2
    93   165   164    2
    94   104   103    1
    95   164   163    1
    96    83    82    1
    97   101   103   ar
    98   101    99   ar
    99   161   159    1
   100   121   120    1
   101   121   122    2
   102   166   163    1
   103   103   102   ar
   104   120   123    1
   105   120   119    1
   106    99    98   ar
   107   124   123    1
   108   114   119   am
   109   114   113    1
   110   163   162    1
   111    82    84    1
   112    82    81    1
   113   108   107    2
   114   159   160    1
   115   159   158    1
   116    60    59    1
   117    60    61    1
   118   113   116    1
   119   113   112    1
   120   102   100   ar
   121    77    78    1
   122    81    78    1
   123    98   100   ar
   124    98    97    1
   125   154   155    1
   126    59    58    1
   127   155   158    1
   128   155   156    1
   129   107   112   am
   130   107   106    1
   131   116   117    1
   132    97    94    1
   133    78    79    1
   134   112   118    1
   135    58    55    1
   136    80    79    2
   137    67    66    1
   138   105   106    1
   139   105    95   am
   140    54    55    1
   141    94    95    1
   142    94    93    1
   143    88    87    2
   144    79    85   am
   145   156   157    2
   146   106   109    1
   147    95    96    2
   148   109   110    1
   149   109   111    1
   150    55    56    1
   151    68    66    1
   152   117   118    1
   153    66    63    1
   154    87    93   am
   155    87    86    1
   156    85    86    1
   157    56    57    2
   158    86    89    1
   159    65    64    2
   160    63    64    1
   161    63    62    1
   162    89    90    1
   163    90    92   ar
   164    90    91   ar
