@<TRIPOS>MOLECULE
tmp/3l1sA00.pdb
 175 163 0 0 0
SMALL
GASTEIGER

@<TRIPOS>ATOM
      1  N         45.1650   36.9010   57.7880 N.3    35  ILE35      -0.1231
      2  CA        44.4180   37.9530   57.0940 C.3    35  ILE35       0.1692
      3  C         43.0810   38.1990   57.7820 C.2    35  ILE35       0.2592
      4  O         42.4230   39.2060   57.5050 O.2    35  ILE35      -0.2718
      5  CB        44.3000   37.7330   55.5630 C.3    35  ILE35       0.0266
      6  CG1       43.5540   36.4150   55.2170 C.3    35  ILE35       0.0019
      7  CG2       45.6720   37.8230   54.8990 C.3    35  ILE35       0.0020
      8  CD1       43.2620   36.1780   53.6900 C.3    35  ILE35       0.0001
      9  N         42.7170   37.3050   58.6950 N.am   36  GLY36      -0.1957
     10  CA        41.4650   37.4040   59.4180 C.3    36  GLY36       0.1869
     11  C         41.3410   36.4100   60.5360 C.2    36  GLY36       0.2309
     12  O         41.9610   35.3540   60.5170 O.2    36  GLY36      -0.2863
     13  N         35.0390   31.4280   64.3910 N.3    40  PHE40      -0.1241
     14  CA        35.2490   30.2000   63.6100 C.3    40  PHE40       0.1605
     15  C         36.6860   29.6170   63.7590 C.2    40  PHE40       0.2264
     16  O         36.8780   28.4080   63.9290 O.2    40  PHE40      -0.2867
     17  CB        34.9600   30.4730   62.1190 C.3    40  PHE40       0.0534
     18  CG        35.8130   31.5560   61.4870 C.ar   40  PHE40      -0.0203
     19  CD1       37.0130   31.2430   60.8640 C.ar   40  PHE40      -0.0042
     20  CD2       35.4030   32.8860   61.4990 C.ar   40  PHE40      -0.0042
     21  CE1       37.8150   32.2440   60.3200 C.ar   40  PHE40      -0.0003
     22  CE2       36.1900   33.8860   60.9080 C.ar   40  PHE40      -0.0003
     23  CZ        37.3830   33.5560   60.3220 C.ar   40  PHE40      -0.0000
     24  N         41.9270   32.8720   59.2240 N.3    43  VAL43      -0.1245
     25  CA        42.1100   32.8590   57.7800 C.3    43  VAL43       0.1561
     26  C         43.5340   33.3200   57.4710 C.2    43  VAL43       0.2260
     27  O         43.9710   34.3740   57.9570 O.2    43  VAL43      -0.2867
     28  CB        41.0720   33.6890   57.0060 C.3    43  VAL43       0.0252
     29  CG1       41.1210   33.3370   55.5130 C.3    43  VAL43       0.0019
     30  CG2       39.6830   33.4370   57.5390 C.3    43  VAL43       0.0019
     31  N         43.9460   31.2520   50.0770 N.3    56  ALA56      -0.1245
     32  CA        43.5390   31.5760   51.4310 C.3    56  ALA56       0.1562
     33  C         43.3680   30.2440   52.1230 C.2    56  ALA56       0.2260
     34  O         42.8990   29.2950   51.4890 O.2    56  ALA56      -0.2867
     35  CB        42.2220   32.3310   51.4200 C.3    56  ALA56       0.0290
     36  N         41.4590   28.7310   55.3700 N.3    58  LYS58      -0.1245
     37  CA        40.5630   28.9030   56.5150 C.3    58  LYS58       0.1561
     38  C         40.7350   27.6740   57.4390 C.2    58  LYS58       0.2260
     39  O         40.4030   26.5440   57.0710 O.2    58  LYS58      -0.2867
     40  CB        39.1060   29.0880   56.0700 C.3    58  LYS58       0.0271
     41  CG        38.1100   29.2260   57.2390 C.3    58  LYS58       0.0035
     42  CD        36.6660   29.4940   56.7860 C.3    58  LYS58       0.0206
     43  CE        35.6750   29.4310   57.9270 C.3    58  LYS58       0.1093
     44  NZ        34.2800   29.7870   57.5180 N.3    58  LYS58      -0.1314
     45  N         30.1770   23.0310   56.7660 N.3    70  GLU70      -0.1245
     46  CA        30.7230   24.0140   55.8310 C.3    70  GLU70       0.1567
     47  C         31.4640   23.3110   54.6950 C.2    70  GLU70       0.2260
     48  O         31.2840   23.6510   53.5290 O.2    70  GLU70      -0.2867
     49  CB        31.6540   24.9910   56.5560 C.3    70  GLU70       0.0388
     50  CG        32.2200   26.0550   55.6440 C.3    70  GLU70       0.1160
     51  CD        33.0510   27.1660   56.2480 C.2    70  GLU70       0.3649
     52  OE1       33.1320   28.2430   55.6130 O.co2  70  GLU70      -0.2457
     53  OE2       33.6750   26.9550   57.3090 O.co2  70  GLU70      -0.2457
     54  N         30.4460   23.2360   50.7390 N.3    74  MET74      -0.1245
     55  CA        31.4040   23.8030   49.8000 C.3    74  MET74       0.1570
     56  C         31.9310   22.8510   48.7700 C.2    74  MET74       0.2261
     57  O         32.2890   23.2790   47.6750 O.2    74  MET74      -0.2867
     58  CB        32.5250   24.4920   50.5290 C.3    74  MET74       0.0387
     59  CG        32.0740   25.7860   51.1430 C.3    74  MET74       0.0595
     60  SD        33.3980   26.9880   51.2780 S.3    74  MET74      -0.1393
     61  CE        34.6480   26.0000   51.8880 C.3    74  MET74       0.0692
     62  N         33.4640   31.7620   46.4340 N.3    83  VAL83      -0.1245
     63  CA        34.8780   31.4330   46.6260 C.3    83  VAL83       0.1561
     64  C         35.0960   29.9270   46.4270 C.2    83  VAL83       0.2260
     65  O         34.3240   29.1110   46.9410 O.2    83  VAL83      -0.2867
     66  CB        35.4650   31.9290   47.9680 C.3    83  VAL83       0.0252
     67  CG1       36.9610   31.6120   48.0380 C.3    83  VAL83       0.0019
     68  CG2       35.2410   33.4030   48.2060 C.3    83  VAL83       0.0019
     69  N         40.6670   24.7060   55.0560 N.3    96  LEU96      -0.1245
     70  CA        40.0630   24.8580   53.7460 C.3    96  LEU96       0.1561
     71  C         40.9680   25.7160   52.8760 C.2    96  LEU96       0.2260
     72  O         41.2210   26.8590   53.2220 O.2    96  LEU96      -0.2867
     73  CB        38.6590   25.4690   53.8590 C.3    96  LEU96       0.0270
     74  CG        37.6610   24.7370   54.7500 C.3    96  LEU96       0.0019
     75  CD1       36.4200   25.5350   54.9140 C.3    96  LEU96       0.0001
     76  CD2       37.3230   23.3530   54.2730 C.3    96  LEU96       0.0001
     77  N         41.2790   27.7890   49.7970 N.3    98  LEU98      -0.1231
     78  CA        40.3730   28.4930   48.9120 C.3    98  LEU98       0.1693
     79  C         41.1440   29.4340   48.0000 C.2    98  LEU98       0.2592
     80  O         42.3060   29.7710   48.2690 O.2    98  LEU98      -0.2718
     81  CB        39.3800   29.3070   49.7870 C.3    98  LEU98       0.0284
     82  CG        38.6380   28.5270   50.8740 C.3    98  LEU98       0.0019
     83  CD1       38.3590   29.3610   52.0820 C.3    98  LEU98       0.0001
     84  CD2       37.3700   28.0040   50.3490 C.3    98  LEU98       0.0001
     85  N         40.4710   29.9200   46.9560 N.am   99  ASP99      -0.1960
     86  CA        41.0620   30.9440   46.1280 C.3    99  ASP99       0.1840
     87  C         41.2480   32.1730   46.9990 C.2    99  ASP99       0.2622
     88  O         40.4170   32.4320   47.8860 O.2    99  ASP99      -0.2715
     89  CB        40.0900   31.3260   45.0090 C.3    99  ASP99       0.1450
     90  CG        40.0440   30.3340   43.8600 C.2    99  ASP99       0.3671
     91  OD1       39.0590   30.3660   43.0810 O.co2  99  ASP99      -0.2456
     92  OD2       41.0140   29.5600   43.7020 O.co2  99  ASP99      -0.2456
     93  N         42.2950   32.9390   46.7260 N.am  100  TYR100     -0.1960
     94  CA        42.5240   34.1710   47.4560 C.3   100  TYR100      0.1771
     95  C         41.8740   35.3280   46.7240 C.2   100  TYR100      0.2619
     96  O         41.9860   35.4030   45.5220 O.2   100  TYR100     -0.2715
     97  CB        44.0140   34.4050   47.7000 C.3   100  TYR100      0.0574
     98  CG        44.2920   35.7550   48.2890 C.ar  100  TYR100     -0.0198
     99  CD1       43.9810   36.0360   49.6130 C.ar  100  TYR100     -0.0009
    100  CD2       44.8030   36.7740   47.5100 C.ar  100  TYR100     -0.0009
    101  CE1       44.2270   37.2900   50.1580 C.ar  100  TYR100      0.0417
    102  CE2       45.0660   38.0270   48.0440 C.ar  100  TYR100      0.0417
    103  CZ        44.7780   38.2820   49.3680 C.ar  100  TYR100      0.1957
    104  OH        45.0100   39.5390   49.8800 O.3   100  TYR100     -0.2866
    105  N         41.1270   36.1740   47.4410 N.am  101  VAL101     -0.1964
    106  CA        40.4700   37.3780   46.9230 C.3   101  VAL101      0.1712
    107  C         40.9760   38.5280   47.7880 C.2   101  VAL101      0.2458
    108  O         41.0490   38.3740   49.0090 O.2   101  VAL101     -0.2730
    109  CB        38.9390   37.2860   46.8480 C.3   101  VAL101      0.0289
    110  CG1       38.3680   38.4390   46.0310 C.3   101  VAL101      0.0023
    111  CG2       38.5020   35.9530   46.2490 C.3   101  VAL101      0.0023
    112  N         41.4670   39.6250   47.1760 N.am  102  PRO102     -0.2727
    113  CA        42.1560   40.6610   47.9700 C.3   102  PRO102      0.1402
    114  C         41.3660   41.5070   48.9530 C.2   102  PRO102      0.2269
    115  O         41.8990   41.8810   50.0010 O.2   102  PRO102     -0.2865
    116  CB        42.8800   41.5130   46.9230 C.3   102  PRO102      0.0296
    117  CG        42.6070   40.8830   45.6150 C.3   102  PRO102      0.0237
    118  CD        41.4870   39.9430   45.7390 C.3   102  PRO102      0.0939
    119  N         37.3040   43.0000   50.6450 N.3   104  THR104     -0.1218
    120  CA        35.9500   42.6860   51.0900 C.3   104  THR104      0.1862
    121  C         35.1070   43.9340   50.8740 C.2   104  THR104      0.2287
    122  O         35.6600   45.0470   50.8260 O.2   104  THR104     -0.2866
    123  CB        35.9250   42.2520   52.5570 C.3   104  THR104      0.1770
    124  OG1       36.1790   43.3880   53.3930 O.3   104  THR104     -0.2211
    125  CG2       36.9040   41.1180   52.8430 C.3   104  THR104      0.0375
    126  N         35.6230   46.3860   53.8720 N.3   107  ARG107     -0.1245
    127  CA        36.7900   47.2730   53.8620 C.3   107  ARG107      0.1563
    128  C         36.6590   48.3520   52.8260 C.2   107  ARG107      0.2260
    129  O         36.9870   49.5030   53.1010 O.2   107  ARG107     -0.2867
    130  CB        38.0630   46.4850   53.6320 C.3   107  ARG107      0.0307
    131  CG        38.3860   45.5320   54.7550 C.3   107  ARG107      0.0489
    132  CD        39.5270   44.7030   54.2580 C.3   107  ARG107      0.2205
    133  NE        40.7210   45.5600   54.2680 N.pl3 107  ARG107     -0.0865
    134  CZ        41.8710   45.2880   53.6820 C.cat 107  ARG107      0.5346
    135  NH1       42.8760   46.1420   53.7610 N.pl3 107  ARG107      0.1354
    136  NH2       42.0330   44.1600   53.0140 N.pl3 107  ARG107      0.1354
    137  N         31.3050   41.7220   55.3940 N.3   151  GLN151     -0.1231
    138  CA        32.5240   40.9600   55.6880 C.3   151  GLN151      0.1698
    139  C         32.5930   39.6130   55.0020 C.2   151  GLN151      0.2592
    140  O         33.6570   39.0070   54.9580 O.2   151  GLN151     -0.2718
    141  CB        32.6930   40.7660   57.1890 C.3   151  GLN151      0.0381
    142  CG        32.9250   42.0620   57.9230 C.3   151  GLN151      0.0905
    143  CD        31.7580   42.4120   58.8030 C.2   151  GLN151      0.2608
    144  OE1       30.6760   42.8580   58.3410 O.2   151  GLN151     -0.2717
    145  NE2       31.9400   42.1240   60.0850 N.am  151  GLN151     -0.0878
    146  N         31.4720   39.1250   54.5130 N.am  152  ASN152     -0.1974
    147  CA        31.4170   37.8240   53.8680 C.3   152  ASN152      0.1688
    148  C         31.3540   37.9620   52.3720 C.2   152  ASN152      0.2292
    149  O         31.0620   36.9990   51.6800 O.2   152  ASN152     -0.2864
    150  CB        30.2450   37.0220   54.4200 C.3   152  ASN152      0.1181
    151  CG        30.5500   36.5050   55.7860 C.2   152  ASN152      0.2629
    152  OD1       31.7150   36.4750   56.2280 O.2   152  ASN152     -0.2716
    153  ND2       29.5250   36.0440   56.4670 N.am  152  ASN152     -0.0877
    154  N         33.6140   38.9690   49.2970 N.3   154  LEU154     -0.1245
    155  CA        34.9680   39.2220   48.8430 C.3   154  LEU154      0.1561
    156  C         34.9440   39.9120   47.5220 C.2   154  LEU154      0.2260
    157  O         34.0090   39.7010   46.7370 O.2   154  LEU154     -0.2867
    158  CB        35.7690   37.9070   48.7580 C.3   154  LEU154      0.0270
    159  CG        35.7860   37.0240   50.0030 C.3   154  LEU154      0.0019
    160  CD1       36.5350   35.7660   49.7490 C.3   154  LEU154      0.0001
    161  CD2       36.3570   37.7610   51.2050 C.3   154  LEU154      0.0001
    162  N         31.6330   34.2490   50.5420 N.3   165  CYS165     -0.1221
    163  CA        32.4410   33.3430   51.3500 C.3   165  CYS165      0.1808
    164  C         31.7340   33.0860   52.6790 C.2   165  CYS165      0.2601
    165  O         30.6140   33.5690   52.8920 O.2   165  CYS165     -0.2717
    166  CB        33.8580   33.8680   51.5510 C.3   165  CYS165      0.0970
    167  SG        33.9760   35.2480   52.7050 S.3   165  CYS165     -0.0800
    168  N         32.4030   32.3460   53.5740 N.am  166  ASP166     -0.1973
    169  CA        31.9070   31.9650   54.8910 C.3   166  ASP166      0.1709
    170  C         30.6280   31.1470   54.9820 C.2   166  ASP166      0.2293
    171  O         29.6210   31.5950   55.5290 O.2   166  ASP166     -0.2864
    172  CB        31.8050   33.1470   55.8620 C.3   166  ASP166      0.1436
    173  CG        31.3980   32.7410   57.2820 C.2   166  ASP166      0.3671
    174  OD1       31.4260   31.5190   57.5910 O.co2 166  ASP166     -0.2456
    175  OD2       31.1140   33.6370   58.0890 O.co2 166  ASP166     -0.2456
@<TRIPOS>BOND
     1    91    90   ar
     2    92    90   ar
     3    90    89    1
     4    89    86    1
     5    96    95    2
     6   117   118    1
     7   117   116    1
     8   118   112    1
     9   110   109    1
    10    86    85    1
    11    86    87    1
    12   111   109    1
    13    64    63    1
    14    64    65    2
    15    62    63    1
    16    63    66    1
    17    95   105   am
    18    95    94    1
    19    93    87   am
    20    93    94    1
    21   157   156    2
    22   109   106    1
    23   106   105    1
    24   106   107    1
    25   116   113    1
    26    85    79   am
    27    87    88    2
    28   112   107   am
    29   112   113    1
    30    94    97    1
    31   100   102   ar
    32   100    98   ar
    33   156   155    1
    34    57    56    2
    35    97    98    1
    36   107   108    2
    37    66    67    1
    38    66    68    1
    39   113   114    1
    40    79    80    2
    41    79    78    1
    42   102   103   ar
    43    98    99   ar
    44   158   155    1
    45   158   159    1
    46    56    55    1
    47   155   154    1
    48    78    81    1
    49    78    77    1
    50   114   115    2
    51   103   104    1
    52   103   101   ar
    53    99   101   ar
    54   160   159    1
    55    81    82    1
    56    55    58    1
    57    55    54    1
    58   159   161    1
    59    31    32    1
    60    84    82    1
    61    58    59    1
    62   162   163    1
    63   119   120    1
    64   122   121    2
    65    82    83    1
    66   121   120    1
    67   120   123    1
    68    59    60    1
    69    60    61    1
    70   163   166    1
    71   163   164    1
    72    35    32    1
    73    32    33    1
    74    34    33    2
    75   166   167    1
    76   149   148    2
    77   148   147    1
    78   123   125    1
    79   123   124    1
    80   164   165    2
    81   164   168   am
    82   128   129    2
    83   128   127    1
    84    71    72    2
    85    71    70    1
    86   136   134    1
    87    48    47    2
    88   168   169    1
    89   130   127    1
    90   130   131    1
    91   134   135    1
    92   134   133    2
    93     8     6    1
    94    70    73    1
    95    70    69    1
    96    73    74    1
    97   127   126    1
    98   147   150    1
    99   147   146    1
   100   132   133    1
   101   132   131    1
   102    76    74    1
   103   150   151    1
   104   146   139   am
   105    47    46    1
   106    74    75    1
   107   169   170    1
   108   169   172    1
   109     7     5    1
   110   140   139    2
   111   170   171    2
   112   139   138    1
   113     6     5    1
   114    36    37    1
   115   137   138    1
   116    29    28    1
   117     5     2    1
   118    52    51   ar
   119    50    51    1
   120    50    49    1
   121   138   141    1
   122   151   152    2
   123   151   153   am
   124    46    49    1
   125    46    45    1
   126   172   173    1
   127    40    37    1
   128    40    41    1
   129    51    53   ar
   130    37    38    1
   131    42    41    1
   132    42    43    1
   133    28    30    1
   134    28    25    1
   135    39    38    2
   136     2     3    1
   137     2     1    1
   138   141   142    1
   139   173   174   ar
   140   173   175   ar
   141    26    25    1
   142    26    27    2
   143     4     3    2
   144    44    43    1
   145    25    24    1
   146     3     9   am
   147   142   143    1
   148   144   143    2
   149     9    10    1
   150   143   145   am
   151    10    11    1
   152    21    23   ar
   153    21    19   ar
   154    23    22   ar
   155    12    11    2
   156    19    18   ar
   157    22    20   ar
   158    18    20   ar
   159    18    17    1
   160    17    14    1
   161    14    15    1
   162    14    13    1
   163    15    16    2
