@<TRIPOS>MOLECULE
tmp/3l2bA00.pdb
 136 133 0 0 0
SMALL
GASTEIGER

@<TRIPOS>ATOM
      1  N         27.1150   15.1090   -0.3670 N.3    36  LYS36      -0.1231
      2  CA        25.8820   14.9810    0.4220 C.3    36  LYS36       0.1693
      3  C         24.7010   14.9390   -0.5290 C.2    36  LYS36       0.2592
      4  O         23.6070   14.4760   -0.2010 O.2    36  LYS36      -0.2718
      5  CB        25.7280   16.1580    1.3980 C.3    36  LYS36       0.0285
      6  CG        27.0080   16.4530    2.2040 C.3    36  LYS36       0.0035
      7  CD        26.8600   17.5940    3.2360 C.3    36  LYS36       0.0206
      8  CE        26.7040   18.9580    2.5770 C.3    36  LYS36       0.1093
      9  NZ        26.4120   20.0240    3.5650 N.3    36  LYS36      -0.1314
     10  N         24.9330   15.4480   -1.7270 N.am   37  SER37      -0.1952
     11  CA        23.9660   15.3130   -2.8150 C.3    37  SER37       0.1924
     12  C         24.6700   15.2360   -4.1480 C.2    37  SER37       0.2314
     13  O         25.8810   15.4920   -4.2620 O.2    37  SER37      -0.2863
     14  CB        22.9900   16.4620   -2.8210 C.3    37  SER37       0.2116
     15  OG        23.6770   17.6280   -3.1900 O.3    37  SER37      -0.2180
     16  N         17.7710   15.6900   -8.2880 N.3    50  MET50      -0.1245
     17  CA        18.8670   15.6010   -7.3240 C.3    50  MET50       0.1570
     18  C         18.6380   14.5180   -6.2500 C.2    50  MET50       0.2261
     19  O         17.5290   14.3420   -5.7400 O.2    50  MET50      -0.2867
     20  CB        19.0690   16.9530   -6.6500 C.3    50  MET50       0.0387
     21  CG        20.2350   16.9780   -5.6740 C.3    50  MET50       0.0595
     22  SD        20.1010   18.3690   -4.5060 S.3    50  MET50      -0.1393
     23  CE        21.3330   19.5060   -5.1670 C.3    50  MET50       0.0692
     24  N         19.8370   13.0980   -2.5470 N.3    52  SER52      -0.1202
     25  CA        20.5190   13.3040   -1.2520 C.3    52  SER52       0.2020
     26  C         20.2630   12.1380   -0.3170 C.2    52  SER52       0.2619
     27  O         19.4070   11.2740   -0.5780 O.2    52  SER52      -0.2717
     28  CB        19.9560   14.5180   -0.5700 C.3    52  SER52       0.2103
     29  OG        18.7430   14.1260    0.0470 O.3    52  SER52      -0.2182
     30  N         20.9270   12.1610    0.8300 N.am   53  THR53      -0.1938
     31  CA        20.6390   11.1390    1.8500 C.3    53  THR53       0.2028
     32  C         19.2660   11.3330    2.4950 C.2    53  THR53       0.2643
     33  O         18.7600   10.4040    3.0760 O.2    53  THR53      -0.2714
     34  CB        21.7030   11.0330    2.9420 C.3    53  THR53       0.1808
     35  OG1       21.7190   12.2320    3.7100 O.3    53  THR53      -0.2208
     36  CG2       23.0860   10.7680    2.3310 C.3    53  THR53       0.0379
     37  N         18.6630   12.5110    2.3540 N.am   54  SER54      -0.1935
     38  CA        17.2770   12.7280    2.7850 C.3    54  SER54       0.2055
     39  C         16.2580   11.9540    1.9400 C.2    54  SER54       0.2643
     40  O         15.3170   11.3710    2.4710 O.2    54  SER54      -0.2714
     41  CB        16.9340   14.2080    2.7760 C.3    54  SER54       0.2130
     42  OG        16.7470   14.7060    1.4600 O.3    54  SER54      -0.2179
     43  N         16.4630   11.9190    0.6230 N.am   55  ASN55      -0.1971
     44  CA        15.6320   11.0790   -0.2860 C.3    55  ASN55       0.1688
     45  C         15.7910    9.5920    0.0220 C.2    55  ASN55       0.2292
     46  O         14.8500    8.8040    0.0190 O.2    55  ASN55      -0.2864
     47  CB        16.0840   11.2040   -1.7740 C.3    55  ASN55       0.1181
     48  CG        16.0860   12.6110   -2.3050 C.2    55  ASN55       0.2629
     49  OD1       17.0610   13.0050   -2.9420 O.2    55  ASN55      -0.2716
     50  ND2       15.0370   13.3820   -2.0480 N.am   55  ASN55      -0.0877
     51  N         14.7800   14.0980   -5.5480 N.3   189  THR189     -0.1218
     52  CA        13.9980   15.3400   -5.5810 C.3   189  THR189      0.1862
     53  C         13.8400   15.7910   -7.0420 C.2   189  THR189      0.2287
     54  O         14.8260   15.9830   -7.7350 O.2   189  THR189     -0.2866
     55  CB        14.7000   16.4820   -4.7500 C.3   189  THR189      0.1770
     56  OG1       14.9910   16.0210   -3.4150 O.3   189  THR189     -0.2211
     57  CG2       13.8210   17.7500   -4.6940 C.3   189  THR189      0.0375
     58  N         10.3780   21.2870   -7.3690 N.3   192  ASN192     -0.1225
     59  CA        10.9150   22.3530   -6.5170 C.3   192  ASN192      0.1785
     60  C         12.4240   22.1890   -6.2300 C.2   192  ASN192      0.2597
     61  O         12.9500   22.6420   -5.2140 O.2   192  ASN192     -0.2718
     62  CB        10.1000   22.4480   -5.2140 C.3   192  ASN192      0.1169
     63  CG         8.5830   22.2160   -5.4440 C.2   192  ASN192      0.2627
     64  OD1        8.0290   21.2020   -5.0170 O.2   192  ASN192     -0.2716
     65  ND2        7.9360   23.1380   -6.1430 N.am  192  ASN192     -0.0877
     66  N         13.1010   21.5140   -7.1430 N.am  193  LEU193     -0.1966
     67  CA        14.5580   21.5110   -7.1590 C.3   193  LEU193      0.1728
     68  C         14.9400   22.9110   -7.5480 C.2   193  LEU193      0.2616
     69  O         14.3720   23.4780   -8.4740 O.2   193  LEU193     -0.2715
     70  CB        15.1170   20.4870   -8.1570 C.3   193  LEU193      0.0311
     71  CG        16.6350   20.3900   -8.2800 C.3   193  LEU193      0.0022
     72  CD1       17.3540   20.2660   -6.9290 C.3   193  LEU193      0.0001
     73  CD2       16.9960   19.2200   -9.1480 C.3   193  LEU193      0.0001
     74  N         15.8480   23.4960   -6.7930 N.am  194  VAL194     -0.1977
     75  CA        16.3070   24.8430   -7.0880 C.3   194  VAL194      0.1596
     76  C         17.6960   24.7730   -7.6980 C.2   194  VAL194      0.2287
     77  O         18.6510   24.3330   -7.0660 O.2   194  VAL194     -0.2864
     78  CB        16.3040   25.7250   -5.8220 C.3   194  VAL194      0.0276
     79  CG1       16.7580   27.1340   -6.1520 C.3   194  VAL194      0.0022
     80  CG2       14.9020   25.7240   -5.1710 C.3   194  VAL194      0.0022
     81  N         17.9180   28.6240    1.6110 N.3   213  ARG213     -0.1231
     82  CA        18.9270   28.0830    2.5570 C.3   213  ARG213      0.1694
     83  C         19.3980   26.6140    2.3660 C.2   213  ARG213      0.2592
     84  O         19.8030   25.9640    3.3260 O.2   213  ARG213     -0.2718
     85  CB        18.4480   28.2730    4.0080 C.3   213  ARG213      0.0321
     86  CG        18.5260   29.7180    4.5320 C.3   213  ARG213      0.0489
     87  CD        18.0930   29.7810    6.0040 C.3   213  ARG213      0.2205
     88  NE        18.1380   31.1360    6.5600 N.pl3 213  ARG213     -0.0865
     89  CZ        17.8750   31.4380    7.8340 C.cat 213  ARG213      0.5346
     90  NH1       17.5490   30.4840    8.7030 N.pl3 213  ARG213      0.1354
     91  NH2       17.9350   32.7010    8.2430 N.pl3 213  ARG213      0.1354
     92  N         19.3750   26.1010    1.1340 N.am  214  TYR214     -0.1962
     93  CA        20.0910   24.8410    0.8400 C.3   214  TYR214      0.1771
     94  C         21.5610   25.1420    0.8240 C.2   214  TYR214      0.2620
     95  O         21.9680   26.2700    0.5650 O.2   214  TYR214     -0.2715
     96  CB        19.6820   24.2090   -0.4970 C.3   214  TYR214      0.0574
     97  CG        18.2180   23.8740   -0.5820 C.ar  214  TYR214     -0.0198
     98  CD1       17.6310   22.9690    0.3010 C.ar  214  TYR214     -0.0009
     99  CD2       17.4150   24.4700   -1.5340 C.ar  214  TYR214     -0.0009
    100  CE1       16.2670   22.6630    0.2200 C.ar  214  TYR214      0.0417
    101  CE2       16.0620   24.1780   -1.6210 C.ar  214  TYR214      0.0417
    102  CZ        15.4900   23.2830   -0.7360 C.ar  214  TYR214      0.1957
    103  OH        14.1510   23.0010   -0.8530 O.3   214  TYR214     -0.2866
    104  N         22.3700   24.1290    1.0840 N.am  215  SER215     -0.1936
    105  CA        23.8090   24.3330    1.1610 C.3   215  SER215      0.2055
    106  C         24.5130   24.2640   -0.2210 C.2   215  SER215      0.2643
    107  O         25.5700   24.8500   -0.4140 O.2   215  SER215     -0.2714
    108  CB        24.4190   23.3580    2.1650 C.3   215  SER215      0.2130
    109  OG        24.5790   22.0940    1.5890 O.3   215  SER215     -0.2179
    110  N         23.8880   23.6020   -1.1880 N.am  216  ASN216     -0.1957
    111  CA        24.4450   23.4860   -2.5490 C.3   216  ASN216      0.1819
    112  C         23.3620   23.5100   -3.6360 C.2   216  ASN216      0.2621
    113  O         22.2430   23.0160   -3.4370 O.2   216  ASN216     -0.2715
    114  CB        25.2670   22.2020   -2.7050 C.3   216  ASN216      0.1195
    115  CG        26.5050   22.1830   -1.8440 C.2   216  ASN216      0.2630
    116  OD1       27.4530   22.9630   -2.0540 O.2   216  ASN216     -0.2716
    117  ND2       26.5090   21.2920   -0.8430 N.am  216  ASN216     -0.0877
    118  N         23.7120   24.0970   -4.7720 N.am  217  TYR217     -0.1960
    119  CA        22.7850   24.2840   -5.8900 C.3   217  TYR217      0.1756
    120  C         23.3440   23.7920   -7.2410 C.2   217  TYR217      0.2461
    121  O         24.4440   24.1460   -7.6440 O.2   217  TYR217     -0.2730
    122  CB        22.3930   25.7620   -5.9900 C.3   217  TYR217      0.0574
    123  CG        21.6790   26.2960   -4.7630 C.ar  217  TYR217     -0.0198
    124  CD1       20.3010   26.4450   -4.7430 C.ar  217  TYR217     -0.0009
    125  CD2       22.3960   26.6640   -3.6270 C.ar  217  TYR217     -0.0009
    126  CE1       19.6580   26.9440   -3.6290 C.ar  217  TYR217      0.0417
    127  CE2       21.7620   27.1500   -2.5010 C.ar  217  TYR217      0.0417
    128  CZ        20.3920   27.2940   -2.5020 C.ar  217  TYR217      0.1957
    129  OH        19.7700   27.7690   -1.3660 O.3   217  TYR217     -0.2866
    130  N         22.5860   22.9580   -7.9470 N.am  218  PRO218     -0.2727
    131  CA        23.1470   22.5470   -9.2310 C.3   218  PRO218      0.1402
    132  C         23.1810   23.6930  -10.2230 C.2   218  PRO218      0.2269
    133  O         22.3190   24.5560  -10.2230 O.2   218  PRO218     -0.2865
    134  CB        22.2220   21.4200   -9.6830 C.3   218  PRO218      0.0296
    135  CG        21.0000   21.4900   -8.7630 C.3   218  PRO218      0.0237
    136  CD        21.4690   22.1030   -7.5090 C.3   218  PRO218      0.0939
@<TRIPOS>BOND
     1   133   132    2
     2   132   131    1
     3   134   131    1
     4   134   135    1
     5   131   130    1
     6    73    71    1
     7   135   136    1
     8    69    68    2
     9    16    17    1
    10    71    70    1
    11    71    72    1
    12    70    67    1
    13   130   136    1
    14   130   120   am
    15    54    53    2
    16    76    75    1
    17    76    77    2
    18   121   120    2
    19    68    67    1
    20    68    74   am
    21    58    59    1
    22    17    20    1
    23    17    18    1
    24   120   119    1
    25    67    66    1
    26    66    60   am
    27    75    74    1
    28    75    78    1
    29    53    52    1
    30    20    21    1
    31    59    60    1
    32    59    62    1
    33    18    19    2
    34    60    61    2
    35    79    78    1
    36    65    63   am
    37   122   119    1
    38   122   123    1
    39   119   118    1
    40    78    80    1
    41    21    22    1
    42    52    51    1
    43    52    55    1
    44    63    62    1
    45    63    64    2
    46    23    22    1
    47   118   112   am
    48   123   124   ar
    49   123   125   ar
    50    55    57    1
    51    55    56    1
    52   124   126   ar
    53    13    12    2
    54    12    11    1
    55   112   113    2
    56   112   111    1
    57   126   128   ar
    58   125   127   ar
    59    15    14    1
    60    49    48    2
    61    14    11    1
    62    11    10    1
    63   114   111    1
    64   114   115    1
    65   111   110    1
    66    24    25    1
    67   128   127   ar
    68   128   129    1
    69    48    50   am
    70    48    47    1
    71   116   115    2
    72   115   117   am
    73    47    44    1
    74    10     3   am
    75   101    99   ar
    76   101   102   ar
    77    99    97   ar
    78    25    28    1
    79    25    26    1
    80   110   106   am
    81   103   102    1
    82   102   100   ar
    83    97    96    1
    84    97    98   ar
    85    27    26    2
    86    28    29    1
    87     3     4    2
    88     3     2    1
    89    96    93    1
    90   107   106    2
    91     1     2    1
    92    26    30   am
    93    44    45    1
    94    44    43    1
    95   106   105    1
    96    46    45    2
    97   100    98   ar
    98     2     5    1
    99    95    94    2
   100    43    39   am
   101    94    93    1
   102    94   104   am
   103    30    31    1
   104    93    92    1
   105   104   105    1
   106    92    83   am
   107   105   108    1
   108     5     6    1
   109    42    41    1
   110   109   108    1
   111    81    82    1
   112    31    32    1
   113    31    34    1
   114    39    40    2
   115    39    38    1
   116     6     7    1
   117    36    34    1
   118    37    32   am
   119    37    38    1
   120    83    82    1
   121    83    84    2
   122    32    33    2
   123    82    85    1
   124     8     7    1
   125     8     9    1
   126    41    38    1
   127    34    35    1
   128    85    86    1
   129    86    87    1
   130    87    88    1
   131    88    89    2
   132    89    91    1
   133    89    90    1
