@<TRIPOS>MOLECULE
tmp/3l2kA00.pdb
 151 142 0 0 0
SMALL
GASTEIGER

@<TRIPOS>ATOM
      1  N         55.2250   16.3760   69.9980 N.3   118  ARG118     -0.1245
      2  CA        55.2820   15.0580   70.6230 C.3   118  ARG118      0.1563
      3  C         56.6390   14.8300   71.3020 C.2   118  ARG118      0.2260
      4  O         56.7380   14.3560   72.4680 O.2   118  ARG118     -0.2867
      5  CB        54.9810   13.9560   69.6470 C.3   118  ARG118      0.0307
      6  CG        55.0990   12.6170   70.3070 C.3   118  ARG118      0.0489
      7  CD        54.6120   11.5920   69.3620 C.3   118  ARG118      0.2205
      8  NE        55.0650   10.2180   69.5760 N.pl3 118  ARG118     -0.0865
      9  CZ        54.4760    9.2550   68.8820 C.cat 118  ARG118      0.5346
     10  NH1       53.4650    9.6280   68.1020 N.pl3 118  ARG118      0.1354
     11  NH2       54.8010    7.9690   68.9780 N.pl3 118  ARG118      0.1354
     12  N         61.7050   14.8940   75.1320 N.3   122  TYR122     -0.1241
     13  CA        62.8930   13.9850   75.0580 C.3   122  TYR122      0.1605
     14  C         63.7150   14.2950   73.8390 C.2   122  TYR122      0.2264
     15  O         64.7990   13.7430   73.7060 O.2   122  TYR122     -0.2867
     16  CB        62.5220   12.4880   74.9820 C.3   122  TYR122      0.0534
     17  CG        61.4460   12.1460   73.8780 C.ar  122  TYR122     -0.0201
     18  CD1       61.8000   11.6880   72.5910 C.ar  122  TYR122     -0.0009
     19  CD2       60.1070   12.3120   74.1230 C.ar  122  TYR122     -0.0009
     20  CE1       60.8480   11.3810   71.6600 C.ar  122  TYR122      0.0417
     21  CE2       59.1870   12.0190   73.2040 C.ar  122  TYR122      0.0417
     22  CZ        59.5520   11.5550   71.9940 C.ar  122  TYR122      0.1957
     23  OH        58.5410   11.2890   71.1230 O.3   122  TYR122     -0.2866
     24  N         67.0240   15.5870   75.3000 N.3   125  ARG125     -0.1245
     25  CA        67.3430   15.0950   76.6260 C.3   125  ARG125      0.1563
     26  C         68.6620   14.3940   76.5980 C.2   125  ARG125      0.2260
     27  O         68.8520   13.4710   75.8220 O.2   125  ARG125     -0.2867
     28  CB        66.2800   14.0890   76.9580 C.3   125  ARG125      0.0307
     29  CG        66.1770   13.7390   78.3510 C.3   125  ARG125      0.0489
     30  CD        66.7390   12.3630   78.5270 C.3   125  ARG125      0.2205
     31  NE        65.8700   11.2580   78.0800 N.pl3 125  ARG125     -0.0865
     32  CZ        66.1580    9.9960   78.3810 C.cat 125  ARG125      0.5346
     33  NH1       67.2760    9.7610   79.0580 N.pl3 125  ARG125      0.1354
     34  NH2       65.3760    8.9870   78.0130 N.pl3 125  ARG125      0.1354
     35  N         69.4290   10.5360   75.6000 N.3   128  ARG128     -0.1231
     36  CA        68.3650    9.9560   74.8460 C.3   128  ARG128      0.1679
     37  C         68.9290    8.9650   73.8490 C.2   128  ARG128      0.2434
     38  O         69.9320    9.1720   73.1940 O.2   128  ARG128     -0.2733
     39  CB        67.6290   11.0390   74.0570 C.3   128  ARG128      0.0321
     40  CG        66.8210   10.4710   72.8380 C.3   128  ARG128      0.0489
     41  CD        66.1350   11.5370   72.0040 C.3   128  ARG128      0.2205
     42  NE        66.7240   12.1070   70.7480 N.pl3 128  ARG128     -0.0865
     43  CZ        67.6220   11.5570   69.9100 C.cat 128  ARG128      0.5346
     44  NH1       68.1420   10.3660   70.1450 N.pl3 128  ARG128      0.1354
     45  NH2       68.0140   12.1980   68.8080 N.pl3 128  ARG128      0.1354
     46  N         68.2170    7.8930   73.6380 N.am  129  PRO129     -0.2729
     47  CA        68.6480    6.8070   72.7590 C.3   129  PRO129      0.1401
     48  C         68.6460    7.1450   71.2600 C.2   129  PRO129      0.2269
     49  O         67.8820    8.0090   70.8290 O.2   129  PRO129     -0.2865
     50  CB        67.5450    5.7620   72.9980 C.3   129  PRO129      0.0296
     51  CG        66.9210    6.1270   74.2720 C.3   129  PRO129      0.0237
     52  CD        66.8920    7.6310   74.2220 C.3   129  PRO129      0.0939
     53  N         58.6820   11.3360   62.9620 N.3   151  ARG151     -0.1245
     54  CA        59.3530   11.1010   64.2300 C.3   151  ARG151      0.1563
     55  C         60.6550   10.3470   63.9170 C.2   151  ARG151      0.2260
     56  O         61.6990   10.6780   64.4260 O.2   151  ARG151     -0.2867
     57  CB        58.4150   10.3070   65.1340 C.3   151  ARG151      0.0307
     58  CG        58.9030    9.9420   66.5430 C.3   151  ARG151      0.0489
     59  CD        57.8750    9.0390   67.1900 C.3   151  ARG151      0.2205
     60  NE        58.2270    8.7320   68.5550 N.pl3 151  ARG151     -0.0865
     61  CZ        58.3870    7.4960   69.0540 C.cat 151  ARG151      0.5346
     62  NH1       58.1870    6.3970   68.2950 N.pl3 151  ARG151      0.1354
     63  NH2       58.7230    7.3520   70.3460 N.pl3 151  ARG151      0.1354
     64  N         64.9900   10.7300   65.2970 N.3   155  LEU155     -0.1245
     65  CA        65.6190    9.9050   66.3250 C.3   155  LEU155      0.1561
     66  C         66.9010    9.2270   65.8130 C.2   155  LEU155      0.2260
     67  O         67.4380    8.2850   66.4740 O.2   155  LEU155     -0.2867
     68  CB        64.6590    8.8490   66.8440 C.3   155  LEU155      0.0270
     69  CG        63.4540    9.3840   67.6050 C.3   155  LEU155      0.0019
     70  CD1       62.3820    8.3330   67.5440 C.3   155  LEU155      0.0001
     71  CD2       63.7700    9.8240   69.1020 C.3   155  LEU155      0.0001
     72  N         63.6040    1.1610   67.9560 N.3   203  PHE203     -0.1241
     73  CA        62.2610    1.7620   68.2440 C.3   203  PHE203      0.1605
     74  C         61.1280    1.0130   67.5150 C.2   203  PHE203      0.2264
     75  O         61.1840    0.8810   66.2630 O.2   203  PHE203     -0.2867
     76  CB        62.2150    3.1970   67.7380 C.3   203  PHE203      0.0534
     77  CG        63.0590    4.0840   68.4850 C.ar  203  PHE203     -0.0203
     78  CD1       62.7530    4.4000   69.7810 C.ar  203  PHE203     -0.0042
     79  CD2       64.1930    4.6120   67.9260 C.ar  203  PHE203     -0.0042
     80  CE1       63.6090    5.2810   70.5340 C.ar  203  PHE203     -0.0003
     81  CE2       65.0080    5.4500   68.6640 C.ar  203  PHE203     -0.0003
     82  CZ        64.7320    5.7710   69.9660 C.ar  203  PHE203     -0.0000
     83  N         62.5090    1.6390   73.2060 N.3   230  GLN230     -0.1245
     84  CA        61.2180    2.2480   73.4650 C.3   230  GLN230      0.1566
     85  C         60.2400    1.7350   72.4760 C.2   230  GLN230      0.2260
     86  O         60.5180    1.7510   71.2460 O.2   230  GLN230     -0.2867
     87  CB        61.2990    3.7600   73.3190 C.3   230  GLN230      0.0367
     88  CG        60.0070    4.5920   73.5490 C.3   230  GLN230      0.0905
     89  CD        59.0030    4.6500   72.3790 C.2   230  GLN230      0.2608
     90  OE1       57.8100    4.6540   72.5950 O.2   230  GLN230     -0.2717
     91  NE2       59.4760    4.7190   71.1720 N.am  230  GLN230     -0.0878
     92  N         56.0050    1.9120   71.2360 N.3   232  THR232     -0.1218
     93  CA        54.7600    2.6870   71.3000 C.3   232  THR232      0.1862
     94  C         53.6120    1.7300   70.9630 C.2   232  THR232      0.2287
     95  O         53.6480    1.0450   69.9100 O.2   232  THR232     -0.2866
     96  CB        54.8310    3.8290   70.3320 C.3   232  THR232      0.1770
     97  OG1       56.1760    4.2700   70.2570 O.3   232  THR232     -0.2211
     98  CG2       54.1210    4.9750   70.8360 C.3   232  THR232      0.0375
     99  N         61.5890    1.4980   77.2740 N.3   255  GLU255     -0.1245
    100  CA        60.4690    2.2350   77.8690 C.3   255  GLU255      0.1567
    101  C         59.2400    1.9700   77.0390 C.2   255  GLU255      0.2260
    102  O         59.4000    1.4840   75.9580 O.2   255  GLU255     -0.2867
    103  CB        60.7670    3.7340   77.9420 C.3   255  GLU255      0.0388
    104  CG        61.8630    4.1020   78.9300 C.3   255  GLU255      0.1160
    105  CD        62.1780    5.5860   78.9210 C.2   255  GLU255      0.3649
    106  OE1       61.6850    6.2950   78.0200 O.co2 255  GLU255     -0.2457
    107  OE2       62.9230    6.0420   79.8150 O.co2 255  GLU255     -0.2457
    108  N         55.0450    3.5200   75.6920 N.3   257  SER257     -0.1202
    109  CA        54.0180    4.4710   75.7060 C.3   257  SER257      0.2020
    110  C         53.0470    4.0700   74.7460 C.2   257  SER257      0.2618
    111  O         53.2530    3.1290   73.9920 O.2   257  SER257     -0.2717
    112  CB        54.5010    5.8370   75.2960 C.3   257  SER257      0.2103
    113  OG        55.3190    5.8420   74.1450 O.3   257  SER257     -0.2182
    114  N         51.9910    4.8480   74.7370 N.am  258  ALA258     -0.1979
    115  CA        50.8760    4.5920   73.8910 C.3   258  ALA258      0.1597
    116  C         50.5520    5.7730   72.9940 C.2   258  ALA258      0.2287
    117  O         50.9150    6.9290   73.2630 O.2   258  ALA258     -0.2864
    118  CB        49.7450    4.2670   74.7020 C.3   258  ALA258      0.0319
    119  N         49.6470   11.8070   72.7010 N.3   270  ARG270     -0.1231
    120  CA        50.5920   10.8810   73.3350 C.3   270  ARG270      0.1694
    121  C         50.4700   10.6890   74.7920 C.2   270  ARG270      0.2593
    122  O         50.0930   11.6460   75.5300 O.2   270  ARG270     -0.2718
    123  CB        52.0810   11.0880   73.0090 C.3   270  ARG270      0.0321
    124  CG        52.6120   12.4340   73.2920 C.3   270  ARG270      0.0489
    125  CD        53.9310   12.5340   74.0690 C.3   270  ARG270      0.2205
    126  NE        53.5910   13.5550   75.0510 N.pl3 270  ARG270     -0.0865
    127  CZ        53.6640   14.8590   74.8330 C.cat 270  ARG270      0.5346
    128  NH1       54.2000   15.3720   73.7010 N.pl3 270  ARG270      0.1354
    129  NH2       53.2280   15.6560   75.7810 N.pl3 270  ARG270      0.1354
    130  N         50.8340    9.4480   75.2020 N.am  271  SER271     -0.1938
    131  CA        50.7250    9.0460   76.6140 C.3   271  SER271      0.2055
    132  C         51.9400    9.5310   77.4360 C.2   271  SER271      0.2643
    133  O         53.0160    9.9310   76.8740 O.2   271  SER271     -0.2714
    134  CB        50.6150    7.5620   76.6860 C.3   271  SER271      0.2130
    135  OG        51.9290    7.0740   76.8940 O.3   271  SER271     -0.2179
    136  N         51.8100    9.5320   78.7540 N.am  272  LEU272     -0.1963
    137  CA        53.0290    9.5530   79.5510 C.3   272  LEU272      0.1728
    138  C         53.7680    8.1620   79.4960 C.2   272  LEU272      0.2616
    139  O         53.2080    7.1640   78.9110 O.2   272  LEU272     -0.2715
    140  CB        52.7490    9.9390   80.9560 C.3   272  LEU272      0.0311
    141  CG        52.0870   11.2220   81.3620 C.3   272  LEU272      0.0022
    142  CD1       52.1740   11.1940   82.9310 C.3   272  LEU272      0.0001
    143  CD2       52.7830   12.4140   80.6360 C.3   272  LEU272      0.0001
    144  N         55.0270    8.1160   79.9850 N.am  273  LEU273     -0.1977
    145  CA        55.7290    6.8430   80.0120 C.3   273  LEU273      0.1596
    146  C         54.8630    5.8810   80.8930 C.2   273  LEU273      0.2287
    147  O         54.5120    6.1810   82.0340 O.2   273  LEU273     -0.2864
    148  CB        57.1020    7.0210   80.6100 C.3   273  LEU273      0.0297
    149  CG        58.3380    6.8820   79.7670 C.3   273  LEU273      0.0022
    150  CD1       57.9120    6.5340   78.3440 C.3   273  LEU273      0.0001
    151  CD2       59.2790    8.0960   79.8320 C.3   273  LEU273      0.0001
@<TRIPOS>BOND
     1    53    54    1
     2    55    54    1
     3    55    56    2
     4    54    57    1
     5    57    58    1
     6    64    65    1
     7    66    65    1
     8    66    67    2
     9    75    74    2
    10    65    68    1
    11    58    59    1
    12    68    69    1
    13    59    60    1
    14    74    73    1
    15    70    69    1
    16    69    71    1
    17    76    73    1
    18    76    77    1
    19    79    77   ar
    20    79    81   ar
    21    72    73    1
    22    10     9    1
    23    62    61    1
    24    77    78   ar
    25    60    61    2
    26    81    82   ar
    27    45    43    1
    28     9    11    1
    29     9     8    2
    30    61    63    1
    31     7     8    1
    32     7     6    1
    33     5     6    1
    34     5     2    1
    35    78    80   ar
    36    43    44    1
    37    43    42    2
    38    95    94    2
    39    82    80   ar
    40     1     2    1
    41    97    96    1
    42    96    98    1
    43    96    93    1
    44     2     3    1
    45    42    41    1
    46    49    48    2
    47    94    93    1
    48    23    22    1
    49    91    89   am
    50    92    93    1
    51    86    85    2
    52    48    47    1
    53     3     4    2
    54    20    22   ar
    55    20    18   ar
    56    22    21   ar
    57    41    40    1
    58    89    90    2
    59    89    88    1
    60    85    84    1
    61    18    17   ar
    62   119   120    1
    63    47    50    1
    64    47    46    1
    65    40    39    1
    66   116   117    2
    67   116   115    1
    68    50    51    1
    69   123   124    1
    70   123   120    1
    71    38    37    2
    72    21    19   ar
    73    83    84    1
    74   124   125    1
    75    87    84    1
    76    87    88    1
    77   120   121    1
    78    46    37   am
    79    46    52    1
    80   128   127    1
    81    15    14    2
    82    14    13    1
    83    37    36    1
    84    17    19   ar
    85    17    16    1
    86   115   118    1
    87   115   114    1
    88   111   110    2
    89    39    36    1
    90   125   126    1
    91   113   112    1
    92    52    51    1
    93   114   110   am
    94   110   109    1
    95   121   130   am
    96   121   122    2
    97   127   126    2
    98   127   129    1
    99    36    35    1
   100    16    13    1
   101    13    12    1
   102   130   131    1
   103   112   109    1
   104    24    25    1
   105   108   109    1
   106    27    26    2
   107   102   101    2
   108    26    25    1
   109   131   134    1
   110   131   132    1
   111    25    28    1
   112   134   135    1
   113   133   132    2
   114    28    29    1
   115   101   100    1
   116    99   100    1
   117   132   136   am
   118   100   103    1
   119   103   104    1
   120    34    32    1
   121   106   105   ar
   122    31    32    2
   123    31    30    1
   124   150   149    1
   125    29    30    1
   126    32    33    1
   127   136   137    1
   128   139   138    2
   129   105   104    1
   130   105   107   ar
   131   138   137    1
   132   138   144   am
   133   137   140    1
   134   149   151    1
   135   149   148    1
   136   144   145    1
   137   145   148    1
   138   145   146    1
   139   143   141    1
   140   146   147    2
   141   140   141    1
   142   141   142    1
