@<TRIPOS>MOLECULE
tmp/3l2lA01.pdb
 226 219 0 0 0
SMALL
GASTEIGER

@<TRIPOS>ATOM
      1  N         49.3890   40.4100   62.7330 N.3    50  VAL50      -0.1245
      2  CA        48.9100   39.7010   63.8920 C.3    50  VAL50       0.1561
      3  C         49.9760   38.7310   64.3810 C.2    50  VAL50       0.2260
      4  O         50.3780   37.8150   63.6540 O.2    50  VAL50      -0.2867
      5  CB        47.6190   38.9190   63.5340 C.3    50  VAL50       0.0252
      6  CG1       47.1550   38.0320   64.6870 C.3    50  VAL50       0.0019
      7  CG2       46.5140   39.8720   63.1560 C.3    50  VAL50       0.0019
      8  N         49.5510   37.0960   67.4580 N.3    52  ASN52      -0.1240
      9  CA        48.8640   36.0660   68.2250 C.3    52  ASN52       0.1653
     10  C         47.4760   35.7800   67.6710 C.2    52  ASN52       0.2266
     11  O         46.5700   36.5970   67.8140 O.2    52  ASN52      -0.2867
     12  CB        48.7150   36.5080   69.6720 C.3    52  ASN52       0.1155
     13  CG        47.8630   35.5360   70.5010 C.2    52  ASN52       0.2627
     14  OD1       47.8990   34.3090   70.3030 O.2    52  ASN52      -0.2716
     15  ND2       47.1040   36.0830   71.4390 N.am   52  ASN52      -0.0877
     16  N         46.2010   33.5690   58.1000 N.3    57  TRP57      -0.1227
     17  CA        45.7620   34.0090   56.7910 C.3    57  TRP57       0.1737
     18  C         44.8510   35.2240   56.9290 C.2    57  TRP57       0.2595
     19  O         44.8820   36.1250   56.1030 O.2    57  TRP57      -0.2718
     20  CB        45.0530   32.8740   56.0380 C.3    57  TRP57       0.0564
     21  CG        43.8400   32.3290   56.6970 C.ar   57  TRP57       0.0003
     22  CD1       43.7910   31.3130   57.5690 C.ar   57  TRP57       0.0946
     23  CD2       42.4880   32.7930   56.5330 C.ar   57  TRP57       0.0152
     24  NE1       42.4970   31.0900   57.9760 N.ar   57  TRP57      -0.2442
     25  CE2       41.6800   32.0020   57.3570 C.ar   57  TRP57       0.0810
     26  CE3       41.8950   33.8120   55.7750 C.ar   57  TRP57       0.0012
     27  CZ2       40.2990   32.1730   57.4430 C.ar   57  TRP57       0.0191
     28  CZ3       40.5080   33.9730   55.8490 C.ar   57  TRP57       0.0001
     29  CH2       39.7330   33.1660   56.6800 C.ar   57  TRP57       0.0015
     30  N         44.0350   35.2310   57.9790 N.am   58  TRP58      -0.1976
     31  CA        43.0030   36.2440   58.1100 C.3    58  TRP58       0.1640
     32  C         43.4900   37.6340   58.4950 C.2    58  TRP58       0.2290
     33  O         42.6780   38.5740   58.4880 O.2    58  TRP58      -0.2864
     34  CB        41.8580   35.8250   59.0400 C.3    58  TRP58       0.0576
     35  CG        42.1830   35.1840   60.3130 C.ar   58  TRP58       0.0006
     36  CD1       42.0530   33.8560   60.6090 C.ar   58  TRP58       0.0946
     37  CD2       42.6210   35.8220   61.5220 C.ar   58  TRP58       0.0152
     38  NE1       42.4040   33.6280   61.9180 N.ar   58  TRP58      -0.2442
     39  CE2       42.7420   34.8210   62.5010 C.ar   58  TRP58       0.0810
     40  CE3       42.9280   37.1330   61.8640 C.ar   58  TRP58       0.0012
     41  CZ2       43.1550   35.0940   63.7960 C.ar   58  TRP58       0.0191
     42  CZ3       43.3430   37.4060   63.1650 C.ar   58  TRP58       0.0001
     43  CH2       43.4440   36.3970   64.1100 C.ar   58  TRP58       0.0015
     44  N         42.5950   40.3190   55.8900 N.3    61  TYR61      -0.1227
     45  CA        41.2470   40.8940   55.8660 C.3    61  TYR61       0.1736
     46  C         41.0840   42.0630   56.8810 C.2    61  TYR61       0.2595
     47  O         39.9750   42.5150   57.1710 O.2    61  TYR61      -0.2718
     48  CB        40.2070   39.7670   55.9840 C.3    61  TYR61       0.0548
     49  CG        40.2540   38.9390   54.7110 C.ar   61  TYR61      -0.0200
     50  CD1       41.1060   37.8520   54.6090 C.ar   61  TYR61      -0.0009
     51  CD2       39.5670   39.3230   53.5780 C.ar   61  TYR61      -0.0009
     52  CE1       41.2580   37.1610   53.4340 C.ar   61  TYR61       0.0417
     53  CE2       39.7070   38.6230   52.3750 C.ar   61  TYR61       0.0417
     54  CZ        40.5510   37.5460   52.3210 C.ar   61  TYR61       0.1957
     55  OH        40.7210   36.8200   51.1740 O.3    61  TYR61      -0.2866
     56  N         42.2200   42.5670   57.3750 N.am   62  GLN62      -0.1979
     57  CA        42.2620   43.7110   58.2670 C.3    62  GLN62       0.1601
     58  C         43.1600   44.8260   57.7280 C.2    62  GLN62       0.2287
     59  O         44.2950   44.9740   58.1560 O.2    62  GLN62      -0.2864
     60  CB        42.7240   43.2890   59.6670 C.3    62  GLN62       0.0394
     61  CG        41.7880   42.2960   60.2820 C.3    62  GLN62       0.0908
     62  CD        42.0490   42.0560   61.7500 C.2    62  GLN62       0.2608
     63  OE1       42.3730   42.9650   62.5340 O.2    62  GLN62      -0.2717
     64  NE2       41.8690   40.8120   62.1410 N.am   62  GLN62      -0.0878
     65  N         35.5910   47.5600   55.7220 N.3   100  HIS100     -0.1241
     66  CA        36.1710   47.7210   57.0280 C.3   100  HIS100      0.1621
     67  C         37.6800   47.9170   56.9900 C.2   100  HIS100      0.2264
     68  O         38.3510   47.6400   55.9720 O.2   100  HIS100     -0.2867
     69  CB        35.8130   46.4940   57.9040 C.3   100  HIS100      0.0745
     70  CG        36.2390   45.1760   57.3280 C.ar  100  HIS100      0.0817
     71  ND1       35.3570   44.3130   56.7080 N.ar  100  HIS100     -0.2268
     72  CD2       37.4580   44.5770   57.2680 C.ar  100  HIS100      0.1154
     73  CE1       36.0090   43.2360   56.3090 C.ar  100  HIS100      0.1986
     74  NE2       37.2900   43.3730   56.6240 N.ar  100  HIS100     -0.2212
     75  N         40.7760   45.4790   63.2600 N.3   103  GLY103     -0.1210
     76  CA        40.0570   45.3300   64.5220 C.3   103  GLY103      0.1956
     77  C         40.1880   46.5500   65.4130 C.2   103  GLY103      0.2613
     78  O         41.2770   47.1130   65.5440 O.2   103  GLY103     -0.2717
     79  N         39.0660   46.9470   66.0060 N.am  104  SER104     -0.1938
     80  CA        38.9800   48.1160   66.8920 C.3   104  SER104      0.2055
     81  C         39.8350   47.9550   68.1430 C.2   104  SER104      0.2644
     82  O         40.2150   48.9420   68.7450 O.2   104  SER104     -0.2714
     83  CB        37.5220   48.3770   67.3060 C.3   104  SER104      0.2130
     84  OG        36.9370   47.1970   67.8160 O.3   104  SER104     -0.2179
     85  N         40.1650   46.7110   68.4890 N.am  105  GLY105     -0.1939
     86  CA        40.9690   46.4130   69.6640 C.3   105  GLY105      0.2014
     87  C         42.4470   46.2980   69.4110 C.2   105  GLY105      0.2638
     88  O         43.1990   46.0300   70.3310 O.2   105  GLY105     -0.2714
     89  N         42.8800   46.4680   68.1690 N.am  106  ALA106     -0.1977
     90  CA        44.3060   46.3550   67.8780 C.3   106  ALA106      0.1597
     91  C         45.0280   47.5510   68.4620 C.2   106  ALA106      0.2287
     92  O         44.4690   48.6390   68.5910 O.2   106  ALA106     -0.2864
     93  CB        44.5670   46.2640   66.3950 C.3   106  ALA106      0.0319
     94  N         26.4540   46.5230   72.0090 N.3   144  SER144     -0.1217
     95  CA        27.8400   46.0510   71.9380 C.3   144  SER144      0.1889
     96  C         28.6140   46.7370   70.8360 C.2   144  SER144      0.2288
     97  O         29.8310   46.6490   70.8060 O.2   144  SER144     -0.2866
     98  CB        27.8950   44.5300   71.6830 C.3   144  SER144      0.2089
     99  OG        27.5070   44.1960   70.3400 O.3   144  SER144     -0.2183
    100  N         28.5550   45.5650   67.8550 N.3   146  GLY146     -0.1210
    101  CA        28.6970   44.5120   66.8690 C.3   146  GLY146      0.1956
    102  C         27.3570   44.0060   66.3720 C.2   146  GLY146      0.2611
    103  O         26.3110   44.5530   66.6930 O.2   146  GLY146     -0.2717
    104  N         27.4110   42.9440   65.5810 N.am  147  ILE147     -0.1979
    105  CA        26.2350   42.3640   64.9880 C.3   147  ILE147      0.1595
    106  C         25.6820   41.3520   65.9630 C.2   147  ILE147      0.2287
    107  O         26.2830   40.3060   66.2080 O.2   147  ILE147     -0.2864
    108  CB        26.5750   41.6670   63.6540 C.3   147  ILE147      0.0276
    109  CG1       27.2940   42.6460   62.7170 C.3   147  ILE147      0.0022
    110  CG2       25.3140   41.1680   62.9940 C.3   147  ILE147      0.0022
    111  CD1       27.7580   42.0180   61.4360 C.3   147  ILE147      0.0001
    112  N         29.7520   46.4590   63.5970 N.3   160  GLN160     -0.1231
    113  CA        31.0630   45.8340   63.4030 C.3   160  GLN160      0.1698
    114  C         31.0160   44.2980   63.2370 C.2   160  GLN160      0.2592
    115  O         30.5480   43.5500   64.1320 O.2   160  GLN160     -0.2718
    116  CB        32.0110   46.1980   64.5360 C.3   160  GLN160      0.0381
    117  CG        32.5060   47.6490   64.5790 C.3   160  GLN160      0.0905
    118  CD        33.2990   47.9340   65.8630 C.2   160  GLN160      0.2608
    119  OE1       33.5530   47.0330   66.6630 O.2   160  GLN160     -0.2717
    120  NE2       33.6640   49.1880   66.0650 N.am  160  GLN160     -0.0878
    121  N         31.5200   43.8410   62.0860 N.am  161  LEU161     -0.1966
    122  CA        31.7390   42.4130   61.8100 C.3   161  LEU161      0.1728
    123  C         32.9790   41.9470   62.5600 C.2   161  LEU161      0.2616
    124  O         34.0560   42.4580   62.3080 O.2   161  LEU161     -0.2715
    125  CB        31.9480   42.1880   60.3220 C.3   161  LEU161      0.0311
    126  CG        32.3700   40.8120   59.8120 C.3   161  LEU161      0.0022
    127  CD1       31.3220   39.7210   60.1370 C.3   161  LEU161      0.0001
    128  CD2       32.5970   40.8910   58.3000 C.3   161  LEU161      0.0001
    129  N         32.8090   40.9640   63.4610 N.am  162  VAL162     -0.1963
    130  CA        33.8710   40.4930   64.3760 C.3   162  VAL162      0.1727
    131  C         34.8530   41.5750   64.9040 C.2   162  VAL162      0.2617
    132  O         36.0670   41.3810   64.9140 O.2   162  VAL162     -0.2715
    133  CB        34.6620   39.2680   63.7860 C.3   162  VAL162      0.0290
    134  CG1       33.7120   38.1250   63.5670 C.3   162  VAL162      0.0023
    135  CG2       35.3880   39.6240   62.4860 C.3   162  VAL162      0.0023
    136  N         34.3020   42.7090   65.3380 N.am  163  GLY163     -0.1940
    137  CA        35.0980   43.8100   65.8930 C.3   163  GLY163      0.2014
    138  C         35.8750   44.6660   64.9120 C.2   163  GLY163      0.2638
    139  O         36.6220   45.5480   65.3280 O.2   163  GLY163     -0.2714
    140  N         35.6930   44.4300   63.6140 N.am  164  LEU164     -0.1977
    141  CA        36.4130   45.2160   62.6070 C.3   164  LEU164      0.1596
    142  C         35.7720   46.5850   62.4240 C.2   164  LEU164      0.2287
    143  O         34.5300   46.6800   62.3440 O.2   164  LEU164     -0.2864
    144  CB        36.4130   44.4690   61.2720 C.3   164  LEU164      0.0297
    145  CG        37.1110   43.1040   61.3730 C.3   164  LEU164      0.0022
    146  CD1       36.8950   42.2370   60.1470 C.3   164  LEU164      0.0001
    147  CD2       38.6070   43.3210   61.6340 C.3   164  LEU164      0.0001
    148  N         36.8460   40.8770   43.4090 N.3   194  ARG194     -0.1245
    149  CA        35.9740   40.1920   44.3470 C.3   194  ARG194      0.1563
    150  C         35.6780   41.2200   45.3970 C.2   194  ARG194      0.2260
    151  O         36.5940   41.7990   45.9560 O.2   194  ARG194     -0.2867
    152  CB        36.6850   38.9630   44.9570 C.3   194  ARG194      0.0307
    153  CG        35.9900   38.4200   46.1810 C.3   194  ARG194      0.0489
    154  CD        36.8690   37.5380   46.9590 C.3   194  ARG194      0.2205
    155  NE        36.1650   36.8070   47.9920 N.pl3 194  ARG194     -0.0865
    156  CZ        36.1400   37.1130   49.2800 C.cat 194  ARG194      0.5346
    157  NH1       36.7500   38.1760   49.7940 N.pl3 194  ARG194      0.1354
    158  NH2       35.4590   36.3220   50.0780 N.pl3 194  ARG194      0.1354
    159  N         34.8060   41.7180   48.8770 N.3   196  ASP196     -0.1225
    160  CA        34.7560   41.0620   50.1620 C.3   196  ASP196      0.1805
    161  C         33.6100   41.5970   51.0310 C.2   196  ASP196      0.2597
    162  O         33.3030   42.7830   51.0300 O.2   196  ASP196     -0.2718
    163  CB        36.1150   41.2590   50.8630 C.3   196  ASP196      0.1424
    164  CG        36.1640   40.6100   52.2390 C.2   196  ASP196      0.3668
    165  OD1       36.1390   39.3610   52.2870 O.co2 196  ASP196     -0.2456
    166  OD2       36.1820   41.3550   53.2570 O.co2 196  ASP196     -0.2456
    167  N         32.9590   40.6780   51.7260 N.am  197  ALA197     -0.1979
    168  CA        31.9530   40.9970   52.7530 C.3   197  ALA197      0.1597
    169  C         30.8000   41.8880   52.2680 C.2   197  ALA197      0.2287
    170  O         30.3580   42.7930   52.9870 O.2   197  ALA197     -0.2864
    171  CB        32.6210   41.6310   53.9800 C.3   197  ALA197      0.0319
    172  N         27.7270   42.8610   54.1920 N.3   200  HIS200     -0.1241
    173  CA        27.8590   43.8240   55.2640 C.3   200  HIS200      0.1621
    174  C         27.8610   45.2550   54.7800 C.2   200  HIS200      0.2264
    175  O         28.1020   46.1600   55.5630 O.2   200  HIS200     -0.2867
    176  CB        29.1050   43.4520   56.0890 C.3   200  HIS200      0.0745
    177  CG        28.9790   42.0840   56.6820 C.ar  200  HIS200      0.0817
    178  ND1       28.2940   41.8510   57.8610 N.ar  200  HIS200     -0.2268
    179  CD2       29.3130   40.8640   56.1920 C.ar  200  HIS200      0.1154
    180  CE1       28.2880   40.5510   58.1100 C.ar  200  HIS200      0.1986
    181  NE2       28.8910   39.9310   57.1080 N.ar  200  HIS200     -0.2212
    182  N         30.9200   38.9160   47.3520 N.3   232  GLU232     -0.1245
    183  CA        30.7800   37.8190   48.3210 C.3   232  GLU232      0.1567
    184  C         29.5840   38.1140   49.2310 C.2   232  GLU232      0.2260
    185  O         29.6510   38.9620   50.1030 O.2   232  GLU232     -0.2867
    186  CB        32.0000   37.6690   49.1900 C.3   232  GLU232      0.0388
    187  CG        31.9230   36.4160   50.0830 C.3   232  GLU232      0.1160
    188  CD        32.5140   36.6010   51.4600 C.2   232  GLU232      0.3649
    189  OE1       32.7380   35.5830   52.1420 O.co2 232  GLU232     -0.2457
    190  OE2       32.7150   37.7470   51.8740 O.co2 232  GLU232     -0.2457
    191  N         27.0590   35.6490   51.3770 N.3   234  ILE234     -0.1245
    192  CA        26.7000   34.3420   51.8480 C.3   234  ILE234      0.1561
    193  C         25.2060   34.3320   52.1290 C.2   234  ILE234      0.2260
    194  O         24.7470   35.0050   53.0370 O.2   234  ILE234     -0.2867
    195  CB        27.4820   33.9890   53.1120 C.3   234  ILE234      0.0252
    196  CG1       28.9710   33.8680   52.7830 C.3   234  ILE234      0.0019
    197  CG2       27.0160   32.6750   53.6930 C.3   234  ILE234      0.0019
    198  CD1       29.8430   33.9290   54.0120 C.3   234  ILE234      0.0001
    199  N         38.3870   29.7660   50.2670 N.3   298  HIS298     -0.1226
    200  CA        39.4240   29.8210   51.2490 C.3   298  HIS298      0.1752
    201  C         38.8880   29.7660   52.6850 C.2   298  HIS298      0.2596
    202  O         39.5860   29.3250   53.5760 O.2   298  HIS298     -0.2718
    203  CB        40.2810   31.0790   51.0330 C.3   298  HIS298      0.0759
    204  CG        39.5970   32.3540   51.3960 C.ar  298  HIS298      0.0818
    205  ND1       38.6940   32.9890   50.5760 N.ar  298  HIS298     -0.2268
    206  CD2       39.7100   33.1290   52.4990 C.ar  298  HIS298      0.1154
    207  CE1       38.2680   34.0880   51.1650 C.ar  298  HIS298      0.1986
    208  NE2       38.8720   34.1970   52.3320 N.ar  298  HIS298     -0.2212
    209  N         37.6590   30.1930   52.9140 N.am  299  ASP299     -0.1974
    210  CA        37.1510   30.1960   54.2730 C.3   299  ASP299      0.1709
    211  C         36.4900   28.8770   54.6020 C.2   299  ASP299      0.2293
    212  O         36.8330   28.2440   55.6040 O.2   299  ASP299     -0.2864
    213  CB        36.1660   31.3270   54.4980 C.3   299  ASP299      0.1436
    214  CG        35.5700   31.3040   55.8990 C.2   299  ASP299      0.3671
    215  OD1       36.3490   31.3430   56.8770 O.co2 299  ASP299     -0.2456
    216  OD2       34.3340   31.2440   56.0290 O.co2 299  ASP299     -0.2456
    217  N         34.2060   25.2880   59.0020 N.3   304  HIS304     -0.1241
    218  CA        33.1380   25.9070   59.7810 C.3   304  HIS304      0.1621
    219  C         32.6590   27.2130   59.1390 C.2   304  HIS304      0.2264
    220  O         32.3210   28.1650   59.8310 O.2   304  HIS304     -0.2867
    221  CB        33.5470   26.1000   61.2640 C.3   304  HIS304      0.0745
    222  CG        34.7760   26.9260   61.4560 C.ar  304  HIS304      0.0817
    223  ND1       34.7420   28.3020   61.5130 N.ar  304  HIS304     -0.2268
    224  CD2       36.0730   26.5720   61.6070 C.ar  304  HIS304      0.1154
    225  CE1       35.9680   28.7630   61.6830 C.ar  304  HIS304      0.1986
    226  NE2       36.7940   27.7330   61.7420 N.ar  304  HIS304     -0.2212
@<TRIPOS>BOND
     1   148   149    1
     2   149   152    1
     3   149   150    1
     4   152   153    1
     5   150   151    2
     6   153   154    1
     7   154   155    1
     8   182   183    1
     9   155   156    2
    10   183   186    1
    11   183   184    1
    12   159   160    1
    13   186   187    1
    14   184   185    2
    15   156   157    1
    16   156   158    1
    17   187   188    1
    18   160   163    1
    19   160   161    1
    20   199   200    1
    21   205   207   ar
    22   205   204   ar
    23   163   164    1
    24   162   161    2
    25   161   167   am
    26   203   200    1
    27   203   204    1
    28   207   208   ar
    29    55    54    1
    30   200   201    1
    31   191   192    1
    32   204   206   ar
    33   188   190   ar
    34   188   189   ar
    35   167   168    1
    36   192   193    1
    37   192   195    1
    38   193   194    2
    39   164   165   ar
    40   164   166   ar
    41   169   168    1
    42   169   170    2
    43    54    53   ar
    44    54    52   ar
    45   208   206   ar
    46    53    51   ar
    47   201   209   am
    48   201   202    2
    49   168   171    1
    50   196   195    1
    51   196   198    1
    52   209   210    1
    53   195   197    1
    54    52    50   ar
    55    51    49   ar
    56   172   173    1
    57   210   213    1
    58   210   211    1
    59   213   214    1
    60   211   212    2
    61    50    49   ar
    62    49    48    1
    63   174   173    1
    64   174   175    2
    65   173   176    1
    66    65    66    1
    67    26    28   ar
    68    26    23   ar
    69    28    29   ar
    70    45    44    1
    71    45    48    1
    72    45    46    1
    73   214   216   ar
    74   214   215   ar
    75    68    67    2
    76    20    21    1
    77    20    17    1
    78   176   177    1
    79    19    18    2
    80   179   177   ar
    81   179   181   ar
    82    73    74   ar
    83    73    71   ar
    84    23    21   ar
    85    23    25   ar
    86    74    72   ar
    87    29    27   ar
    88   177   178   ar
    89    21    22   ar
    90    71    70   ar
    91    17    18    1
    92    17    16    1
    93    46    47    2
    94    46    56   am
    95    18    30   am
    96    67    66    1
    97    66    69    1
    98   181   180   ar
    99    72    70   ar
   100    70    69    1
   101    25    27   ar
   102    25    24   ar
   103    56    57    1
   104    22    24   ar
   105    58    59    2
   106    58    57    1
   107   178   180   ar
   108    30    31    1
   109    31    32    1
   110    31    34    1
   111    57    60    1
   112   128   126    1
   113    33    32    2
   114   217   218    1
   115    34    35    1
   116   219   218    1
   117   219   220    2
   118    60    61    1
   119   218   221    1
   120   126   127    1
   121   126   125    1
   122   146   145    1
   123    61    62    1
   124    35    36   ar
   125    35    37   ar
   126   125   122    1
   127    36    38   ar
   128   221   222    1
   129   144   145    1
   130   144   141    1
   131   145   147    1
   132   111   109    1
   133   222   223   ar
   134   222   224   ar
   135   223   225   ar
   136    37    40   ar
   137    37    39   ar
   138   224   226   ar
   139   225   226   ar
   140    62    64   am
   141    62    63    2
   142   122   121    1
   143   122   123    1
   144    40    42   ar
   145    38    39   ar
   146   121   114   am
   147   124   123    2
   148   143   142    2
   149   142   141    1
   150   135   133    1
   151    39    41   ar
   152   123   129   am
   153   141   140    1
   154   109   108    1
   155     1     2    1
   156   110   108    1
   157     7     5    1
   158    42    43   ar
   159   114   113    1
   160   114   115    2
   161    75    76    1
   162   113   112    1
   163   113   116    1
   164   129   130    1
   165     5     2    1
   166     5     6    1
   167   134   133    1
   168   140   138   am
   169     4     3    2
   170   108   105    1
   171   133   130    1
   172    41    43   ar
   173     2     3    1
   174   130   131    1
   175    76    77    1
   176   116   117    1
   177   117   118    1
   178   131   132    2
   179   131   136   am
   180   138   139    2
   181   138   137    1
   182   105   104    1
   183   105   106    1
   184   136   137    1
   185    77    78    2
   186    77    79   am
   187   104   102   am
   188   118   120   am
   189   118   119    2
   190   106   107    2
   191    79    80    1
   192   102   103    2
   193   102   101    1
   194    93    90    1
   195   101   100    1
   196    80    83    1
   197    80    81    1
   198    83    84    1
   199     8     9    1
   200    10    11    2
   201    10     9    1
   202    90    89    1
   203    90    91    1
   204    81    85   am
   205    81    82    2
   206    89    87   am
   207     9    12    1
   208    91    92    2
   209    85    86    1
   210    87    86    1
   211    87    88    2
   212    12    13    1
   213    14    13    2
   214    99    98    1
   215    13    15   am
   216    97    96    2
   217    96    95    1
   218    98    95    1
   219    95    94    1
