@<TRIPOS>MOLECULE
tmp/3l2mA00.pdb
 77 78 0 0 0
SMALL
GASTEIGER

@<TRIPOS>ATOM
      1  N         49.4640   40.5000   62.8320 N.3    50  VAL50      -0.1231
      2  CA        48.8750   39.8450   63.9870 C.3    50  VAL50       0.1692
      3  C         49.9050   38.8600   64.5000 C.2    50  VAL50       0.2593
      4  O         50.4120   38.0490   63.7520 O.2    50  VAL50      -0.2718
      5  CB        47.5180   39.1330   63.6540 C.3    50  VAL50       0.0266
      6  CG1       47.0420   38.2800   64.8180 C.3    50  VAL50       0.0020
      7  CG2       46.4350   40.1410   63.2960 C.3    50  VAL50       0.0020
      8  N         50.2110   38.9490   65.7810 N.am   51  THR51      -0.1939
      9  CA        51.2000   38.0770   66.4020 C.3    51  THR51       0.2028
     10  C         50.5580   37.0780   67.3700 C.2    51  THR51       0.2642
     11  O         51.2240   36.1480   67.8330 O.2    51  THR51      -0.2714
     12  CB        52.2180   38.8920   67.2090 C.3    51  THR51       0.1808
     13  OG1       51.5200   39.6780   68.1780 O.3    51  THR51      -0.2208
     14  CG2       52.9960   39.7990   66.3110 C.3    51  THR51       0.0379
     15  N         49.2870   37.2990   67.6980 N.am   52  ASN52      -0.1958
     16  CA        48.4950   36.3500   68.5050 C.3    52  ASN52       0.1804
     17  C         47.2070   35.9190   67.7860 C.2    52  ASN52       0.2463
     18  O         46.1800   36.6090   67.8670 O.2    52  ASN52      -0.2730
     19  CB        48.1490   36.9400   69.8840 C.3    52  ASN52       0.1195
     20  CG        47.5890   38.3850   69.8160 C.2    52  ASN52       0.2630
     21  OD1       47.5680   39.0460   68.7530 O.2    52  ASN52      -0.2716
     22  ND2       47.1640   38.8840   70.9750 N.am   52  ASN52      -0.0877
     23  N         47.2660   34.8010   67.0360 N.am   53  PRO53      -0.2716
     24  CA        48.3940   33.9100   66.7970 C.3    53  PRO53       0.1536
     25  C         49.3570   34.4640   65.7180 C.2    53  PRO53       0.2599
     26  O         49.1480   35.5670   65.2230 O.2    53  PRO53      -0.2715
     27  CB        47.6950   32.6390   66.3280 C.3    53  PRO53       0.0310
     28  CG        46.5850   33.1680   65.4880 C.3    53  PRO53       0.0237
     29  CD        46.1450   34.4720   66.1440 C.3    53  PRO53       0.0939
     30  N         50.3860   33.7010   65.3600 N.am   54  SER54      -0.1950
     31  CA        51.4820   34.2270   64.5360 C.3    54  SER54       0.1924
     32  C         51.1790   34.2660   63.0350 C.2    54  SER54       0.2314
     33  O         51.2980   33.2630   62.3380 O.2    54  SER54      -0.2863
     34  CB        52.7510   33.4110   64.7640 C.3    54  SER54       0.2116
     35  OG        53.8410   33.9560   64.0330 O.3    54  SER54      -0.2180
     36  N         44.0940   35.3580   58.0520 N.3    58  TRP58      -0.1241
     37  CA        43.0470   36.3520   58.1440 C.3    58  TRP58       0.1605
     38  C         43.5300   37.7480   58.5260 C.2    58  TRP58       0.2264
     39  O         42.7220   38.6860   58.4980 O.2    58  TRP58      -0.2867
     40  CB        41.8930   35.9230   59.0560 C.3    58  TRP58       0.0550
     41  CG        42.2070   35.2770   60.3330 C.ar   58  TRP58       0.0003
     42  CD1       42.1280   33.9400   60.6020 C.ar   58  TRP58       0.0946
     43  CD2       42.6080   35.9100   61.5630 C.ar   58  TRP58       0.0152
     44  NE1       42.4610   33.7030   61.9220 N.ar   58  TRP58      -0.2442
     45  CE2       42.7600   34.8930   62.5250 C.ar   58  TRP58       0.0810
     46  CE3       42.8570   37.2320   61.9370 C.ar   58  TRP58       0.0012
     47  CZ2       43.1390   35.1570   63.8260 C.ar   58  TRP58       0.0191
     48  CZ3       43.2150   37.4950   63.2240 C.ar   58  TRP58       0.0001
     49  CH2       43.3590   36.4610   64.1620 C.ar   58  TRP58       0.0015
     50  N         40.1820   46.4720   68.6140 N.3   105  GLY105     -0.1210
     51  CA        40.9670   46.1380   69.7960 C.3   105  GLY105      0.1956
     52  C         42.4710   46.0500   69.5880 C.2   105  GLY105      0.2612
     53  O         43.1820   45.7120   70.5180 O.2   105  GLY105     -0.2717
     54  N         42.9420   46.3300   68.3710 N.am  106  ALA106     -0.1965
     55  CA        44.3640   46.2550   68.0290 C.3   106  ALA106      0.1728
     56  C         45.1520   47.4280   68.6160 C.2   106  ALA106      0.2616
     57  O         44.6260   48.5270   68.7620 O.2   106  ALA106     -0.2715
     58  CB        44.5180   46.2250   66.5230 C.3   106  ALA106      0.0334
     59  N         46.4180   47.1950   68.9430 N.am  107  ALA107     -0.1977
     60  CA        47.2440   48.2250   69.5690 C.3   107  ALA107      0.1597
     61  C         47.6860   49.2680   68.5580 C.2   107  ALA107      0.2287
     62  O         47.8770   48.9670   67.3960 O.2   107  ALA107     -0.2864
     63  CB        48.4530   47.6020   70.2280 C.3   107  ALA107      0.0319
     64  N         43.6060   28.9360   61.7970 N.3   356  TRP356     -0.1241
     65  CA        44.2270   30.2600   61.6140 C.3   356  TRP356      0.1605
     66  C         45.5700   30.2210   60.8290 C.2   356  TRP356      0.2264
     67  O         46.0320   31.2290   60.3060 O.2   356  TRP356     -0.2867
     68  CB        44.4970   30.8770   63.0100 C.3   356  TRP356      0.0550
     69  CG        45.3630   30.0300   63.8940 C.ar  356  TRP356      0.0003
     70  CD1       44.9490   29.1220   64.8300 C.ar  356  TRP356      0.0946
     71  CD2       46.8060   30.0150   63.9350 C.ar  356  TRP356      0.0152
     72  NE1       46.0450   28.5490   65.4490 N.ar  356  TRP356     -0.2442
     73  CE2       47.1890   29.0820   64.9160 C.ar  356  TRP356      0.0810
     74  CE3       47.8070   30.7080   63.2350 C.ar  356  TRP356      0.0012
     75  CZ2       48.5250   28.8200   65.2170 C.ar  356  TRP356      0.0191
     76  CZ3       49.1500   30.4410   63.5440 C.ar  356  TRP356      0.0001
     77  CH2       49.4850   29.4990   64.5070 C.ar  356  TRP356      0.0015
@<TRIPOS>BOND
     1    36    37    1
     2    37    38    1
     3    37    40    1
     4    39    38    2
     5    40    41    1
     6    67    66    2
     7    41    42   ar
     8    41    43   ar
     9    42    44   ar
    10    66    65    1
    11    43    46   ar
    12    43    45   ar
    13    65    64    1
    14    65    68    1
    15    44    45   ar
    16    46    48   ar
    17    33    32    2
    18    45    47   ar
    19     1     2    1
    20    68    69    1
    21    32    31    1
    22    48    49   ar
    23    74    76   ar
    24    74    71   ar
    25     7     5    1
    26    76    77   ar
    27     5     2    1
    28     5     6    1
    29     4     3    2
    30    47    49   ar
    31    69    71   ar
    32    69    70   ar
    33    71    73   ar
    34     2     3    1
    35    35    34    1
    36     3     8   am
    37    77    75   ar
    38    31    34    1
    39    31    30    1
    40    70    72   ar
    41    73    75   ar
    42    73    72   ar
    43    26    25    2
    44    30    25   am
    45    28    29    1
    46    28    27    1
    47    25    24    1
    48     8     9    1
    49    29    23    1
    50    14    12    1
    51    27    24    1
    52     9    12    1
    53     9    10    1
    54    58    55    1
    55    24    23    1
    56    23    17   am
    57    12    13    1
    58    10    15   am
    59    10    11    2
    60    62    61    2
    61    15    16    1
    62    17    18    2
    63    17    16    1
    64    55    54    1
    65    55    56    1
    66    54    52   am
    67    16    19    1
    68    61    60    1
    69    50    51    1
    70    56    57    2
    71    56    59   am
    72    21    20    2
    73    59    60    1
    74    60    63    1
    75    52    51    1
    76    52    53    2
    77    20    19    1
    78    20    22   am
