@<TRIPOS>MOLECULE
tmp/3l2mA01.pdb
 180 176 0 0 0
SMALL
GASTEIGER

@<TRIPOS>ATOM
      1  N         46.2500   33.6850   58.2050 N.3    57  TRP57      -0.1227
      2  CA        45.7810   34.0840   56.9020 C.3    57  TRP57       0.1737
      3  C         44.8760   35.3040   56.9870 C.2    57  TRP57       0.2595
      4  O         44.8720   36.1610   56.0880 O.2    57  TRP57      -0.2718
      5  CB        45.0460   32.9330   56.1830 C.3    57  TRP57       0.0564
      6  CG        43.8040   32.4180   56.8400 C.ar   57  TRP57       0.0003
      7  CD1       43.7120   31.3910   57.7040 C.ar   57  TRP57       0.0946
      8  CD2       42.4620   32.9010   56.6320 C.ar   57  TRP57       0.0152
      9  NE1       42.3920   31.1940   58.0860 N.ar   57  TRP57      -0.2442
     10  CE2       41.6070   32.1130   57.4360 C.ar   57  TRP57       0.0810
     11  CE3       41.9090   33.9150   55.8410 C.ar   57  TRP57       0.0012
     12  CZ2       40.2270   32.3000   57.4710 C.ar   57  TRP57       0.0191
     13  CZ3       40.5160   34.1210   55.8930 C.ar   57  TRP57       0.0001
     14  CH2       39.7070   33.3230   56.7090 C.ar   57  TRP57       0.0015
     15  N         44.0940   35.3580   58.0520 N.am   58  TRP58      -0.1976
     16  CA        43.0470   36.3520   58.1440 C.3    58  TRP58       0.1640
     17  C         43.5300   37.7480   58.5260 C.2    58  TRP58       0.2290
     18  O         42.7220   38.6860   58.4980 O.2    58  TRP58      -0.2864
     19  CB        41.8930   35.9230   59.0560 C.3    58  TRP58       0.0576
     20  CG        42.2070   35.2770   60.3330 C.ar   58  TRP58       0.0006
     21  CD1       42.1280   33.9400   60.6020 C.ar   58  TRP58       0.0946
     22  CD2       42.6080   35.9100   61.5630 C.ar   58  TRP58       0.0152
     23  NE1       42.4610   33.7030   61.9220 N.ar   58  TRP58      -0.2442
     24  CE2       42.7600   34.8930   62.5250 C.ar   58  TRP58       0.0810
     25  CE3       42.8570   37.2320   61.9370 C.ar   58  TRP58       0.0012
     26  CZ2       43.1390   35.1570   63.8260 C.ar   58  TRP58       0.0191
     27  CZ3       43.2150   37.4950   63.2240 C.ar   58  TRP58       0.0001
     28  CH2       43.3590   36.4610   64.1620 C.ar   58  TRP58       0.0015
     29  N         42.6540   40.4230   55.9530 N.3    61  TYR61      -0.1227
     30  CA        41.3130   40.9960   55.8600 C.3    61  TYR61       0.1736
     31  C         41.1390   42.1460   56.8790 C.2    61  TYR61       0.2595
     32  O         40.0260   42.5810   57.1640 O.2    61  TYR61      -0.2718
     33  CB        40.2650   39.8560   55.9560 C.3    61  TYR61       0.0548
     34  CG        40.3420   39.0290   54.7300 C.ar   61  TYR61      -0.0200
     35  CD1       41.1370   37.8890   54.6830 C.ar   61  TYR61      -0.0009
     36  CD2       39.6790   39.4230   53.5830 C.ar   61  TYR61      -0.0009
     37  CE1       41.2740   37.1720   53.5430 C.ar   61  TYR61       0.0417
     38  CE2       39.8130   38.7120   52.4010 C.ar   61  TYR61       0.0417
     39  CZ        40.6060   37.5880   52.3950 C.ar   61  TYR61       0.1957
     40  OH        40.7980   36.9010   51.2560 O.3    61  TYR61      -0.2866
     41  N         42.2760   42.6560   57.3830 N.am   62  GLN62      -0.1979
     42  CA        42.3220   43.7870   58.2900 C.3    62  GLN62       0.1601
     43  C         43.2350   44.9210   57.7930 C.2    62  GLN62       0.2287
     44  O         44.3680   45.0760   58.2620 O.2    62  GLN62      -0.2864
     45  CB        42.7530   43.3200   59.6780 C.3    62  GLN62       0.0394
     46  CG        41.7920   42.2820   60.2720 C.3    62  GLN62       0.0908
     47  CD        42.0340   42.0660   61.7360 C.2    62  GLN62       0.2608
     48  OE1       42.4460   42.9660   62.4490 O.2    62  GLN62      -0.2717
     49  NE2       41.7760   40.8670   62.1940 N.am   62  GLN62      -0.0878
     50  N         35.6190   47.4860   55.8130 N.3   100  HIS100     -0.1241
     51  CA        36.1770   47.7380   57.1220 C.3   100  HIS100      0.1621
     52  C         37.6690   47.9510   57.0860 C.2   100  HIS100      0.2264
     53  O         38.3060   47.6430   56.0800 O.2   100  HIS100     -0.2867
     54  CB        35.9020   46.5280   58.0270 C.3   100  HIS100      0.0745
     55  CG        36.3390   45.2180   57.4510 C.ar  100  HIS100      0.0817
     56  ND1       35.4570   44.3310   56.8680 N.ar  100  HIS100     -0.2268
     57  CD2       37.5670   44.6390   57.3730 C.ar  100  HIS100      0.1154
     58  CE1       36.1210   43.2590   56.4620 C.ar  100  HIS100      0.1986
     59  NE2       37.4040   43.4180   56.7610 N.ar  100  HIS100     -0.2212
     60  N         40.9440   45.4680   63.2970 N.3   103  GLY103     -0.1225
     61  CA        40.2670   45.2400   64.5830 C.3   103  GLY103      0.1811
     62  C         40.2820   46.4400   65.5140 C.2   103  GLY103      0.2280
     63  O         41.3210   47.0630   65.7120 O.2   103  GLY103     -0.2866
     64  N         28.5940   45.5280   68.0020 N.3   146  GLY146     -0.1210
     65  CA        28.6830   44.4230   67.0480 C.3   146  GLY146      0.1956
     66  C         27.3360   43.9250   66.5370 C.2   146  GLY146      0.2611
     67  O         26.2690   44.3960   66.9420 O.2   146  GLY146     -0.2717
     68  N         27.4010   42.9590   65.6280 N.am  147  ILE147     -0.1979
     69  CA        26.2180   42.3130   65.0660 C.3   147  ILE147      0.1595
     70  C         25.7080   41.2620   66.0500 C.2   147  ILE147      0.2287
     71  O         26.3630   40.2750   66.3200 O.2   147  ILE147     -0.2864
     72  CB        26.5540   41.6230   63.7400 C.3   147  ILE147      0.0276
     73  CG1       27.2110   42.6260   62.7720 C.3   147  ILE147      0.0022
     74  CG2       25.3280   40.9970   63.1510 C.3   147  ILE147      0.0022
     75  CD1       27.8380   41.9920   61.5450 C.3   147  ILE147      0.0001
     76  N         21.4910   38.5670   62.9040 N.3   150  TYR150     -0.1241
     77  CA        21.4860   38.5770   61.4460 C.3   150  TYR150      0.1605
     78  C         20.0960   38.7260   60.8300 C.2   150  TYR150      0.2264
     79  O         19.9770   38.7840   59.6150 O.2   150  TYR150     -0.2867
     80  CB        22.1730   37.3240   60.8780 C.3   150  TYR150      0.0534
     81  CG        23.6870   37.4840   60.8110 C.ar  150  TYR150     -0.0201
     82  CD1       24.4750   37.3520   61.9470 C.ar  150  TYR150     -0.0009
     83  CD2       24.3110   37.8070   59.6180 C.ar  150  TYR150     -0.0009
     84  CE1       25.8620   37.5140   61.8810 C.ar  150  TYR150      0.0417
     85  CE2       25.6720   37.9550   59.5430 C.ar  150  TYR150      0.0417
     86  CZ        26.4380   37.8240   60.6720 C.ar  150  TYR150      0.1957
     87  OH        27.7980   37.9920   60.5500 O.3   150  TYR150     -0.2866
     88  N         29.8730   46.3850   63.6820 N.3   160  GLN160     -0.1231
     89  CA        31.1840   45.7530   63.4750 C.3   160  GLN160      0.1698
     90  C         31.1150   44.2260   63.3120 C.2   160  GLN160      0.2592
     91  O         30.5650   43.5090   64.1600 O.2   160  GLN160     -0.2718
     92  CB        32.1200   46.0810   64.6320 C.3   160  GLN160      0.0381
     93  CG        32.4660   47.5590   64.7520 C.3   160  GLN160      0.0905
     94  CD        33.2850   47.8310   66.0190 C.2   160  GLN160      0.2608
     95  OE1       33.5770   46.9170   66.7770 O.2   160  GLN160     -0.2717
     96  NE2       33.6510   49.0830   66.2390 N.am  160  GLN160     -0.0878
     97  N         31.6530   43.7640   62.1890 N.am  161  LEU161     -0.1966
     98  CA        31.8080   42.3520   61.8690 C.3   161  LEU161      0.1728
     99  C         33.0400   41.8760   62.6170 C.2   161  LEU161      0.2616
    100  O         34.1220   42.3950   62.3900 O.2   161  LEU161     -0.2715
    101  CB        32.0100   42.2000   60.3520 C.3   161  LEU161      0.0311
    102  CG        32.3870   40.7980   59.8650 C.3   161  LEU161      0.0022
    103  CD1       31.2880   39.8050   60.1350 C.3   161  LEU161      0.0001
    104  CD2       32.7260   40.8570   58.3930 C.3   161  LEU161      0.0001
    105  N         32.8590   40.9330   63.5410 N.am  162  VAL162     -0.1963
    106  CA        33.9280   40.4200   64.4480 C.3   162  VAL162      0.1727
    107  C         34.9220   41.4660   64.9440 C.2   162  VAL162      0.2617
    108  O         36.1530   41.2720   64.9010 O.2   162  VAL162     -0.2715
    109  CB        34.6880   39.1940   63.8500 C.3   162  VAL162      0.0290
    110  CG1       33.7090   38.0910   63.5750 C.3   162  VAL162      0.0023
    111  CG2       35.4260   39.5480   62.5710 C.3   162  VAL162      0.0023
    112  N         34.3610   42.5820   65.3970 N.am  163  GLY163     -0.1940
    113  CA        35.1340   43.6740   65.9720 C.3   163  GLY163      0.2014
    114  C         35.9310   44.5150   64.9990 C.2   163  GLY163      0.2638
    115  O         36.7360   45.3200   65.4360 O.2   163  GLY163     -0.2714
    116  N         35.6990   44.3630   63.6930 N.am  164  LEU164     -0.1977
    117  CA        36.4310   45.1580   62.6970 C.3   164  LEU164      0.1596
    118  C         35.7890   46.5460   62.5340 C.2   164  LEU164      0.2287
    119  O         34.5500   46.6650   62.4410 O.2   164  LEU164     -0.2864
    120  CB        36.4820   44.4100   61.3520 C.3   164  LEU164      0.0297
    121  CG        37.1220   43.0260   61.4220 C.3   164  LEU164      0.0022
    122  CD1       36.8440   42.2500   60.1620 C.3   164  LEU164      0.0001
    123  CD2       38.6180   43.1470   61.6800 C.3   164  LEU164      0.0001
    124  N         27.7430   42.8170   54.2160 N.3   200  HIS200     -0.1241
    125  CA        27.8990   43.8030   55.2880 C.3   200  HIS200      0.1621
    126  C         27.9350   45.2300   54.8000 C.2   200  HIS200      0.2264
    127  O         28.2070   46.1340   55.5750 O.2   200  HIS200     -0.2867
    128  CB        29.1390   43.4510   56.1100 C.3   200  HIS200      0.0745
    129  CG        29.0350   42.0900   56.7020 C.ar  200  HIS200      0.0817
    130  ND1       28.2890   41.8300   57.8340 N.ar  200  HIS200     -0.2268
    131  CD2       29.4980   40.8970   56.2650 C.ar  200  HIS200      0.1154
    132  CE1       28.3250   40.5310   58.0800 C.ar  200  HIS200      0.1986
    133  NE2       29.0540   39.9470   57.1440 N.ar  200  HIS200     -0.2212
    134  N         30.9460   38.9090   47.3590 N.3   232  GLU232     -0.1245
    135  CA        30.7930   37.8380   48.3490 C.3   232  GLU232      0.1567
    136  C         29.6040   38.1030   49.2280 C.2   232  GLU232      0.2260
    137  O         29.6580   38.9310   50.1340 O.2   232  GLU232     -0.2867
    138  CB        32.0120   37.7080   49.2880 C.3   232  GLU232      0.0388
    139  CG        31.9210   36.4820   50.2060 C.3   232  GLU232      0.1160
    140  CD        32.5720   36.6630   51.5620 C.2   232  GLU232      0.3649
    141  OE1       32.8070   35.6560   52.2510 O.co2 232  GLU232     -0.2457
    142  OE2       32.8090   37.8050   51.9580 O.co2 232  GLU232     -0.2457
    143  N         27.0430   35.6390   51.3940 N.3   234  ILE234     -0.1245
    144  CA        26.6550   34.3190   51.8570 C.3   234  ILE234      0.1561
    145  C         25.1690   34.3220   52.1350 C.2   234  ILE234      0.2260
    146  O         24.7090   34.9700   53.0630 O.2   234  ILE234     -0.2867
    147  CB        27.4010   33.9530   53.1500 C.3   234  ILE234      0.0252
    148  CG1       28.9150   33.8860   52.9160 C.3   234  ILE234      0.0019
    149  CG2       26.8940   32.6270   53.7170 C.3   234  ILE234      0.0019
    150  CD1       29.7140   33.8790   54.2170 C.3   234  ILE234      0.0001
    151  N         37.7620   30.2750   52.9600 N.3   299  ASP299     -0.1239
    152  CA        37.2080   30.2960   54.3140 C.3   299  ASP299      0.1674
    153  C         36.5360   28.9770   54.6460 C.2   299  ASP299      0.2266
    154  O         36.8310   28.3490   55.6680 O.2   299  ASP299     -0.2867
    155  CB        36.1990   31.4350   54.4590 C.3   299  ASP299      0.1410
    156  CG        35.5990   31.4990   55.8510 C.2   299  ASP299      0.3668
    157  OD1       34.5130   30.9370   56.0500 O.co2 299  ASP299     -0.2456
    158  OD2       36.2340   32.0810   56.7560 O.co2 299  ASP299     -0.2456
    159  N         34.2200   25.3890   59.0250 N.3   304  HIS304     -0.1226
    160  CA        33.1240   25.9770   59.7830 C.3   304  HIS304      0.1752
    161  C         32.6760   27.3010   59.1590 C.2   304  HIS304      0.2596
    162  O         32.3450   28.2420   59.8670 O.2   304  HIS304     -0.2718
    163  CB        33.4900   26.1270   61.2680 C.3   304  HIS304      0.0759
    164  CG        34.6910   26.9790   61.4990 C.ar  304  HIS304      0.0818
    165  ND1       34.6610   28.3520   61.3760 N.ar  304  HIS304     -0.2268
    166  CD2       35.9680   26.6550   61.8140 C.ar  304  HIS304      0.1154
    167  CE1       35.8650   28.8410   61.6170 C.ar  304  HIS304      0.1986
    168  NE2       36.6760   27.8320   61.8830 N.ar  304  HIS304     -0.2212
    169  N         32.6530   27.3620   57.8240 N.am  305  GLY305     -0.1957
    170  CA        32.0520   28.4950   57.1310 C.3   305  GLY305      0.1869
    171  C         30.7310   28.0660   56.5170 C.2   305  GLY305      0.2309
    172  O         30.0900   27.1110   56.9660 O.2   305  GLY305     -0.2863
    173  N         42.8720   26.3540   62.4120 N.3   355  ASP355     -0.1239
    174  CA        42.3330   26.9320   61.1850 C.3   355  ASP355      0.1674
    175  C         42.8860   28.3250   60.8620 C.2   355  ASP355      0.2266
    176  O         42.6150   28.8490   59.8160 O.2   355  ASP355     -0.2867
    177  CB        40.7960   27.0160   61.2460 C.3   355  ASP355      0.1410
    178  CG        40.2930   27.9930   62.3090 C.2   355  ASP355      0.3668
    179  OD1       41.0400   28.4030   63.2180 O.co2 355  ASP355     -0.2456
    180  OD2       39.1120   28.3320   62.2580 O.co2 355  ASP355     -0.2456
@<TRIPOS>BOND
     1   134   135    1
     2   135   136    1
     3   135   138    1
     4   136   137    2
     5   138   139    1
     6   139   140    1
     7    40    39    1
     8   143   144    1
     9   140   142   ar
    10   140   141   ar
    11   144   145    1
    12   144   147    1
    13   145   146    2
    14    39    38   ar
    15    39    37   ar
    16    38    36   ar
    17   148   147    1
    18   148   150    1
    19   151   152    1
    20   147   149    1
    21    37    35   ar
    22    36    34   ar
    23   124   125    1
    24   152   155    1
    25   152   153    1
    26   155   156    1
    27   153   154    2
    28    35    34   ar
    29    34    33    1
    30   126   125    1
    31   126   127    2
    32   125   128    1
    33    50    51    1
    34    11    13   ar
    35    11     8   ar
    36   156   157   ar
    37   156   158   ar
    38    30    29    1
    39    30    33    1
    40    30    31    1
    41    13    14   ar
    42    53    52    2
    43     4     3    2
    44   128   129    1
    45     5     6    1
    46     5     2    1
    47   131   129   ar
    48   131   133   ar
    49    58    59   ar
    50    58    56   ar
    51   171   172    2
    52   171   170    1
    53     8     6   ar
    54     8    10   ar
    55   129   130   ar
    56    14    12   ar
    57    59    57   ar
    58     6     7   ar
    59    56    55   ar
    60    31    32    2
    61    31    41   am
    62     2     3    1
    63     2     1    1
    64     3    15   am
    65    52    51    1
    66    51    54    1
    67   170   169    1
    68   133   132   ar
    69    57    55   ar
    70    41    42    1
    71    10    12   ar
    72    10     9   ar
    73    55    54    1
    74     7     9   ar
    75    43    44    2
    76    43    42    1
    77   169   161   am
    78   130   132   ar
    79    15    16    1
    80    16    17    1
    81    16    19    1
    82    42    45    1
    83   104   102    1
    84    18    17    2
    85   159   160    1
    86    19    20    1
    87   161   160    1
    88   161   162    2
    89    85    83   ar
    90    85    86   ar
    91    79    78    2
    92    83    81   ar
    93    45    46    1
    94   160   163    1
    95   176   175    2
    96   102   103    1
    97   102   101    1
    98   122   121    1
    99    46    47    1
   100    20    21   ar
   101    20    22   ar
   102   101    98    1
   103    87    86    1
   104    21    23   ar
   105    86    84   ar
   106    81    80    1
   107    81    82   ar
   108    78    77    1
   109   175   174    1
   110    80    77    1
   111   174   177    1
   112   174   173    1
   113   177   178    1
   114   163   164    1
   115   120   121    1
   116   120   117    1
   117   165   164   ar
   118   165   167   ar
   119   121   123    1
   120    77    76    1
   121   164   166   ar
   122    75    73    1
   123    22    25   ar
   124    22    24   ar
   125   167   168   ar
   126    47    49   am
   127    47    48    2
   128   166   168   ar
   129    98    97    1
   130    98    99    1
   131    84    82   ar
   132    23    24   ar
   133    25    27   ar
   134    97    90   am
   135   180   178   ar
   136   178   179   ar
   137   100    99    2
   138   119   118    2
   139    24    26   ar
   140   118   117    1
   141   111   109    1
   142    99   105   am
   143   117   116    1
   144    73    72    1
   145    74    72    1
   146    27    28   ar
   147    60    61    1
   148    90    89    1
   149    90    91    2
   150    89    88    1
   151    89    92    1
   152   105   106    1
   153   110   109    1
   154   116   114   am
   155    72    69    1
   156    26    28   ar
   157   109   106    1
   158   106   107    1
   159    61    62    1
   160    92    93    1
   161    93    94    1
   162   108   107    2
   163   107   112   am
   164   114   115    2
   165   114   113    1
   166    69    68    1
   167    69    70    1
   168   112   113    1
   169    62    63    2
   170    68    66   am
   171    94    96   am
   172    94    95    2
   173    70    71    2
   174    66    67    2
   175    66    65    1
   176    65    64    1
