@<TRIPOS>MOLECULE
tmp/3l2pA00.pdb
 202 194 0 0 0
SMALL
GASTEIGER

@<TRIPOS>ATOM
      1  N          6.6940   23.4130   58.7170 N.3   215  MET215     -0.1230
      2  CA         5.6520   23.1390   57.7260 C.3   215  MET215      0.1702
      3  C          5.8860   23.9440   56.4700 C.2   215  MET215      0.2592
      4  O          6.4720   25.0410   56.5050 O.2   215  MET215     -0.2718
      5  CB         4.2500   23.3990   58.2730 C.3   215  MET215      0.0401
      6  CG         3.1900   23.3980   57.1870 C.3   215  MET215      0.0596
      7  SD         1.5780   22.6640   57.5840 S.3   215  MET215     -0.1393
      8  CE         1.5000   22.9850   59.3180 C.3   215  MET215      0.0692
      9  N          5.4380   23.4010   55.3490 N.am  216  LEU216     -0.1966
     10  CA         5.7980   23.9990   54.0610 C.3   216  LEU216      0.1728
     11  C          4.6200   24.4500   53.1950 C.2   216  LEU216      0.2616
     12  O          3.4780   24.0870   53.4570 O.2   216  LEU216     -0.2715
     13  CB         6.7010   23.0590   53.2630 C.3   216  LEU216      0.0311
     14  CG         8.0000   22.5690   53.9060 C.3   216  LEU216      0.0022
     15  CD1        8.7600   21.7270   52.8730 C.3   216  LEU216      0.0001
     16  CD2        8.8080   23.7190   54.3780 C.3   216  LEU216      0.0001
     17  N          4.9260   25.2390   52.1630 N.am  217  ALA217     -0.1977
     18  CA         3.9110   25.8150   51.2820 C.3   217  ALA217      0.1597
     19  C          4.0770   25.2840   49.8630 C.2   217  ALA217      0.2287
     20  O          5.2060   25.2680   49.3280 O.2   217  ALA217     -0.2864
     21  CB         4.0020   27.3300   51.3000 C.3   217  ALA217      0.0319
     22  N         -2.1270   35.3780   54.4690 N.3   237  GLU237     -0.1231
     23  CA        -1.0930   36.2000   55.0860 C.3   237  GLU237      0.1699
     24  C         -0.2630   36.8170   53.9720 C.2   237  GLU237      0.2592
     25  O         -0.2540   36.3160   52.8490 O.2   237  GLU237     -0.2718
     26  CB        -0.2150   35.3460   56.0000 C.3   237  GLU237      0.0402
     27  CG        -0.9820   34.2330   56.7280 C.3   237  GLU237      0.1161
     28  CD        -0.2550   33.6730   57.9680 C.2   237  GLU237      0.3649
     29  OE1       -0.8200   32.7590   58.6350 O.co2 237  GLU237     -0.2457
     30  OE2        0.8710   34.1430   58.2650 O.co2 237  GLU237     -0.2457
     31  N          0.4190   37.9090   54.2640 N.am  238  ILE238     -0.1966
     32  CA         1.3900   38.4160   53.3120 C.3   238  ILE238      0.1727
     33  C          2.6480   37.5460   53.4040 C.2   238  ILE238      0.2616
     34  O          3.0470   37.0990   54.4810 O.2   238  ILE238     -0.2715
     35  CB         1.6770   39.9290   53.5170 C.3   238  ILE238      0.0290
     36  CG1        1.9120   40.2280   55.0080 C.3   238  ILE238      0.0022
     37  CG2        0.5090   40.8080   52.9410 C.3   238  ILE238      0.0023
     38  CD1        1.0460   41.4310   55.6120 C.3   238  ILE238      0.0001
     39  N          3.2390   37.2590   52.2540 N.am  239  LYS239     -0.1963
     40  CA         4.4070   36.3950   52.1700 C.3   239  LYS239      0.1728
     41  C          5.6530   37.2060   52.4240 C.2   239  LYS239      0.2616
     42  O          6.1380   37.9130   51.5190 O.2   239  LYS239     -0.2715
     43  CB         4.4920   35.8370   50.7660 C.3   239  LYS239      0.0311
     44  CG         5.3360   34.6270   50.6040 C.3   239  LYS239      0.0038
     45  CD         4.9590   34.0080   49.2930 C.3   239  LYS239      0.0206
     46  CE         5.8980   32.9090   48.9040 C.3   239  LYS239      0.1093
     47  NZ         7.2380   33.4280   48.5220 N.3   239  LYS239     -0.1314
     48  N          6.1760   37.1000   53.6410 N.am  240  TYR240     -0.1960
     49  CA         7.3720   37.8360   54.0220 C.3   240  TYR240      0.1771
     50  C          8.5820   37.3330   53.2970 C.2   240  TYR240      0.2619
     51  O          8.8540   36.1610   53.2550 O.2   240  TYR240     -0.2715
     52  CB         7.5760   37.7750   55.5160 C.3   240  TYR240      0.0574
     53  CG         6.3940   38.3360   56.2330 C.ar  240  TYR240     -0.0198
     54  CD1        6.2310   39.7130   56.3600 C.ar  240  TYR240     -0.0009
     55  CD2        5.4160   37.5040   56.7450 C.ar  240  TYR240     -0.0009
     56  CE1        5.1440   40.2490   56.9990 C.ar  240  TYR240      0.0417
     57  CE2        4.3160   38.0230   57.3900 C.ar  240  TYR240      0.0417
     58  CZ         4.1790   39.4050   57.5160 C.ar  240  TYR240      0.1957
     59  OH         3.0660   39.9470   58.1440 O.3   240  TYR240     -0.2866
     60  N          9.2840   38.2530   52.6730 N.am  241  ASP241     -0.1971
     61  CA        10.4820   37.9310   51.9470 C.3   241  ASP241      0.1709
     62  C         11.6340   38.0260   52.9340 C.2   241  ASP241      0.2293
     63  O         12.4520   38.9380   52.8860 O.2   241  ASP241     -0.2864
     64  CB        10.6650   38.8960   50.7910 C.3   241  ASP241      0.1436
     65  CG        11.5850   38.3530   49.7650 C.2   241  ASP241      0.3671
     66  OD1       12.0080   37.1680   49.9120 O.co2 241  ASP241     -0.2456
     67  OD2       11.9080   39.1080   48.8230 O.co2 241  ASP241     -0.2456
     68  N         12.8350   32.3340   57.4120 N.3   244  ARG244     -0.1245
     69  CA        12.0730   31.5430   58.3510 C.3   244  ARG244      0.1563
     70  C         12.8980   31.3430   59.6160 C.2   244  ARG244      0.2260
     71  O         14.0640   30.9010   59.5700 O.2   244  ARG244     -0.2867
     72  CB        11.7590   30.1810   57.7050 C.3   244  ARG244      0.0307
     73  CG        10.8660   29.2400   58.5220 C.3   244  ARG244      0.0489
     74  CD         9.3780   29.6000   58.3830 C.3   244  ARG244      0.2205
     75  NE         8.4360   28.5660   58.8200 N.pl3 244  ARG244     -0.0865
     76  CZ         7.8970   27.6570   58.0120 C.cat 244  ARG244      0.5346
     77  NH1        8.2310   27.6520   56.7300 N.pl3 244  ARG244      0.1354
     78  NH2        7.0340   26.7620   58.4860 N.pl3 244  ARG244      0.1354
     79  N         15.3260   27.6300   58.3990 N.3   259  ARG259     -0.1245
     80  CA        14.6200   26.7410   57.5020 C.3   259  ARG259      0.1563
     81  C         15.2630   25.3740   57.4480 C.2   259  ARG259      0.2260
     82  O         14.5660   24.3680   57.3960 O.2   259  ARG259     -0.2867
     83  CB        14.6090   27.3030   56.0880 C.3   259  ARG259      0.0307
     84  CG        13.3870   26.9740   55.3140 C.3   259  ARG259      0.0489
     85  CD        13.3120   25.5650   54.8310 C.3   259  ARG259      0.2205
     86  NE        12.3060   25.5120   53.7810 N.pl3 259  ARG259     -0.0865
     87  CZ        12.0120   24.4320   53.0620 C.cat 259  ARG259      0.5346
     88  NH1       12.6330   23.2650   53.2790 N.pl3 259  ARG259      0.1354
     89  NH2       11.0570   24.5220   52.1360 N.pl3 259  ARG259      0.1354
     90  N          8.8670   34.6210   60.5850 N.3   291  GLU291     -0.1245
     91  CA         9.8280   35.1580   59.6240 C.3   291  GLU291      0.1567
     92  C         10.5300   36.3540   60.2600 C.2   291  GLU291      0.2260
     93  O          9.8880   37.1650   60.9210 O.2   291  GLU291     -0.2867
     94  CB         9.1460   35.5900   58.3080 C.3   291  GLU291      0.0388
     95  CG        10.0560   35.6100   57.0360 C.3   291  GLU291      0.1160
     96  CD        10.0640   34.2700   56.2710 C.2   291  GLU291      0.3649
     97  OE1       10.5850   34.2150   55.1200 O.co2 291  GLU291     -0.2457
     98  OE2        9.5600   33.2530   56.8220 O.co2 291  GLU291     -0.2457
     99  N          3.7860   34.1020   62.8050 N.3   326  PHE326     -0.1241
    100  CA         2.5990   33.6170   62.1470 C.3   326  PHE326      0.1605
    101  C          2.1240   32.2450   62.6430 C.2   326  PHE326      0.2264
    102  O          1.2490   31.6240   62.0420 O.2   326  PHE326     -0.2867
    103  CB         2.8480   33.5850   60.6420 C.3   326  PHE326      0.0534
    104  CG         4.0200   32.7460   60.2240 C.ar  326  PHE326     -0.0203
    105  CD1        4.0080   31.3670   60.3880 C.ar  326  PHE326     -0.0042
    106  CD2        5.1330   33.3360   59.6480 C.ar  326  PHE326     -0.0042
    107  CE1        5.0840   30.5870   60.0060 C.ar  326  PHE326     -0.0003
    108  CE2        6.2180   32.5690   59.2410 C.ar  326  PHE326     -0.0003
    109  CZ         6.1960   31.1850   59.4290 C.ar  326  PHE326     -0.0000
    110  N          0.5340   33.8230   51.3500 N.3   389  VAL389     -0.1245
    111  CA         0.5950   32.4570   51.8260 C.3   389  VAL389      0.1561
    112  C         -0.7440   32.1310   52.4350 C.2   389  VAL389      0.2260
    113  O         -1.1620   32.7780   53.4100 O.2   389  VAL389     -0.2867
    114  CB         1.7230   32.2260   52.8460 C.3   389  VAL389      0.0252
    115  CG1        1.5490   30.8690   53.5740 C.3   389  VAL389      0.0019
    116  CG2        3.0680   32.3160   52.1630 C.3   389  VAL389      0.0019
    117  N         -3.5380   29.4680   54.0030 N.3   391  LYS391     -0.1245
    118  CA        -3.6000   28.2980   54.8560 C.3   391  LYS391      0.1561
    119  C         -5.0460   27.9700   55.1270 C.2   391  LYS391      0.2260
    120  O         -5.8220   28.8350   55.5490 O.2   391  LYS391     -0.2867
    121  CB        -2.8990   28.5770   56.1980 C.3   391  LYS391      0.0271
    122  CG        -1.4220   28.9700   56.0980 C.3   391  LYS391      0.0035
    123  CD        -0.9840   29.7580   57.3180 C.3   391  LYS391      0.0206
    124  CE         0.4960   30.2380   57.2010 C.3   391  LYS391      0.1093
    125  NZ         1.0820   30.7320   58.5100 N.3   391  LYS391     -0.1314
    126  N          3.9780   19.7340   52.8260 N.3   402  ARG402     -0.1245
    127  CA         3.7640   20.8900   51.9550 C.3   402  ARG402      0.1563
    128  C          2.2630   21.2260   51.7710 C.2   402  ARG402      0.2260
    129  O          1.6980   21.1200   50.6900 O.2   402  ARG402     -0.2867
    130  CB         4.4400   20.6350   50.6170 C.3   402  ARG402      0.0307
    131  CG         4.7300   21.8900   49.8640 C.3   402  ARG402      0.0489
    132  CD         5.9940   21.7850   49.0220 C.3   402  ARG402      0.2205
    133  NE         7.1520   22.4180   49.6550 N.pl3 402  ARG402     -0.0865
    134  CZ         8.3000   22.6960   49.0260 C.cat 402  ARG402      0.5346
    135  NH1        8.4420   22.4290   47.7240 N.pl3 402  ARG402      0.1354
    136  NH2        9.3150   23.2650   49.6850 N.pl3 402  ARG402      0.1354
    137  N          0.5230   24.0820   53.1350 N.3   404  TRP404     -0.1241
    138  CA         0.1330   25.4670   52.9280 C.3   404  TRP404      0.1605
    139  C          0.2150   25.7950   51.4580 C.2   404  TRP404      0.2264
    140  O          0.7890   25.0460   50.6670 O.2   404  TRP404     -0.2867
    141  CB         1.0340   26.4190   53.6950 C.3   404  TRP404      0.0550
    142  CG         0.8670   26.3350   55.1540 C.ar  404  TRP404      0.0003
    143  CD1       -0.1920   25.8330   55.8130 C.ar  404  TRP404      0.0946
    144  CD2        1.8010   26.7700   56.1580 C.ar  404  TRP404      0.0152
    145  NE1       -0.0080   25.9320   57.1620 N.ar  404  TRP404     -0.2442
    146  CE2        1.2070   26.5090   57.4100 C.ar  404  TRP404      0.0810
    147  CE3        3.0650   27.3860   56.1190 C.ar  404  TRP404      0.0012
    148  CZ2        1.8390   26.8220   58.6280 C.ar  404  TRP404      0.0191
    149  CZ3        3.6700   27.7190   57.3140 C.ar  404  TRP404      0.0001
    150  CH2        3.0580   27.4230   58.5600 C.ar  404  TRP404      0.0015
    151  N          1.3450   28.8700   48.6550 N.3   406  LYS406     -0.1245
    152  CA         1.9590   30.1450   48.3780 C.3   406  LYS406      0.1561
    153  C          1.6580   30.5700   46.9450 C.2   406  LYS406      0.2260
    154  O          1.7110   29.7520   46.0100 O.2   406  LYS406     -0.2867
    155  CB         3.4550   30.1070   48.6740 C.3   406  LYS406      0.0271
    156  CG         4.3060   29.3420   47.6860 C.3   406  LYS406      0.0035
    157  CD         5.6480   29.0090   48.3300 C.3   406  LYS406      0.0206
    158  CE         6.6890   28.3560   47.3970 C.3   406  LYS406      0.1093
    159  NZ         7.9440   28.1260   48.2390 N.3   406  LYS406     -0.1314
    160  N          2.3990   33.6270   43.9720 N.3   408  LYS408     -0.1245
    161  CA         3.0940   34.8350   43.4900 C.3   408  LYS408      0.1561
    162  C          3.0100   35.1430   41.9800 C.2   408  LYS408      0.2260
    163  O          2.8690   34.2350   41.1680 O.2   408  LYS408     -0.2867
    164  CB         4.5350   34.9150   44.0150 C.3   408  LYS408      0.0271
    165  CG         5.4100   33.7470   43.7690 C.3   408  LYS408      0.0035
    166  CD         6.6770   33.9370   44.5980 C.3   408  LYS408      0.0206
    167  CE         7.4670   32.6410   44.7660 C.3   408  LYS408      0.1093
    168  NZ         8.5530   32.8200   45.7530 N.3   408  LYS408     -0.1314
    169  N          3.5270   32.8980   39.0570 N.3   411  TYR411     -0.1241
    170  CA         2.8050   31.6370   38.9830 C.3   411  TYR411      0.1605
    171  C          1.5840   31.6750   38.0690 C.2   411  TYR411      0.2264
    172  O          1.5290   30.9050   37.1230 O.2   411  TYR411     -0.2867
    173  CB         2.3990   31.1290   40.3590 C.3   411  TYR411      0.0534
    174  CG         3.5440   30.7370   41.2620 C.ar  411  TYR411     -0.0201
    175  CD1        3.3830   30.7360   42.6520 C.ar  411  TYR411     -0.0009
    176  CD2        4.7850   30.3510   40.7410 C.ar  411  TYR411     -0.0009
    177  CE1        4.4220   30.3640   43.4980 C.ar  411  TYR411      0.0417
    178  CE2        5.8380   29.9800   41.5890 C.ar  411  TYR411      0.0417
    179  CZ         5.6420   29.9970   42.9600 C.ar  411  TYR411      0.1957
    180  OH         6.6610   29.6470   43.8080 O.3   411  TYR411     -0.2866
    181  N         16.3550   36.6050   39.9260 N.3   505  ARG505     -0.1231
    182  CA        16.0500   35.7640   41.0750 C.3   505  ARG505      0.1694
    183  C         15.3320   34.5180   40.5720 C.2   505  ARG505      0.2592
    184  O         14.4230   34.6110   39.7700 O.2   505  ARG505     -0.2718
    185  CB        15.1900   36.5510   42.0530 C.3   505  ARG505      0.0321
    186  CG        14.9220   35.9020   43.3740 C.3   505  ARG505      0.0489
    187  CD        15.3110   36.8860   44.4320 C.3   505  ARG505      0.2205
    188  NE        14.2780   37.2050   45.4210 N.pl3 505  ARG505     -0.0865
    189  CZ        14.2880   36.7780   46.6740 C.cat 505  ARG505      0.5346
    190  NH1       15.2520   35.9680   47.0940 N.pl3 505  ARG505      0.1354
    191  NH2       13.3290   37.1430   47.5000 N.pl3 505  ARG505      0.1354
    192  N         15.7580   33.3560   41.0410 N.am  506  PHE506     -0.1976
    193  CA        15.2710   32.0540   40.5440 C.3   506  PHE506      0.1639
    194  C         15.0510   31.9860   39.0130 C.2   506  PHE506      0.2290
    195  O         13.9450   31.7380   38.5240 O.2   506  PHE506     -0.2864
    196  CB        14.0480   31.5630   41.3120 C.3   506  PHE506      0.0560
    197  CG        13.9610   32.0790   42.6970 C.ar  506  PHE506     -0.0200
    198  CD1       12.7760   32.5840   43.1760 C.ar  506  PHE506     -0.0042
    199  CD2       15.0540   32.0650   43.5270 C.ar  506  PHE506     -0.0042
    200  CE1       12.6770   33.0700   44.4690 C.ar  506  PHE506     -0.0003
    201  CE2       14.9670   32.5400   44.8190 C.ar  506  PHE506     -0.0003
    202  CZ        13.7750   33.0390   45.2950 C.ar  506  PHE506     -0.0000
@<TRIPOS>BOND
     1   172   171    2
     2   171   170    1
     3   195   194    2
     4   170   169    1
     5   170   173    1
     6   194   193    1
     7   184   183    2
     8   181   182    1
     9   173   174    1
    10   193   192    1
    11   193   196    1
    12   183   192   am
    13   183   182    1
    14   176   174   ar
    15   176   178   ar
    16   182   185    1
    17   163   162    2
    18   174   175   ar
    19   196   197    1
    20   178   179   ar
    21   162   161    1
    22   185   186    1
    23   175   177   ar
    24   197   198   ar
    25   197   199   ar
    26   179   177   ar
    27   179   180    1
    28   198   200   ar
    29   186   187    1
    30   161   160    1
    31   161   164    1
    32   199   201   ar
    33   165   164    1
    34   165   166    1
    35   187   188    1
    36   200   202   ar
    37   166   167    1
    38   167   168    1
    39   201   202   ar
    40   188   189    2
    41   154   153    2
    42   189   190    1
    43   189   191    1
    44   153   152    1
    45   158   159    1
    46   158   157    1
    47   156   157    1
    48   156   155    1
    49   135   134    1
    50   152   151    1
    51   152   155    1
    52    47    46    1
    53    67    65   ar
    54    46    45    1
    55   132   133    1
    56   132   131    1
    57   134   133    2
    58   134   136    1
    59    45    44    1
    60    20    19    2
    61    65    66   ar
    62    65    64    1
    63    19    18    1
    64   131   130    1
    65    44    43    1
    66   130   127    1
    67   140   139    2
    68   129   128    2
    69    43    40    1
    70    64    61    1
    71    18    21    1
    72    18    17    1
    73   110   111    1
    74   139   138    1
    75    42    41    2
    76   128   127    1
    77   111   112    1
    78   111   114    1
    79    61    60    1
    80    61    62    1
    81   127   126    1
    82    89    87    1
    83   116   114    1
    84    17    11   am
    85    40    39    1
    86    40    41    1
    87    39    33   am
    88    41    48   am
    89   112   113    2
    90    60    50   am
    91   114   115    1
    92    25    24    2
    93    15    14    1
    94    63    62    2
    95   138   137    1
    96   138   141    1
    97    37    35    1
    98    87    88    1
    99    87    86    2
   100    11    12    2
   101    11    10    1
   102    51    50    2
   103    13    14    1
   104    13    10    1
   105    50    49    1
   106    32    33    1
   107    32    35    1
   108    32    31    1
   109    33    34    2
   110    35    36    1
   111    48    49    1
   112   141   142    1
   113    86    85    1
   114    14    16    1
   115    24    31   am
   116    24    23    1
   117   117   118    1
   118    49    52    1
   119    10     9    1
   120    22    23    1
   121    85    84    1
   122   118   119    1
   123   118   121    1
   124    36    38    1
   125    23    26    1
   126    97    96   ar
   127   119   120    2
   128   142   143   ar
   129   142   144   ar
   130    84    83    1
   131     9     3   am
   132    52    53    1
   133   143   145   ar
   134    26    27    1
   135    83    80    1
   136   122   121    1
   137   122   123    1
   138   147   144   ar
   139   147   149   ar
   140   144   146   ar
   141    53    54   ar
   142    53    55   ar
   143    96    98   ar
   144    96    95    1
   145    54    56   ar
   146     3     4    2
   147     3     2    1
   148    27    28    1
   149    77    76    1
   150    55    57   ar
   151    56    58   ar
   152    95    94    1
   153   145   146   ar
   154     6     7    1
   155     6     5    1
   156   124   123    1
   157   124   125    1
   158   149   150   ar
   159    57    58   ar
   160    82    81    2
   161   146   148   ar
   162    68    69    1
   163    81    80    1
   164    80    79    1
   165    58    59    1
   166     7     8    1
   167    72    69    1
   168    72    73    1
   169     2     5    1
   170     2     1    1
   171    28    30   ar
   172    28    29   ar
   173    76    78    1
   174    76    75    2
   175    94    91    1
   176    69    70    1
   177    74    73    1
   178    74    75    1
   179   150   148   ar
   180   108   109   ar
   181   108   106   ar
   182   109   107   ar
   183    71    70    2
   184    91    92    1
   185    91    90    1
   186   106   104   ar
   187   107   105   ar
   188   104   105   ar
   189   104   103    1
   190    92    93    2
   191   103   100    1
   192   102   101    2
   193   100   101    1
   194   100    99    1
