@<TRIPOS>MOLECULE
tmp/3l2uA00.pdb
 90 88 0 0 0
SMALL
GASTEIGER

@<TRIPOS>ATOM
      1  N        -35.5480   31.6510  -10.4610 N.3   119  ASP119     -0.1225
      2  CA       -35.1260   31.3390  -11.8250 C.3   119  ASP119      0.1805
      3  C        -33.6080   31.2510  -11.9140 C.2   119  ASP119      0.2597
      4  O        -32.8930   31.7870  -11.0610 O.2   119  ASP119     -0.2718
      5  CB       -35.6380   32.3960  -12.8030 C.3   119  ASP119      0.1424
      6  CG       -35.5500   31.9520  -14.2450 C.2   119  ASP119      0.3668
      7  OD1      -35.4820   30.7390  -14.5070 O.co2 119  ASP119     -0.2456
      8  OD2      -35.5490   32.8170  -15.1380 O.co2 119  ASP119     -0.2456
      9  N        -33.1210   30.5590  -12.9360 N.am  120  TYR120     -0.1976
     10  CA       -31.7090   30.4930  -13.1880 C.3   120  TYR120      0.1639
     11  C        -31.3720   31.2990  -14.4170 C.2   120  TYR120      0.2290
     12  O        -32.1240   31.2870  -15.4040 O.2   120  TYR120     -0.2864
     13  CB       -31.2990   29.0730  -13.4470 C.3   120  TYR120      0.0560
     14  CG       -31.0030   28.2810  -12.2280 C.ar  120  TYR120     -0.0198
     15  CD1      -31.8400   27.2430  -11.8430 C.ar  120  TYR120     -0.0009
     16  CD2      -29.8740   28.5400  -11.4650 C.ar  120  TYR120     -0.0009
     17  CE1      -31.5770   26.4810  -10.7210 C.ar  120  TYR120      0.0417
     18  CE2      -29.5880   27.7770  -10.3380 C.ar  120  TYR120      0.0417
     19  CZ       -30.4500   26.7440   -9.9740 C.ar  120  TYR120      0.1957
     20  OH       -30.2000   25.9780   -8.8590 O.3   120  TYR120     -0.2866
     21  N        -40.6510   28.7220  -13.0550 N.3   176  ASP176     -0.1239
     22  CA       -40.9130   28.1170  -14.3750 C.3   176  ASP176      0.1674
     23  C        -40.8260   26.5970  -14.3170 C.2   176  ASP176      0.2266
     24  O        -40.6000   26.0330  -13.2570 O.2   176  ASP176     -0.2867
     25  CB       -40.0570   28.7350  -15.5180 C.3   176  ASP176      0.1410
     26  CG       -38.5000   28.5740  -15.3460 C.2   176  ASP176      0.3668
     27  OD1      -37.7980   29.5680  -15.6990 O.co2 176  ASP176     -0.2456
     28  OD2      -37.9670   27.4920  -14.9570 O.co2 176  ASP176     -0.2456
     29  N        -43.6040   27.2400  -21.1980 N.3   203  TYR203     -0.1227
     30  CA       -43.1090   28.0840  -22.2900 C.3   203  TYR203      0.1736
     31  C        -43.7920   29.4490  -22.3490 C.2   203  TYR203      0.2595
     32  O        -44.4070   29.8140  -23.3660 O.2   203  TYR203     -0.2718
     33  CB       -43.2590   27.3640  -23.6120 C.3   203  TYR203      0.0548
     34  CG       -42.3210   26.2130  -23.7960 C.ar  203  TYR203     -0.0200
     35  CD1      -41.2100   26.3390  -24.6260 C.ar  203  TYR203     -0.0009
     36  CD2      -42.5500   24.9890  -23.1740 C.ar  203  TYR203     -0.0009
     37  CE1      -40.3410   25.2770  -24.8380 C.ar  203  TYR203      0.0417
     38  CE2      -41.6840   23.9110  -23.3670 C.ar  203  TYR203      0.0417
     39  CZ       -40.5800   24.0630  -24.2060 C.ar  203  TYR203      0.1957
     40  OH       -39.7020   23.0230  -24.4210 O.3   203  TYR203     -0.2866
     41  N        -43.6580   30.1820  -21.2400 N.am  204  HIS204     -0.1962
     42  CA       -44.3190   31.4580  -21.0200 C.3   204  HIS204      0.1772
     43  C        -43.6450   32.2170  -19.8720 C.2   204  HIS204      0.2462
     44  O        -44.0450   32.0780  -18.7150 O.2   204  HIS204     -0.2730
     45  CB       -45.8020   31.2320  -20.7150 C.3   204  HIS204      0.0785
     46  CG       -46.6290   32.4680  -20.8310 C.ar  204  HIS204      0.0821
     47  ND1      -47.0440   33.1860  -19.7340 N.ar  204  HIS204     -0.2267
     48  CD2      -47.1030   33.1220  -21.9140 C.ar  204  HIS204      0.1154
     49  CE1      -47.7460   34.2280  -20.1380 C.ar  204  HIS204      0.1986
     50  NE2      -47.7930   34.2140  -21.4570 N.ar  204  HIS204     -0.2212
     51  N        -42.6090   33.0200  -20.1820 N.am  205  PRO205     -0.2716
     52  CA       -41.8990   33.6540  -19.0750 C.3   205  PRO205      0.1536
     53  C        -42.6020   34.8670  -18.4770 C.2   205  PRO205      0.2598
     54  O        -42.2460   35.2580  -17.3730 O.2   205  PRO205     -0.2715
     55  CB       -40.5420   34.0470  -19.6910 C.3   205  PRO205      0.0310
     56  CG       -40.4540   33.2760  -20.9650 C.3   205  PRO205      0.0237
     57  CD       -41.8760   33.2050  -21.4440 C.3   205  PRO205      0.0939
     58  N        -43.5830   35.4520  -19.1660 N.am  206  GLN206     -0.1978
     59  CA       -44.3310   36.5790  -18.5880 C.3   206  GLN206      0.1601
     60  C        -44.7890   36.2550  -17.1710 C.2   206  GLN206      0.2287
     61  O        -44.8040   37.1180  -16.3060 O.2   206  GLN206     -0.2864
     62  CB       -45.5730   36.9300  -19.4070 C.3   206  GLN206      0.0394
     63  CG       -45.3250   37.6820  -20.6810 C.3   206  GLN206      0.0908
     64  CD       -45.2480   36.7760  -21.9030 C.2   206  GLN206      0.2608
     65  OE1      -44.4120   35.8390  -21.9750 O.2   206  GLN206     -0.2717
     66  NE2      -46.1160   37.0560  -22.8840 N.am  206  GLN206     -0.0878
     67  N        -42.4220   37.0060  -14.6520 N.3   209  GLY209     -0.1225
     68  CA       -41.9560   38.3460  -15.0010 C.3   209  GLY209      0.1811
     69  C        -41.2610   39.0920  -13.8840 C.2   209  GLY209      0.2280
     70  O        -40.2990   39.8190  -14.1110 O.2   209  GLY209     -0.2866
     71  N        -37.9230   37.5530  -14.0390 N.3   212  GLU212     -0.1245
     72  CA       -37.2380   37.6590  -15.2900 C.3   212  GLU212      0.1567
     73  C        -36.8260   39.1040  -15.4670 C.2   212  GLU212      0.2260
     74  O        -35.6970   39.3680  -15.8890 O.2   212  GLU212     -0.2867
     75  CB       -38.1220   37.1740  -16.4300 C.3   212  GLU212      0.0388
     76  CG       -38.5020   35.6770  -16.3560 C.3   212  GLU212      0.1160
     77  CD       -37.3920   34.7310  -16.7880 C.2   212  GLU212      0.3649
     78  OE1      -36.2110   35.0930  -16.7220 O.co2 212  GLU212     -0.2457
     79  OE2      -37.6990   33.6000  -17.1890 O.co2 212  GLU212     -0.2457
     80  N        -40.6760   22.4910  -29.4060 N.3   320  ARG320     -0.1245
     81  CA       -39.3740   22.7460  -30.0000 C.3   320  ARG320      0.1563
     82  C        -39.4570   22.3070  -31.4620 C.2   320  ARG320      0.2260
     83  O        -38.7550   21.3740  -31.8790 O.2   320  ARG320     -0.2867
     84  CB       -38.2690   22.0010  -29.2160 C.3   320  ARG320      0.0307
     85  CG       -38.1030   22.3770  -27.7910 C.3   320  ARG320      0.0489
     86  CD       -37.6980   23.8140  -27.5690 C.3   320  ARG320      0.2205
     87  NE       -36.3490   24.0250  -28.0720 N.pl3 320  ARG320     -0.0865
     88  CZ       -35.7310   25.1650  -28.2570 C.cat 320  ARG320      0.5346
     89  NH1      -36.3980   26.3050  -28.0530 N.pl3 320  ARG320      0.1354
     90  NH2      -34.5540   25.1780  -28.8400 N.pl3 320  ARG320      0.1354
@<TRIPOS>BOND
     1    83    82    2
     2    82    81    1
     3    81    80    1
     4    81    84    1
     5    84    85    1
     6    90    88    1
     7    88    87    2
     8    88    89    1
     9    87    86    1
    10    85    86    1
    11    37    35   ar
    12    37    39   ar
    13    35    34   ar
    14    40    39    1
    15    39    38   ar
    16    34    33    1
    17    34    36   ar
    18    33    30    1
    19    38    36   ar
    20    32    31    2
    21    66    64   am
    22    31    30    1
    23    31    41   am
    24    30    29    1
    25    65    64    2
    26    48    50   ar
    27    48    46   ar
    28    64    63    1
    29    50    49   ar
    30    57    56    1
    31    57    51    1
    32    41    42    1
    33    42    45    1
    34    42    43    1
    35    56    55    1
    36    46    45    1
    37    46    47   ar
    38    63    62    1
    39    51    43   am
    40    51    52    1
    41    49    47   ar
    42    43    44    2
    43    55    52    1
    44    62    59    1
    45    58    59    1
    46    58    53   am
    47    52    53    1
    48    59    60    1
    49    53    54    2
    50    79    77   ar
    51    60    61    2
    52    77    78   ar
    53    77    76    1
    54    75    76    1
    55    75    72    1
    56    74    73    2
    57    27    26   ar
    58    25    26    1
    59    25    22    1
    60    73    72    1
    61    12    11    2
    62    26    28   ar
    63    72    71    1
    64     8     6   ar
    65    68    67    1
    66    68    69    1
    67     7     6   ar
    68    11    10    1
    69    22    23    1
    70    22    21    1
    71    23    24    2
    72     6     5    1
    73    70    69    2
    74    13    10    1
    75    13    14    1
    76    10     9    1
    77     9     3   am
    78     5     2    1
    79    14    15   ar
    80    14    16   ar
    81     3     2    1
    82     3     4    2
    83    15    17   ar
    84     2     1    1
    85    16    18   ar
    86    17    19   ar
    87    18    19   ar
    88    19    20    1
