@<TRIPOS>MOLECULE
tmp/3l2yA00.pdb
 98 88 0 0 0
SMALL
GASTEIGER

@<TRIPOS>ATOM
      1  N       -173.5040   47.4920   -1.7250 N.3    60  ASP60      -0.1225
      2  CA      -172.5620   47.8680   -0.6720 C.3    60  ASP60       0.1805
      3  C       -171.1320   48.0240   -1.1910 C.2    60  ASP60       0.2597
      4  O       -170.3360   48.7740   -0.6350 O.2    60  ASP60      -0.2718
      5  CB      -172.6270   46.8760    0.5030 C.3    60  ASP60       0.1424
      6  CG      -172.2840   45.4440    0.1000 C.2    60  ASP60       0.3668
      7  OD1     -172.6440   44.9970   -1.0120 O.co2  60  ASP60      -0.2456
      8  OD2     -171.6600   44.7440    0.9180 O.co2  60  ASP60      -0.2456
      9  N       -170.8290   47.3240   -2.2790 N.am   61  ASN61      -0.1974
     10  CA      -169.5180   47.3750   -2.8900 C.3    61  ASN61       0.1688
     11  C       -169.5700   47.9660   -4.2820 C.2    61  ASN61       0.2292
     12  O       -169.1470   47.3340   -5.2540 O.2    61  ASN61      -0.2864
     13  CB      -168.9090   45.9810   -2.9080 C.3    61  ASN61       0.1181
     14  CG      -168.7720   45.4030   -1.5130 C.2    61  ASN61       0.2629
     15  OD1     -169.0920   46.0630   -0.5280 O.2    61  ASN61      -0.2716
     16  ND2     -168.2870   44.1750   -1.4210 N.am   61  ASN61      -0.0877
     17  N       -164.9920   49.4390   -4.4570 N.3    64  LEU64      -0.1245
     18  CA      -164.2490   48.9860   -3.2800 C.3    64  LEU64       0.1561
     19  C       -162.7880   48.6910   -3.5700 C.2    64  LEU64       0.2260
     20  O       -162.4660   47.7980   -4.3470 O.2    64  LEU64      -0.2867
     21  CB      -164.9030   47.7610   -2.6420 C.3    64  LEU64       0.0270
     22  CG      -164.1280   47.2480   -1.4300 C.3    64  LEU64       0.0019
     23  CD1     -164.1600   48.2730   -0.3040 C.3    64  LEU64       0.0001
     24  CD2     -164.6580   45.9110   -0.9440 C.3    64  LEU64       0.0001
     25  N       -159.6350   47.2840   -1.6840 N.3    66  PHE66      -0.1241
     26  CA      -159.4980   46.4320   -0.5120 C.3    66  PHE66       0.1605
     27  C       -158.1980   45.6450   -0.5920 C.2    66  PHE66       0.2264
     28  O       -157.7410   45.2940   -1.6760 O.2    66  PHE66      -0.2867
     29  CB      -160.6660   45.4670   -0.5050 C.3    66  PHE66       0.0534
     30  CG      -160.8050   44.6700    0.7520 C.ar   66  PHE66      -0.0203
     31  CD1     -161.5730   45.1400    1.8030 C.ar   66  PHE66      -0.0042
     32  CD2     -160.2140   43.4210    0.8650 C.ar   66  PHE66      -0.0042
     33  CE1     -161.7290   44.3860    2.9550 C.ar   66  PHE66      -0.0003
     34  CE2     -160.3580   42.6710    2.0170 C.ar   66  PHE66      -0.0003
     35  CZ      -161.1180   43.1550    3.0590 C.ar   66  PHE66      -0.0000
     36  N       -156.7340   42.1280    0.3680 N.3    68  SER68      -0.1217
     37  CA      -157.0940   40.8180    0.9010 C.3    68  SER68       0.1889
     38  C       -155.8400   39.9910    1.2450 C.2    68  SER68       0.2288
     39  O       -154.8690   39.9590    0.4820 O.2    68  SER68      -0.2866
     40  CB      -158.0770   40.0830   -0.0190 C.3    68  SER68       0.2089
     41  OG      -157.4300   39.6100   -1.1730 O.3    68  SER68      -0.2183
     42  N       -157.5430   44.0760   -4.0430 N.3    74  SER74      -0.1217
     43  CA      -158.7970   43.6680   -4.6440 C.3    74  SER74       0.1889
     44  C       -159.5920   44.9050   -5.0530 C.2    74  SER74       0.2288
     45  O       -159.8210   45.8110   -4.2500 O.2    74  SER74      -0.2866
     46  CB      -159.6030   42.8240   -3.6590 C.3    74  SER74       0.2089
     47  OG      -160.9380   43.2790   -3.5920 O.3    74  SER74      -0.2183
     48  N       -163.1510   46.2770   -6.6610 N.3    76  THR76      -0.1218
     49  CA      -164.5180   45.8890   -6.9240 C.3    76  THR76       0.1862
     50  C       -165.3580   47.0380   -7.4850 C.2    76  THR76       0.2287
     51  O       -165.3810   48.1360   -6.9260 O.2    76  THR76      -0.2866
     52  CB      -165.1870   45.3570   -5.6440 C.3    76  THR76       0.1770
     53  OG1     -164.3600   44.3480   -5.0440 O.3    76  THR76      -0.2211
     54  CG2     -166.5620   44.7890   -5.9590 C.3    76  THR76       0.0375
     55  N       -165.4740   41.5940   -8.5850 N.3    81  GLU81      -0.1245
     56  CA      -164.1270   41.7470   -8.0550 C.3    81  GLU81       0.1567
     57  C       -163.0800   41.2550   -9.0410 C.2    81  GLU81       0.2260
     58  O       -163.2630   40.2250   -9.6710 O.2    81  GLU81      -0.2867
     59  CB      -164.0120   40.9670   -6.7380 C.3    81  GLU81       0.0388
     60  CG      -162.6560   41.0200   -6.0580 C.3    81  GLU81       0.1160
     61  CD      -162.5650   40.0880   -4.8590 C.2    81  GLU81       0.3649
     62  OE1     -162.8690   38.8860   -5.0340 O.co2  81  GLU81      -0.2457
     63  OE2     -162.1890   40.5540   -3.7530 O.co2  81  GLU81      -0.2457
     64  N       -165.2440   48.9780    6.2600 N.3   138  GLU138     -0.1245
     65  CA      -165.7900   48.4090    5.0390 C.3   138  GLU138      0.1567
     66  C       -167.3010   48.3250    5.2180 C.2   138  GLU138      0.2260
     67  O       -167.7860   47.7620    6.1960 O.2   138  GLU138     -0.2867
     68  CB      -165.1960   47.0260    4.7600 C.3   138  GLU138      0.0388
     69  CG      -165.2540   46.5840    3.2910 C.3   138  GLU138      0.1160
     70  CD      -166.6610   46.2640    2.8120 C.2   138  GLU138      0.3649
     71  OE1     -167.3450   45.4900    3.5090 O.co2 138  GLU138     -0.2457
     72  OE2     -167.0860   46.7860    1.7480 O.co2 138  GLU138     -0.2457
     73  N       -171.0810   47.1520    4.6410 N.3   140  ASP140     -0.1239
     74  CA      -171.9130   46.0470    4.1820 C.3   140  ASP140      0.1674
     75  C       -173.3420   46.5240    3.9370 C.2   140  ASP140      0.2266
     76  O       -174.1810   45.7910    3.4270 O.2   140  ASP140     -0.2867
     77  CB      -171.8960   44.9070    5.1910 C.3   140  ASP140      0.1410
     78  CG      -170.6990   44.0150    5.0260 C.2   140  ASP140      0.3668
     79  OD1     -170.0660   44.0810    3.9510 O.co2 140  ASP140     -0.2456
     80  OD2     -170.3940   43.2460    5.9610 O.co2 140  ASP140     -0.2456
     81  N       -167.3900   45.6240    9.6510 N.3   147  GLU147     -0.1245
     82  CA      -166.7530   44.4660   10.2690 C.3   147  GLU147      0.1567
     83  C       -165.3860   44.9110   10.7610 C.2   147  GLU147      0.2260
     84  O       -164.6030   45.4890   10.0070 O.2   147  GLU147     -0.2867
     85  CB      -166.5670   43.3060    9.2770 C.3   147  GLU147      0.0388
     86  CG      -167.8270   42.7400    8.6410 C.3   147  GLU147      0.1160
     87  CD      -167.5580   41.4420    7.8640 C.2   147  GLU147      0.3649
     88  OE1     -167.1430   40.4490    8.4970 O.co2 147  GLU147     -0.2457
     89  OE2     -167.7570   41.4020    6.6250 O.co2 147  GLU147     -0.2457
     90  N       -162.1060   44.0150    9.1620 N.3   150  GLN150     -0.1245
     91  CA      -161.8540   44.6320    7.8610 C.3   150  GLN150      0.1566
     92  C       -161.5070   46.1130    7.9660 C.2   150  GLN150      0.2260
     93  O       -161.3750   46.7950    6.9570 O.2   150  GLN150     -0.2867
     94  CB      -163.0490   44.4290    6.9290 C.3   150  GLN150      0.0367
     95  CG      -163.2300   42.9880    6.5100 C.3   150  GLN150      0.0905
     96  CD      -164.3590   42.8220    5.5290 C.2   150  GLN150      0.2608
     97  OE1     -165.2930   43.5970    5.5480 O.2   150  GLN150     -0.2717
     98  NE2     -164.2720   41.8160    4.6590 N.am  150  GLN150     -0.0878
@<TRIPOS>BOND
     1    58    57    2
     2    57    56    1
     3    55    56    1
     4    56    59    1
     5    50    51    2
     6    50    49    1
     7    49    48    1
     8    49    52    1
     9    59    60    1
    10    60    61    1
    11    54    52    1
    12    52    53    1
    13    12    11    2
    14    44    43    1
    15    44    45    2
    16    62    61   ar
    17    61    63   ar
    18    43    42    1
    19    43    46    1
    20    17    18    1
    21    20    19    2
    22    11    10    1
    23    46    47    1
    24    19    18    1
    25    18    21    1
    26    13    10    1
    27    13    14    1
    28    10     9    1
    29    21    22    1
    30     9     3   am
    31     1     2    1
    32    25    26    1
    33    28    27    2
    34    14    16   am
    35    14    15    2
    36    22    24    1
    37    22    23    1
    38     3     2    1
    39     3     4    2
    40    41    40    1
    41     7     6   ar
    42     2     5    1
    43    27    26    1
    44    26    29    1
    45    29    30    1
    46    40    37    1
    47     6     5    1
    48     6     8   ar
    49    36    37    1
    50    39    38    2
    51    30    32   ar
    52    30    31   ar
    53    32    34   ar
    54    37    38    1
    55    72    70   ar
    56    31    33   ar
    57    34    35   ar
    58    70    69    1
    59    70    71   ar
    60    33    35   ar
    61    69    68    1
    62    76    75    2
    63    75    74    1
    64    79    78   ar
    65    74    73    1
    66    74    77    1
    67    98    96   am
    68    68    65    1
    69    78    77    1
    70    78    80   ar
    71    65    66    1
    72    65    64    1
    73    66    67    2
    74    96    97    2
    75    96    95    1
    76    95    94    1
    77    89    87   ar
    78    94    91    1
    79    93    92    2
    80    91    92    1
    81    91    90    1
    82    87    88   ar
    83    87    86    1
    84    86    85    1
    85    85    82    1
    86    81    82    1
    87    84    83    2
    88    82    83    1
