@<TRIPOS>MOLECULE
tmp/3l30A00.pdb
 127 125 0 0 0
SMALL
GASTEIGER

@<TRIPOS>ATOM
      1  N        -33.8050   10.0600   22.6780 N.3     2  LEU2       -0.1245
      2  CA       -33.1930   11.3420   22.4280 C.3     2  LEU2        0.1561
      3  C        -31.6650   11.3920   22.6390 C.2     2  LEU2        0.2260
      4  O        -30.9420   11.9030   21.7730 O.2     2  LEU2       -0.2867
      5  CB       -33.8190   12.3630   23.3450 C.3     2  LEU2        0.0270
      6  CG       -33.2700   13.7750   23.1880 C.3     2  LEU2        0.0019
      7  CD1      -33.6040   14.2640   21.7860 C.3     2  LEU2        0.0001
      8  CD2      -33.9620   14.6300   24.2520 C.3     2  LEU2        0.0001
      9  N        -29.8090   10.0210   19.8120 N.3     5  PHE5       -0.1241
     10  CA       -29.8000   10.8390   18.6220 C.3     5  PHE5        0.1605
     11  C        -28.6610   11.8630   18.7490 C.2     5  PHE5        0.2264
     12  O        -27.8990   12.1000   17.8140 O.2     5  PHE5       -0.2867
     13  CB       -31.1600   11.5380   18.4790 C.3     5  PHE5        0.0534
     14  CG       -31.3040   12.3470   17.2320 C.ar    5  PHE5       -0.0203
     15  CD1      -30.6930   11.9530   16.0500 C.ar    5  PHE5       -0.0042
     16  CD2      -32.1190   13.4800   17.2250 C.ar    5  PHE5       -0.0042
     17  CE1      -30.8330   12.6770   14.8900 C.ar    5  PHE5       -0.0003
     18  CE2      -32.3000   14.2330   16.0650 C.ar    5  PHE5       -0.0003
     19  CZ       -31.6340   13.8310   14.8780 C.ar    5  PHE5       -0.0000
     20  N        -27.8290   22.3690   16.7740 N.3    22  PHE22      -0.1227
     21  CA       -29.0590   21.9680   16.0760 C.3    22  PHE22       0.1736
     22  C        -30.3790   22.1510   16.8200 C.2    22  PHE22       0.2595
     23  O        -31.4160   22.0930   16.2210 O.2    22  PHE22      -0.2718
     24  CB       -28.9420   20.5270   15.6130 C.3    22  PHE22       0.0547
     25  CG       -27.7640   20.3010   14.7720 C.ar   22  PHE22      -0.0202
     26  CD1      -27.7510   20.7420   13.4620 C.ar   22  PHE22      -0.0042
     27  CD2      -26.6230   19.7280   15.2980 C.ar   22  PHE22      -0.0042
     28  CE1      -26.5980   20.5880   12.6620 C.ar   22  PHE22      -0.0003
     29  CE2      -25.4500   19.5620   14.5000 C.ar   22  PHE22      -0.0003
     30  CZ       -25.4410   19.9820   13.1930 C.ar   22  PHE22      -0.0000
     31  N        -30.3750   22.3430   18.1130 N.am   23  ASN23      -0.1974
     32  CA       -31.6160   22.6780   18.7660 C.3    23  ASN23       0.1688
     33  C        -31.9490   24.1500   18.4710 C.2    23  ASN23       0.2292
     34  O        -31.1050   25.0530   18.5200 O.2    23  ASN23      -0.2864
     35  CB       -31.5240   22.3300   20.2690 C.3    23  ASN23       0.1181
     36  CG       -32.7780   22.6800   21.0440 C.2    23  ASN23       0.2629
     37  OD1      -32.7730   23.6030   21.8950 O.2    23  ASN23      -0.2716
     38  ND2      -33.8580   21.9530   20.7750 N.am   23  ASN23      -0.0877
     39  N        -37.7470   24.0800   11.8640 N.3    28  TYR28      -0.1227
     40  CA       -38.0850   22.6790   12.2300 C.3    28  TYR28       0.1736
     41  C        -37.1710   21.9860   13.2600 C.2    28  TYR28       0.2596
     42  O        -37.6170   21.0110   13.8810 O.2    28  TYR28      -0.2718
     43  CB       -38.2130   21.7880   10.9570 C.3    28  TYR28       0.0548
     44  CG       -39.5420   22.0440   10.3810 C.ar   28  TYR28      -0.0200
     45  CD1      -40.6680   21.3360   10.8280 C.ar   28  TYR28      -0.0009
     46  CD2      -39.7250   23.0770    9.4800 C.ar   28  TYR28      -0.0009
     47  CE1      -41.9020   21.6360   10.3510 C.ar   28  TYR28       0.0417
     48  CE2      -40.9640   23.3650    8.9890 C.ar   28  TYR28       0.0417
     49  CZ       -42.0460   22.6650    9.4380 C.ar   28  TYR28       0.1957
     50  OH       -43.2920   23.0020    8.9510 O.3    28  TYR28      -0.2866
     51  N        -35.9220   22.4450   13.3990 N.am   29  CYS29      -0.1956
     52  CA       -34.9810   21.8820   14.3910 C.3    29  CYS29       0.1843
     53  C        -35.2740   22.3830   15.8090 C.2    29  CYS29       0.2626
     54  O        -34.9830   23.5390   16.1590 O.2    29  CYS29      -0.2714
     55  CB       -33.5460   22.2400   14.0480 C.3    29  CYS29       0.0997
     56  SG       -33.0590   21.8700   12.3960 S.3    29  CYS29      -0.0797
     57  N        -35.8420   21.5730   16.6520 N.am   30  GLY30      -0.1940
     58  CA       -36.5930   22.2250   17.7600 C.3    30  GLY30       0.2014
     59  C        -37.9470   21.5470   17.9610 C.2    30  GLY30       0.2639
     60  O        -38.3990   20.7430   17.1030 O.2    30  GLY30      -0.2714
     61  N        -38.5590   21.8170   19.1150 N.am   31  LEU31      -0.1963
     62  CA       -39.8750   21.2880   19.4800 C.3    31  LEU31       0.1728
     63  C        -40.8740   21.7670   18.3960 C.2    31  LEU31       0.2616
     64  O        -40.8780   22.9420   18.0970 O.2    31  LEU31      -0.2715
     65  CB       -40.2970   21.8480   20.8480 C.3    31  LEU31       0.0311
     66  CG       -41.6970   21.3310   21.1980 C.3    31  LEU31       0.0022
     67  CD1      -41.6370   19.8380   21.5910 C.3    31  LEU31       0.0001
     68  CD2      -42.4310   22.1710   22.2460 C.3    31  LEU31       0.0001
     69  N        -41.6750   20.8700   17.8230 N.am   32  GLY32      -0.1955
     70  CA       -42.6060   21.1980   16.7220 C.3    32  GLY32       0.1869
     71  C        -41.9210   21.7970   15.4740 C.2    32  GLY32       0.2309
     72  O        -40.8090   21.4060   15.1090 O.2    32  GLY32      -0.2863
     73  N        -34.4290   18.4790    9.4500 N.3    45  CYS45      -0.1235
     74  CA       -35.1800   18.4640   10.6780 C.3    45  CYS45       0.1677
     75  C        -36.6630   18.2400   10.4540 C.2    45  CYS45       0.2270
     76  O        -37.2760   17.4890   11.2080 O.2    45  CYS45      -0.2867
     77  CB       -34.9970   19.7610   11.4330 C.3    45  CYS45       0.0956
     78  SG       -33.3760   19.8730   12.2000 S.3    45  CYS45      -0.0801
     79  N        -37.0700   14.6940    9.7460 N.3    48  HIS48      -0.1226
     80  CA       -37.0200   13.9530   11.0680 C.3    48  HIS48       0.1752
     81  C        -38.3550   14.0610   11.8250 C.2    48  HIS48       0.2596
     82  O        -38.9080   13.0310   12.2950 O.2    48  HIS48      -0.2718
     83  CB       -35.8260   14.4220   11.9010 C.3    48  HIS48       0.0759
     84  CG       -35.5860   13.6600   13.1710 C.ar   48  HIS48       0.0818
     85  ND1      -35.8450   14.1980   14.4230 N.ar   48  HIS48      -0.2268
     86  CD2      -34.9980   12.4620   13.3970 C.ar   48  HIS48       0.1154
     87  CE1      -35.4440   13.3480   15.3540 C.ar   48  HIS48       0.1986
     88  NE2      -34.9250   12.2880   14.7570 N.ar   48  HIS48      -0.2212
     89  N        -38.9030   15.2740   11.9040 N.am   49  ASP49      -0.1974
     90  CA       -40.1940   15.4390   12.5560 C.3    49  ASP49       0.1709
     91  C        -41.2620   14.5220   11.8880 C.2    49  ASP49       0.2293
     92  O        -42.0570   13.8360   12.6100 O.2    49  ASP49      -0.2864
     93  CB       -40.7290   16.8590   12.4480 C.3    49  ASP49       0.1436
     94  CG       -39.9890   17.8850   13.3160 C.2    49  ASP49       0.3671
     95  OD1      -38.9290   17.5940   13.9370 O.co2  49  ASP49      -0.2456
     96  OD2      -40.5100   19.0530   13.3510 O.co2  49  ASP49      -0.2456
     97  N        -44.0560    9.3820   22.7690 N.3    67  ASN67      -0.1240
     98  CA       -42.9670   10.1380   22.2280 C.3    67  ASN67       0.1653
     99  C        -41.9200    9.1380   21.8350 C.2    67  ASN67       0.2266
    100  O        -41.4420    8.4020   22.6860 O.2    67  ASN67      -0.2867
    101  CB       -42.4730   11.1300   23.2860 C.3    67  ASN67       0.1155
    102  CG       -41.3870   12.0970   22.7570 C.2    67  ASN67       0.2627
    103  OD1      -40.7780   11.8940   21.6900 O.2    67  ASN67      -0.2716
    104  ND2      -41.1490   13.1720   23.5230 N.am   67  ASN67      -0.0877
    105  N        -39.0490    9.6140   21.1710 N.3    69  TYR69      -0.1241
    106  CA       -37.7880    9.9460   21.8050 C.3    69  TYR69       0.1605
    107  C        -37.5270    9.1390   23.0400 C.2    69  TYR69       0.2264
    108  O        -36.3700    9.1000   23.4960 O.2    69  TYR69      -0.2867
    109  CB       -37.7080   11.3990   22.1960 C.3    69  TYR69       0.0534
    110  CG       -37.1550   12.2610   21.1270 C.ar   69  TYR69      -0.0201
    111  CD1      -35.9310   11.9400   20.4920 C.ar   69  TYR69      -0.0009
    112  CD2      -37.8320   13.4080   20.7580 C.ar   69  TYR69      -0.0009
    113  CE1      -35.4000   12.7560   19.5010 C.ar   69  TYR69       0.0417
    114  CE2      -37.3610   14.2120   19.7760 C.ar   69  TYR69       0.0417
    115  CZ       -36.1380   13.9240   19.1660 C.ar   69  TYR69       0.1957
    116  OH       -35.7220   14.7990   18.1800 O.3    69  TYR69      -0.2866
    117  N        -27.9050   15.9700    8.4580 N.3   106  PHE106     -0.1241
    118  CA       -27.2540   17.1000    9.1270 C.3   106  PHE106      0.1605
    119  C        -25.8070   17.2140    8.7040 C.2   106  PHE106      0.2264
    120  O        -25.3100   18.3260    8.5410 O.2   106  PHE106     -0.2867
    121  CB       -27.2500   16.9110   10.6280 C.3   106  PHE106      0.0534
    122  CG       -28.6010   17.0350   11.3030 C.ar  106  PHE106     -0.0203
    123  CD1      -29.7880   17.1670   10.5910 C.ar  106  PHE106     -0.0042
    124  CD2      -28.6670   16.9980   12.6950 C.ar  106  PHE106     -0.0042
    125  CE1      -31.0230   17.2230   11.2620 C.ar  106  PHE106     -0.0003
    126  CE2      -29.8810   17.0910   13.3520 C.ar  106  PHE106     -0.0003
    127  CZ       -31.0690   17.2180   12.6400 C.ar  106  PHE106     -0.0000
@<TRIPOS>BOND
     1   117   118    1
     2   120   119    2
     3   119   118    1
     4    50    49    1
     5    48    49   ar
     6    48    46   ar
     7   118   121    1
     8    49    47   ar
     9    73    74    1
    10    46    44   ar
    11    79    80    1
    12    47    45   ar
    13    44    45   ar
    14    44    43    1
    15    75    74    1
    16    75    76    2
    17   123   125   ar
    18   123   122   ar
    19   121   122    1
    20    74    77    1
    21    43    40    1
    22    80    81    1
    23    80    83    1
    24   125   127   ar
    25   122   124   ar
    26    77    78    1
    27    81    89   am
    28    81    82    2
    29    39    40    1
    30    91    90    1
    31    91    92    2
    32    83    84    1
    33    89    90    1
    34    78    56    1
    35    40    41    1
    36    56    55    1
    37    93    90    1
    38    93    94    1
    39   127   126   ar
    40    28    30   ar
    41    28    26   ar
    42   124   126   ar
    43    84    86   ar
    44    84    85   ar
    45    30    29   ar
    46    41    51   am
    47    41    42    2
    48    94    96   ar
    49    94    95   ar
    50    86    88   ar
    51    51    52    1
    52    26    25   ar
    53    55    52    1
    54    52    53    1
    55    85    87   ar
    56    29    27   ar
    57    88    87   ar
    58    25    27   ar
    59    25    24    1
    60    19    17   ar
    61    19    18   ar
    62    17    15   ar
    63    72    71    2
    64    71    70    1
    65    24    21    1
    66    53    54    2
    67    53    57   am
    68    15    14   ar
    69    18    16   ar
    70    21    20    1
    71    21    22    1
    72    23    22    2
    73    57    58    1
    74    70    69    1
    75    22    31   am
    76    60    59    2
    77    16    14   ar
    78    14    13    1
    79    58    59    1
    80    12    11    2
    81    69    63   am
    82    59    61   am
    83    64    63    2
    84    31    32    1
    85   116   115    1
    86    63    62    1
    87    33    34    2
    88    33    32    1
    89    13    10    1
    90    10    11    1
    91    10     9    1
    92    32    35    1
    93    61    62    1
    94   115   113   ar
    95   115   114   ar
    96    62    65    1
    97   113   111   ar
    98   114   112   ar
    99    35    36    1
   100   111   110   ar
   101   112   110   ar
   102    38    36   am
   103    65    66    1
   104    36    37    2
   105   110   109    1
   106   105   106    1
   107    66    67    1
   108    66    68    1
   109   103   102    2
   110     4     3    2
   111     7     6    1
   112   106   109    1
   113   106   107    1
   114    99    98    1
   115    99   100    2
   116    98    97    1
   117    98   101    1
   118     2     3    1
   119     2     1    1
   120     2     5    1
   121   102   101    1
   122   102   104   am
   123   107   108    2
   124     6     5    1
   125     6     8    1
