@<TRIPOS>MOLECULE
tmp/3l31A00.pdb
 144 141 0 0 0
SMALL
GASTEIGER

@<TRIPOS>ATOM
      1  N        -10.3760  -17.4060   20.5670 N.3    35  LYS35      -0.1231
      2  CA       -11.5930  -16.8790   19.9250 C.3    35  LYS35       0.1693
      3  C        -12.6430  -16.4960   20.9170 C.2    35  LYS35       0.2592
      4  O        -13.5590  -15.7790   20.5830 O.2    35  LYS35      -0.2718
      5  CB       -12.2190  -17.8790   18.9720 C.3    35  LYS35       0.0285
      6  CG       -11.2880  -18.3280   17.8830 C.3    35  LYS35       0.0035
      7  CD       -11.7630  -19.6180   17.1900 C.3    35  LYS35       0.0206
      8  CE       -10.5630  -20.1980   16.4180 C.3    35  LYS35       0.1093
      9  NZ       -10.9030  -21.0520   15.2580 N.3    35  LYS35      -0.1314
     10  N        -12.5440  -17.0170   22.1240 N.am   36  SER36      -0.1952
     11  CA       -13.4950  -16.6600   23.1960 C.3    36  SER36       0.1924
     12  C        -12.8240  -16.9730   24.5210 C.2    36  SER36       0.2314
     13  O        -11.8880  -17.7140   24.5290 O.2    36  SER36      -0.2863
     14  CB       -14.8220  -17.3940   23.0760 C.3    36  SER36       0.2116
     15  OG       -14.6700  -18.8030   23.3010 O.3    36  SER36      -0.2180
     16  N        -19.4300  -15.7600   28.9150 N.3    49  MET49      -0.1245
     17  CA       -18.4470  -15.9630   27.8670 C.3    49  MET49       0.1570
     18  C        -18.3170  -14.7160   27.0500 C.2    49  MET49       0.2261
     19  O        -19.3180  -14.0230   26.7730 O.2    49  MET49      -0.2867
     20  CB       -18.7750  -17.1170   26.9520 C.3    49  MET49       0.0387
     21  CG       -18.6210  -18.4970   27.6310 C.3    49  MET49       0.0595
     22  SD       -16.9230  -19.0040   28.0340 S.3    49  MET49      -0.1393
     23  CE       -16.3180  -19.1450   26.3120 C.3    49  MET49       0.0692
     24  N        -16.7820  -13.5320   23.4670 N.3    51  SER51      -0.1202
     25  CA       -16.2810  -13.8440   22.1270 C.3    51  SER51       0.2020
     26  C        -15.8360  -12.6470   21.3860 C.2    51  SER51       0.2619
     27  O        -16.4280  -11.5940   21.5260 O.2    51  SER51      -0.2717
     28  CB       -17.3610  -14.4200   21.2300 C.3    51  SER51       0.2103
     29  OG       -17.6810  -15.7000   21.7010 O.3    51  SER51      -0.2182
     30  N        -14.8420  -12.8530   20.5260 N.am   52  THR52      -0.1938
     31  CA       -14.4030  -11.8130   19.6030 C.3    52  THR52       0.2028
     32  C        -15.6230  -11.3140   18.8520 C.2    52  THR52       0.2643
     33  O        -15.6570  -10.1730   18.4440 O.2    52  THR52      -0.2714
     34  CB       -13.3890  -12.3220   18.5500 C.3    52  THR52       0.1808
     35  OG1      -14.0110  -13.3720   17.8590 O.3    52  THR52      -0.2208
     36  CG2      -12.0790  -12.8780   19.1640 C.3    52  THR52       0.0379
     37  N        -16.6360  -12.1490   18.6430 N.am   53  SER53      -0.1935
     38  CA       -17.8380  -11.6680   17.9330 C.3    53  SER53       0.2055
     39  C        -18.6170  -10.6550   18.7310 C.2    53  SER53       0.2643
     40  O        -19.1720   -9.6980   18.1700 O.2    53  SER53      -0.2714
     41  CB       -18.7540  -12.7940   17.4710 C.3    53  SER53       0.2130
     42  OG       -19.1720  -13.5990   18.5690 O.3    53  SER53      -0.2179
     43  N        -18.6560  -10.8550   20.0310 N.am   54  ASN54      -0.1971
     44  CA       -19.2190   -9.8560   20.9320 C.3    54  ASN54       0.1688
     45  C        -18.4940   -8.4970   20.8460 C.2    54  ASN54       0.2292
     46  O        -19.1040   -7.4570   20.7130 O.2    54  ASN54      -0.2864
     47  CB       -19.1360  -10.3070   22.3770 C.3    54  ASN54       0.1181
     48  CG       -19.9280  -11.5620   22.6560 C.2    54  ASN54       0.2629
     49  OD1      -19.4040  -12.4970   23.2780 O.2    54  ASN54      -0.2716
     50  ND2      -21.2170  -11.5960   22.2200 N.am   54  ASN54      -0.0877
     51  N        -21.6970  -12.6730   26.7610 N.3   188  THR188     -0.1218
     52  CA       -22.8810  -13.4750   26.9800 C.3   188  THR188      0.1862
     53  C        -22.9670  -13.9850   28.4270 C.2   188  THR188      0.2287
     54  O        -22.0180  -14.5220   28.9550 O.2   188  THR188     -0.2866
     55  CB       -22.9960  -14.6740   25.9930 C.3   188  THR188      0.1770
     56  OG1      -22.9580  -14.1730   24.6680 O.3   188  THR188     -0.2211
     57  CG2      -24.3370  -15.4240   26.1890 C.3   188  THR188      0.0375
     58  N        -26.3790  -15.3790   29.4970 N.3   190  ASP190     -0.1225
     59  CA       -27.4710  -16.3600   29.5180 C.3   190  ASP190      0.1805
     60  C        -27.1570  -17.6260   28.7450 C.2   190  ASP190      0.2598
     61  O        -26.4600  -17.6210   27.7180 O.2   190  ASP190     -0.2718
     62  CB       -28.7570  -15.7460   28.9450 C.3   190  ASP190      0.1424
     63  CG       -29.1370  -14.4540   29.6260 C.2   190  ASP190      0.3668
     64  OD1      -29.4390  -14.5020   30.8490 O.co2 190  ASP190     -0.2456
     65  OD2      -29.1260  -13.3780   28.9560 O.co2 190  ASP190     -0.2456
     66  N        -27.7450  -18.7020   29.2210 N.am  191  ASN191     -0.1960
     67  CA       -27.7400  -19.9400   28.4980 C.3   191  ASN191      0.1819
     68  C        -26.3260  -20.3860   28.1770 C.2   191  ASN191      0.2621
     69  O        -25.9880  -20.8080   27.0500 O.2   191  ASN191     -0.2715
     70  CB       -28.6110  -19.7880   27.2400 C.3   191  ASN191      0.1195
     71  CG       -30.0350  -19.3110   27.5900 C.2   191  ASN191      0.2630
     72  OD1      -30.7500  -20.0140   28.2750 O.2   191  ASN191     -0.2716
     73  ND2      -30.3940  -18.0910   27.1980 N.am  191  ASN191     -0.0877
     74  N        -25.5200  -20.3360   29.2190 N.am  192  LEU192     -0.1963
     75  CA       -24.0960  -20.7060   29.1440 C.3   192  LEU192      0.1728
     76  C        -23.9680  -22.1890   29.0690 C.2   192  LEU192      0.2616
     77  O        -24.4330  -22.8940   29.9200 O.2   192  LEU192     -0.2715
     78  CB       -23.3250  -20.1850   30.3800 C.3   192  LEU192      0.0311
     79  CG       -23.3580  -18.6780   30.5180 C.3   192  LEU192      0.0022
     80  CD1      -22.6270  -18.1670   31.7540 C.3   192  LEU192      0.0001
     81  CD2      -22.8010  -18.0940   29.2290 C.3   192  LEU192      0.0001
     82  N        -23.3410  -22.6840   28.0290 N.am  193  VAL193     -0.1977
     83  CA       -23.0960  -24.1260   27.9470 C.3   193  VAL193      0.1596
     84  C        -21.6790  -24.4180   28.5130 C.2   193  VAL193      0.2287
     85  O        -20.6550  -24.1150   27.9140 O.2   193  VAL193     -0.2864
     86  CB       -23.3410  -24.6590   26.4930 C.3   193  VAL193      0.0276
     87  CG1      -23.1130  -26.1680   26.4080 C.3   193  VAL193      0.0022
     88  CG2      -24.7670  -24.3080   26.0270 C.3   193  VAL193      0.0022
     89  N        -22.8450  -24.2730   18.2380 N.3   212  ARG212     -0.1231
     90  CA       -21.7210  -23.9660   17.3580 C.3   212  ARG212      0.1694
     91  C        -20.6410  -23.0980   18.0000 C.2   212  ARG212      0.2592
     92  O        -19.8670  -22.4280   17.3060 O.2   212  ARG212     -0.2718
     93  CB       -22.2560  -23.2630   16.1080 C.3   212  ARG212      0.0321
     94  CG       -23.0840  -24.1650   15.2450 C.3   212  ARG212      0.0489
     95  CD       -22.2020  -25.1920   14.5970 C.3   212  ARG212      0.2205
     96  NE       -21.2350  -24.5850   13.6760 N.pl3 212  ARG212     -0.0865
     97  CZ       -21.3580  -24.5960   12.3510 C.cat 212  ARG212      0.5346
     98  NH1      -22.4080  -25.1660   11.7860 N.pl3 212  ARG212      0.1354
     99  NH2      -20.4340  -24.0360   11.5880 N.pl3 212  ARG212      0.1354
    100  N        -20.5900  -23.0980   19.3200 N.am  213  TYR213     -0.1962
    101  CA       -19.6400  -22.2220   20.0500 C.3   213  TYR213      0.1771
    102  C        -18.1730  -22.6410   19.9120 C.2   213  TYR213      0.2620
    103  O        -17.8360  -23.8040   19.9470 O.2   213  TYR213     -0.2715
    104  CB       -20.0140  -22.1490   21.5440 C.3   213  TYR213      0.0574
    105  CG       -21.4480  -21.7430   21.7810 C.ar  213  TYR213     -0.0198
    106  CD1      -21.9900  -20.6190   21.1450 C.ar  213  TYR213     -0.0009
    107  CD2      -22.2680  -22.4760   22.6090 C.ar  213  TYR213     -0.0009
    108  CE1      -23.3190  -20.2280   21.3610 C.ar  213  TYR213      0.0417
    109  CE2      -23.5900  -22.0950   22.8310 C.ar  213  TYR213      0.0417
    110  CZ       -24.1110  -20.9770   22.1990 C.ar  213  TYR213      0.1957
    111  OH       -25.4160  -20.6110   22.4220 O.3   213  TYR213     -0.2866
    112  N        -17.2900  -21.6610   19.8260 N.am  214  SER214     -0.1936
    113  CA       -15.8570  -21.9570   19.6830 C.3   214  SER214      0.2055
    114  C        -15.3540  -22.6990   20.9040 C.2   214  SER214      0.2643
    115  O        -14.7070  -23.7190   20.7920 O.2   214  SER214     -0.2714
    116  CB       -15.0310  -20.6850   19.4430 C.3   214  SER214      0.2130
    117  OG       -15.3420  -20.0160   18.2150 O.3   214  SER214     -0.2179
    118  N        -15.7120  -22.2140   22.0770 N.am  215  ASN215     -0.1957
    119  CA       -15.2290  -22.7890   23.3230 C.3   215  ASN215      0.1819
    120  C        -16.3230  -22.9850   24.3930 C.2   215  ASN215      0.2621
    121  O        -17.2970  -22.2550   24.4460 O.2   215  ASN215     -0.2715
    122  CB       -14.1170  -21.8850   23.9100 C.3   215  ASN215      0.1195
    123  CG       -12.8770  -21.7830   23.0000 C.2   215  ASN215      0.2630
    124  OD1      -12.2570  -22.7830   22.7110 O.2   215  ASN215     -0.2716
    125  ND2      -12.5200  -20.5810   22.5800 N.am  215  ASN215     -0.0877
    126  N        -16.0840  -23.9510   25.2820 N.am  216  TYR216     -0.1960
    127  CA       -16.9450  -24.2600   26.4050 C.3   216  TYR216      0.1756
    128  C        -16.1380  -24.2340   27.6750 C.2   216  TYR216      0.2461
    129  O        -15.1170  -24.9360   27.7860 O.2   216  TYR216     -0.2730
    130  CB       -17.5810  -25.6460   26.2150 C.3   216  TYR216      0.0574
    131  CG       -18.3620  -25.7410   24.9240 C.ar  216  TYR216     -0.0198
    132  CD1      -19.7670  -25.6390   24.9110 C.ar  216  TYR216     -0.0009
    133  CD2      -17.7220  -25.9110   23.7310 C.ar  216  TYR216     -0.0009
    134  CE1      -20.4880  -25.6990   23.7010 C.ar  216  TYR216      0.0417
    135  CE2      -18.4310  -25.9480   22.5310 C.ar  216  TYR216      0.0417
    136  CZ       -19.8290  -25.8720   22.5310 C.ar  216  TYR216      0.1957
    137  OH       -20.5430  -25.9250   21.3210 O.3   216  TYR216     -0.2866
    138  N        -16.5600  -23.4020   28.6380 N.am  217  PRO217     -0.2727
    139  CA       -15.8730  -23.3470   29.9160 C.3   217  PRO217      0.1402
    140  C        -15.9890  -24.6360   30.6540 C.2   217  PRO217      0.2269
    141  O        -17.0540  -25.2510   30.6730 O.2   217  PRO217     -0.2865
    142  CB       -16.6160  -22.2310   30.6880 C.3   217  PRO217      0.0296
    143  CG       -17.8810  -22.0340   29.9800 C.3   217  PRO217      0.0237
    144  CD       -17.6110  -22.3820   28.5450 C.3   217  PRO217      0.0939
@<TRIPOS>BOND
     1    99    97    1
     2    98    97    1
     3    97    96    2
     4    96    95    1
     5    95    94    1
     6    94    93    1
     7     9     8    1
     8    93    90    1
     9     8     7    1
    10     7     6    1
    11    92    91    2
    12    90    91    1
    13    90    89    1
    14    41    38    1
    15    41    42    1
    16    35    34    1
    17     6     5    1
    18    38    37    1
    19    38    39    1
    20    91   100   am
    21    40    39    2
    22   117   116    1
    23    33    32    2
    24    34    36    1
    25    34    31    1
    26    37    32   am
    27    39    43   am
    28    32    31    1
    29     5     2    1
    30   100   101    1
    31   116   113    1
    32    31    30    1
    33   113   112    1
    34   113   114    1
    35   112   102   am
    36   102   103    2
    37   102   101    1
    38     2     1    1
    39     2     3    1
    40    43    44    1
    41   101   104    1
    42    30    26   am
    43     4     3    2
    44    46    45    2
    45   115   114    2
    46    45    44    1
    47   114   118   am
    48     3    10   am
    49    44    47    1
    50   106   108   ar
    51   106   105   ar
    52    28    29    1
    53    28    25    1
    54   137   136    1
    55   108   110   ar
    56    26    27    2
    57    26    25    1
    58   104   105    1
    59   105   107   ar
    60   118   119    1
    61    10    11    1
    62    25    24    1
    63   110   111    1
    64   110   109   ar
    65    50    48   am
    66    47    48    1
    67   136   135   ar
    68   136   134   ar
    69   135   133   ar
    70   125   123   am
    71   107   109   ar
    72    48    49    2
    73   124   123    2
    74   123   122    1
    75    14    11    1
    76    14    15    1
    77    11    12    1
    78   119   122    1
    79   119   120    1
    80   134   132   ar
    81   133   131   ar
    82   120   121    2
    83   120   126   am
    84    12    13    2
    85    56    55    1
    86   132   131   ar
    87   131   130    1
    88   126   127    1
    89    55    57    1
    90    55    52    1
    91    88    86    1
    92   130   127    1
    93    23    22    1
    94   127   128    1
    95    87    86    1
    96    86    83    1
    97    51    52    1
    98    19    18    2
    99    20    21    1
   100    20    17    1
   101    52    53    1
   102    18    17    1
   103    69    68    2
   104    73    71   am
   105    70    71    1
   106    70    67    1
   107    71    72    2
   108    21    22    1
   109   128   129    2
   110   128   138   am
   111    61    60    2
   112    17    16    1
   113    85    84    2
   114    83    82    1
   115    83    84    1
   116    82    76   am
   117    68    67    1
   118    68    74   am
   119    53    54    2
   120    67    66    1
   121   144   138    1
   122   144   143    1
   123   138   139    1
   124    60    66   am
   125    60    59    1
   126    62    59    1
   127    62    63    1
   128    65    63   ar
   129    76    75    1
   130    76    77    2
   131    75    74    1
   132    75    78    1
   133    81    79    1
   134    58    59    1
   135    63    64   ar
   136   139   140    1
   137   139   142    1
   138   143   142    1
   139    78    79    1
   140    79    80    1
   141   140   141    2
