@<TRIPOS>MOLECULE
tmp/3l38A00.pdb
 215 208 0 0 0
SMALL
GASTEIGER

@<TRIPOS>ATOM
      1  N          4.9740    1.8900   12.7540 N.3    14  GLY14      -0.1210
      2  CA         5.4810    1.4680   14.0460 C.3    14  GLY14       0.1956
      3  C          5.5920   -0.0360   14.2060 C.2    14  GLY14       0.2612
      4  O          6.1170   -0.5160   15.2080 O.2    14  GLY14      -0.2717
      5  N          5.1020   -0.7830   13.2220 N.am   15  GLN15      -0.1965
      6  CA         5.1170   -2.2390   13.3080 C.3    15  GLN15       0.1733
      7  C          6.0470   -2.8790   12.2810 C.2    15  GLN15       0.2616
      8  O          6.0850   -4.1010   12.1430 O.2    15  GLN15      -0.2715
      9  CB         3.6970   -2.8000   13.2080 C.3    15  GLN15       0.0408
     10  CG         2.7930   -2.3150   14.3360 C.3    15  GLN15       0.0908
     11  CD         1.4000   -2.9000   14.2730 C.2    15  GLN15       0.2608
     12  OE1        0.9060   -3.2420   13.1990 O.2    15  GLN15      -0.2717
     13  NE2        0.7550   -3.0180   15.4280 N.am   15  GLN15      -0.0878
     14  N          6.7950   -2.0460   11.5650 N.am   16  GLY16      -0.1955
     15  CA         7.8340   -2.5280   10.6720 C.3    16  GLY16       0.1869
     16  C          7.3960   -2.7920    9.2430 C.2    16  GLY16       0.2309
     17  O          6.2040   -2.8530    8.9440 O.2    16  GLY16      -0.2863
     18  N          8.9980   -9.5880    8.0940 N.3    33  LEU33      -0.1245
     19  CA         9.6270   -8.3340    8.4910 C.3    33  LEU33       0.1561
     20  C         11.0480   -8.2400    7.9460 C.2    33  LEU33       0.2260
     21  O         11.8610   -9.1420    8.1480 O.2    33  LEU33      -0.2867
     22  CB         9.6520   -8.2100   10.0160 C.3    33  LEU33       0.0270
     23  CG        10.3380   -6.9740   10.5920 C.3    33  LEU33       0.0019
     24  CD1        9.5030   -5.7250   10.3380 C.3    33  LEU33       0.0001
     25  CD2       10.5900   -7.1500   12.0810 C.3    33  LEU33       0.0001
     26  N         14.4260   -6.8990    8.4600 N.3    35  ASP35      -0.1239
     27  CA        15.1150   -6.4590    9.6690 C.3    35  ASP35       0.1674
     28  C         16.6310   -6.4650    9.4900 C.2    35  ASP35       0.2266
     29  O         17.2670   -7.5140    9.5520 O.2    35  ASP35      -0.2867
     30  CB        14.7130   -7.3630   10.8400 C.3    35  ASP35       0.1410
     31  CG        15.2890   -6.9030   12.1690 C.2    35  ASP35       0.3668
     32  OD1       15.7490   -5.7450   12.2680 O.co2  35  ASP35      -0.2456
     33  OD2       15.2690   -7.7070   13.1250 O.co2  35  ASP35      -0.2456
     34  N         18.5690   -5.3450   11.5590 N.3    37  GLY37      -0.1210
     35  CA        19.1030   -5.3290   12.9110 C.3    37  GLY37       0.1956
     36  C         19.2290   -6.7060   13.5310 C.2    37  GLY37       0.2613
     37  O         19.5180   -6.8340   14.7190 O.2    37  GLY37      -0.2717
     38  N         19.0070   -7.7420   12.7300 N.am   38  SER38      -0.1938
     39  CA        19.1780   -9.1170   13.1960 C.3    38  SER38       0.2055
     40  C         19.5480  -10.0120   12.0200 C.2    38  SER38       0.2644
     41  O         19.5510   -9.5600   10.8760 O.2    38  SER38      -0.2714
     42  CB        17.9220   -9.6240   13.9090 C.3    38  SER38       0.2130
     43  OG        16.8420   -9.7860   13.0070 O.3    38  SER38      -0.2179
     44  N         19.8500  -11.2780   12.2940 N.am   39  SER39      -0.1935
     45  CA        20.4850  -12.1230   11.2890 C.3    39  SER39       0.2055
     46  C         19.8380  -13.4900   11.1000 C.2    39  SER39       0.2643
     47  O         20.3770  -14.3400   10.3920 O.2    39  SER39      -0.2714
     48  CB        21.9720  -12.2850   11.6130 C.3    39  SER39       0.2130
     49  OG        22.6020  -11.0190   11.6850 O.3    39  SER39      -0.2179
     50  N         18.6860  -13.7040   11.7260 N.am   40  ASN40      -0.1971
     51  CA        17.9680  -14.9650   11.5720 C.3    40  ASN40       0.1688
     52  C         16.7730  -14.8420   10.6370 C.2    40  ASN40       0.2292
     53  O         16.0330  -13.8620   10.6950 O.2    40  ASN40      -0.2864
     54  CB        17.4830  -15.4880   12.9280 C.3    40  ASN40       0.1181
     55  CG        18.5930  -16.0930   13.7550 C.2    40  ASN40       0.2629
     56  OD1       19.3940  -15.3780   14.3500 O.2    40  ASN40      -0.2716
     57  ND2       18.6330  -17.4210   13.8120 N.am   40  ASN40      -0.0877
     58  N         13.5830  -16.1480   10.7750 N.3    42  ALA42      -0.1245
     59  CA        12.7930  -16.7880   11.8140 C.3    42  ALA42       0.1562
     60  C         11.3080  -16.5810   11.5550 C.2    42  ALA42       0.2260
     61  O         10.8330  -15.4490   11.4510 O.2    42  ALA42      -0.2867
     62  CB        13.1810  -16.2390   13.1740 C.3    42  ALA42       0.0290
     63  N         15.8360  -17.8400   22.1080 N.3    72  VAL72      -0.1231
     64  CA        16.2000  -16.4290   22.0530 C.3    72  VAL72       0.1678
     65  C         15.4150  -15.5670   23.0400 C.2    72  VAL72       0.2434
     66  O         14.3620  -15.0360   22.6970 O.2    72  VAL72      -0.2733
     67  CB        15.9930  -15.8630   20.6340 C.3    72  VAL72       0.0265
     68  CG1       16.6220  -14.4850   20.5140 C.3    72  VAL72       0.0020
     69  CG2       16.5780  -16.8100   19.5980 C.3    72  VAL72       0.0020
     70  N         15.9290  -15.4190   24.2680 N.am   73  PRO73      -0.2718
     71  CA        15.3260  -14.5170   25.2550 C.3    73  PRO73       0.1535
     72  C         15.8600  -13.1000   25.0830 C.2    73  PRO73       0.2598
     73  O         16.9680  -12.9310   24.5720 O.2    73  PRO73      -0.2715
     74  CB        15.8190  -15.0970   26.5770 C.3    73  PRO73       0.0310
     75  CG        17.1720  -15.6260   26.2420 C.3    73  PRO73       0.0237
     76  CD        17.0900  -16.1370   24.8190 C.3    73  PRO73       0.0939
     77  N         15.0890  -12.0970   25.4990 N.am   74  TYR74      -0.1974
     78  CA        15.5180  -10.7080   25.3520 C.3    74  TYR74       0.1639
     79  C         14.8130   -9.7620   26.3280 C.2    74  TYR74       0.2290
     80  O         13.9130  -10.1630   27.0630 O.2    74  TYR74      -0.2864
     81  CB        15.3150  -10.2410   23.9050 C.3    74  TYR74       0.0560
     82  CG        13.9770  -10.6160   23.3180 C.ar   74  TYR74      -0.0198
     83  CD1       12.8830   -9.7700   23.4360 C.ar   74  TYR74      -0.0009
     84  CD2       13.8100  -11.8140   22.6360 C.ar   74  TYR74      -0.0009
     85  CE1       11.6560  -10.1110   22.8920 C.ar   74  TYR74       0.0417
     86  CE2       12.5910  -12.1600   22.0900 C.ar   74  TYR74       0.0417
     87  CZ        11.5160  -11.3080   22.2220 C.ar   74  TYR74       0.1957
     88  OH        10.2990  -11.6550   21.6780 O.3    74  TYR74      -0.2866
     89  N         11.7040  -15.7170   21.8810 N.3    76  TRP76      -0.1241
     90  CA        11.2140  -16.6500   20.8790 C.3    76  TRP76       0.1605
     91  C         12.0990  -17.8870   20.8680 C.2    76  TRP76       0.2264
     92  O         13.2490  -17.8550   21.3100 O.2    76  TRP76      -0.2867
     93  CB        11.0790  -16.0110   19.4890 C.3    76  TRP76       0.0550
     94  CG        12.3610  -15.6580   18.8050 C.ar   76  TRP76       0.0003
     95  CD1       13.0120  -14.4620   18.8530 C.ar   76  TRP76       0.0946
     96  CD2       13.1280  -16.5030   17.9420 C.ar   76  TRP76       0.0152
     97  NE1       14.1500  -14.5120   18.0820 N.ar   76  TRP76      -0.2442
     98  CE2       14.2440  -15.7530   17.5110 C.ar   76  TRP76       0.0810
     99  CE3       12.9930  -17.8200   17.4950 C.ar   76  TRP76       0.0012
    100  CZ2       15.2090  -16.2770   16.6580 C.ar   76  TRP76       0.0191
    101  CZ3       13.9530  -18.3380   16.6510 C.ar   76  TRP76       0.0001
    102  CH2       15.0460  -17.5690   16.2400 C.ar   76  TRP76       0.0015
    103  N          5.7480  -12.1760   23.5630 N.3   107  LYS107     -0.1231
    104  CA         5.9660  -10.7960   23.1370 C.3   107  LYS107      0.1693
    105  C          6.9350  -10.6910   21.9580 C.2   107  LYS107      0.2592
    106  O          7.7770   -9.7940   21.9150 O.2   107  LYS107     -0.2718
    107  CB         6.4650   -9.9470   24.3110 C.3   107  LYS107      0.0285
    108  CG         5.3800   -9.5790   25.3120 C.3   107  LYS107      0.0035
    109  CD         5.9450   -8.8090   26.4980 C.3   107  LYS107      0.0206
    110  CE         6.5250   -9.7480   27.5440 C.3   107  LYS107      0.1093
    111  NZ         7.0860   -9.0040   28.7070 N.3   107  LYS107     -0.1314
    112  N          6.8190  -11.6130   21.0090 N.am  108  PHE108     -0.1976
    113  CA         7.6300  -11.5610   19.8000 C.3   108  PHE108      0.1639
    114  C          6.8010  -11.0050   18.6530 C.2   108  PHE108      0.2290
    115  O          7.0940   -9.9350   18.1210 O.2   108  PHE108     -0.2864
    116  CB         8.1630  -12.9510   19.4430 C.3   108  PHE108      0.0560
    117  CG         8.9450  -12.9900   18.1570 C.ar  108  PHE108     -0.0200
    118  CD1       10.2170  -12.4490   18.0900 C.ar  108  PHE108     -0.0042
    119  CD2        8.4140  -13.5790   17.0210 C.ar  108  PHE108     -0.0042
    120  CE1       10.9420  -12.4860   16.9130 C.ar  108  PHE108     -0.0003
    121  CE2        9.1360  -13.6180   15.8410 C.ar  108  PHE108     -0.0003
    122  CZ        10.4020  -13.0730   15.7890 C.ar  108  PHE108     -0.0000
    123  N          3.6790   -9.2420   16.7350 N.3   110  ILE110     -0.1245
    124  CA         2.9310   -8.0380   17.0390 C.3   110  ILE110      0.1561
    125  C          1.5020   -8.1660   16.5340 C.2   110  ILE110      0.2260
    126  O          1.2660   -8.5630   15.3910 O.2   110  ILE110     -0.2867
    127  CB         3.6120   -6.7990   16.4290 C.3   110  ILE110      0.0252
    128  CG1        4.9980   -6.6100   17.0520 C.3   110  ILE110      0.0019
    129  CG2        2.7580   -5.5620   16.6360 C.3   110  ILE110      0.0019
    130  CD1        5.8050   -5.4930   16.4310 C.3   110  ILE110      0.0001
    131  N          2.6970   -9.4680    9.6120 N.3   115  TRP115     -0.1241
    132  CA         3.8020  -10.3420    9.2130 C.3   115  TRP115      0.1605
    133  C          3.9120  -11.5580   10.1300 C.2   115  TRP115      0.2264
    134  O          3.4290  -11.5360   11.2600 O.2   115  TRP115     -0.2867
    135  CB         5.1350   -9.5860    9.1050 C.3   115  TRP115      0.0550
    136  CG         5.4900   -8.7420   10.2820 C.ar  115  TRP115      0.0003
    137  CD1        5.3190   -7.3940   10.3980 C.ar  115  TRP115      0.0946
    138  CD2        6.1010   -9.1770   11.5020 C.ar  115  TRP115      0.0152
    139  NE1        5.7760   -6.9640   11.6180 N.ar  115  TRP115     -0.2442
    140  CE2        6.2610   -8.0390   12.3160 C.ar  115  TRP115      0.0810
    141  CE3        6.5220  -10.4180   11.9880 C.ar  115  TRP115      0.0012
    142  CZ2        6.8240   -8.1040   13.5910 C.ar  115  TRP115      0.0191
    143  CZ3        7.0830  -10.4810   13.2520 C.ar  115  TRP115      0.0001
    144  CH2        7.2280   -9.3320   14.0390 C.ar  115  TRP115      0.0015
    145  N         10.5660  -13.0260   10.6060 N.3   118  ILE118     -0.1245
    146  CA        11.5570  -11.9780   10.4380 C.3   118  ILE118      0.1561
    147  C         12.6840  -12.4030    9.5130 C.2   118  ILE118      0.2260
    148  O         13.2080  -13.5150    9.6080 O.2   118  ILE118     -0.2867
    149  CB        12.1420  -11.5480   11.7900 C.3   118  ILE118      0.0252
    150  CG1       11.0420  -10.9620   12.6760 C.3   118  ILE118      0.0019
    151  CG2       13.2490  -10.5350   11.5900 C.3   118  ILE118      0.0019
    152  CD1       11.5400  -10.4560   14.0130 C.3   118  ILE118      0.0001
    153  N         25.9590  -12.2050   14.5970 N.3   126  ILE126     -0.1245
    154  CA        24.9160  -12.0400   15.6010 C.3   126  ILE126      0.1561
    155  C         23.7330  -12.9830   15.3830 C.2   126  ILE126      0.2260
    156  O         22.6890  -12.8410   16.0210 O.2   126  ILE126     -0.2867
    157  CB        24.4340  -10.5810   15.6810 C.3   126  ILE126      0.0252
    158  CG1       23.8330  -10.1410   14.3510 C.3   126  ILE126      0.0019
    159  CG2       25.5940   -9.6660   16.0670 C.3   126  ILE126      0.0019
    160  CD1       23.2500   -8.7370   14.3890 C.3   126  ILE126      0.0001
    161  N         21.5910  -16.4620   15.6640 N.3   128  ARG128     -0.1245
    162  CA        21.3570  -17.4300   16.7320 C.3   128  ARG128      0.1563
    163  C         21.1280  -18.8060   16.1200 C.2   128  ARG128      0.2260
    164  O         20.5150  -18.9120   15.0610 O.2   128  ARG128     -0.2867
    165  CB        20.1370  -17.0260   17.5590 C.3   128  ARG128      0.0307
    166  CG        20.1910  -15.6160   18.1040 C.3   128  ARG128      0.0489
    167  CD        21.3510  -15.4400   19.0650 C.3   128  ARG128      0.2205
    168  NE        21.3060  -14.1430   19.7320 N.pl3 128  ARG128     -0.0865
    169  CZ        20.6860  -13.9220   20.8860 C.cat 128  ARG128      0.5346
    170  NH1       20.0590  -14.9160   21.5020 N.pl3 128  ARG128      0.1354
    171  NH2       20.6910  -12.7090   21.4260 N.pl3 128  ARG128      0.1354
    172  N         26.1540   -6.2950   13.1780 N.3   192  TYR192     -0.1241
    173  CA        25.0660   -5.4140   12.8060 C.3   192  TYR192      0.1605
    174  C         25.5960   -4.6440   11.6170 C.2   192  TYR192      0.2264
    175  O         26.7550   -4.8080   11.2390 O.2   192  TYR192     -0.2867
    176  CB        24.7360   -4.4520   13.9400 C.3   192  TYR192      0.0534
    177  CG        24.2350   -5.1500   15.1730 C.ar  192  TYR192     -0.0201
    178  CD1       22.8930   -5.4750   15.3070 C.ar  192  TYR192     -0.0009
    179  CD2       25.1050   -5.5020   16.1990 C.ar  192  TYR192     -0.0009
    180  CE1       22.4280   -6.1210   16.4300 C.ar  192  TYR192      0.0417
    181  CE2       24.6490   -6.1500   17.3280 C.ar  192  TYR192      0.0417
    182  CZ        23.3090   -6.4570   17.4370 C.ar  192  TYR192      0.1957
    183  OH        22.8440   -7.1000   18.5560 O.3   192  TYR192     -0.2866
    184  N         19.1080    0.1750   11.3340 N.3   222  ASP222     -0.1225
    185  CA        18.2180   -0.9100   11.7360 C.3   222  ASP222      0.1805
    186  C         16.7690   -0.6950   11.3110 C.2   222  ASP222      0.2598
    187  O         16.0110   -0.0100   11.9900 O.2   222  ASP222     -0.2718
    188  CB        18.3000   -1.0990   13.2530 C.3   222  ASP222      0.1424
    189  CG        17.4690   -2.2610   13.7410 C.2   222  ASP222      0.3668
    190  OD1       16.9540   -3.0210   12.8930 O.co2 222  ASP222     -0.2456
    191  OD2       17.3320   -2.4110   14.9720 O.co2 222  ASP222     -0.2456
    192  N         16.3920   -1.2930   10.1840 N.am  223  SER223     -0.1938
    193  CA        15.0270   -1.2070    9.6830 C.3   223  SER223      0.2055
    194  C         14.0330   -1.8520   10.6460 C.2   223  SER223      0.2644
    195  O         12.8300   -1.6010   10.5700 O.2   223  SER223     -0.2714
    196  CB        14.9290   -1.8720    8.3090 C.3   223  SER223      0.2130
    197  OG        15.3090   -3.2330    8.3720 O.3   223  SER223     -0.2179
    198  N         14.5400   -2.6850   11.5490 N.am  224  GLY224     -0.1939
    199  CA        13.6960   -3.4170   12.4800 C.3   224  GLY224      0.2014
    200  C         13.3710   -2.6240   13.7340 C.2   224  GLY224      0.2640
    201  O         12.6830   -3.1140   14.6330 O.2   224  GLY224     -0.2714
    202  N         13.8760   -1.4020   13.7970 N.am  225  THR225     -0.1936
    203  CA        13.5500   -0.4900   14.8860 C.3   225  THR225      0.2028
    204  C         12.8280    0.7230   14.3130 C.2   225  THR225      0.2642
    205  O         13.1870    1.2150   13.2450 O.2   225  THR225     -0.2714
    206  CB        14.8180   -0.0260   15.6290 C.3   225  THR225      0.1808
    207  OG1       15.4350   -1.1490   16.2690 O.3   225  THR225     -0.2208
    208  CG2       14.4770    1.0210   16.6780 C.3   225  THR225      0.0379
    209  N         11.8040    1.1960   15.0090 N.am  226  THR226     -0.1950
    210  CA        11.0250    2.3250   14.5160 C.3   226  THR226      0.1897
    211  C         11.7590    3.6370   14.7460 C.2   226  THR226      0.2313
    212  O         11.9420    4.4270   13.8230 O.2   226  THR226     -0.2863
    213  CB         9.6530    2.4090   15.1980 C.3   226  THR226      0.1794
    214  OG1        8.8480    1.2870   14.8090 O.3   226  THR226     -0.2208
    215  CG2        8.9480    3.6930   14.8070 C.3   226  THR226      0.0378
@<TRIPOS>BOND
     1    20    21    2
     2    20    19    1
     3    18    19    1
     4   196   197    1
     5   196   193    1
     6    26    27    1
     7    19    22    1
     8    17    16    2
     9   135   132    1
    10   135   136    1
    11   132   131    1
    12   132   133    1
    13    16    15    1
    14    28    29    2
    15    28    27    1
    16   147   148    2
    17   147   146    1
    18    27    30    1
    19   193   192    1
    20   193   194    1
    21    22    23    1
    22   133   134    2
    23   192   186   am
    24   136   137   ar
    25   136   138   ar
    26    24    23    1
    27    47    46    2
    28   137   139   ar
    29   146   145    1
    30   146   149    1
    31   195   194    2
    32    23    25    1
    33    52    53    2
    34    52    51    1
    35   194   198   am
    36    15    14    1
    37    58    59    1
    38    30    31    1
    39    41    40    2
    40    46    45    1
    41    46    50   am
    42   175   174    2
    43    45    48    1
    44    45    44    1
    45   186   185    1
    46   186   187    2
    47   184   185    1
    48    61    60    2
    49   138   141   ar
    50   138   140   ar
    51   198   199    1
    52    60    59    1
    53    34    35    1
    54    14     7   am
    55    51    50    1
    56    51    54    1
    57   151   149    1
    58    48    49    1
    59   174   173    1
    60   139   140   ar
    61   185   188    1
    62   149   150    1
    63    59    62    1
    64   141   143   ar
    65    40    44   am
    66    40    39    1
    67     8     7    2
    68    31    32   ar
    69    31    33   ar
    70     7     6    1
    71   140   142   ar
    72   199   200    1
    73   150   152    1
    74    38    39    1
    75    38    36   am
    76     1     2    1
    77   173   172    1
    78   173   176    1
    79   190   189   ar
    80    35    36    1
    81    54    55    1
    82    43    42    1
    83    39    42    1
    84    12    11    2
    85     9     6    1
    86     9    10    1
    87     5     6    1
    88     5     3   am
    89   205   204    2
    90   143   144   ar
    91   188   189    1
    92    36    37    2
    93   142   144   ar
    94   200   202   am
    95   200   201    2
    96   189   191   ar
    97    55    57   am
    98    55    56    2
    99   202   203    1
   100   212   211    2
   101   176   177    1
   102     2     3    1
   103     3     4    2
   104    11    10    1
   105    11    13   am
   106   204   203    1
   107   204   209   am
   108   158   160    1
   109   158   157    1
   110   210   211    1
   111   210   209    1
   112   210   213    1
   113   153   154    1
   114   215   213    1
   115   214   213    1
   116   203   206    1
   117   164   163    2
   118   177   178   ar
   119   177   179   ar
   120   178   180   ar
   121   155   154    1
   122   155   156    2
   123   126   125    2
   124   154   157    1
   125   206   207    1
   126   206   208    1
   127   161   162    1
   128   157   159    1
   129   122   121   ar
   130   122   120   ar
   131   121   119   ar
   132   163   162    1
   133   179   181   ar
   134   102   101   ar
   135   102   100   ar
   136   127   129    1
   137   127   124    1
   138   127   128    1
   139   180   182   ar
   140   130   128    1
   141   125   124    1
   142   101    99   ar
   143   100    98   ar
   144   162   165    1
   145   123   124    1
   146   120   118   ar
   147   119   117   ar
   148   181   182   ar
   149   182   183    1
   150    99    96   ar
   151    98    96   ar
   152    98    97   ar
   153   165   166    1
   154    96    94   ar
   155    97    95   ar
   156   118   117   ar
   157   166   167    1
   158   115   114    2
   159   117   116    1
   160   114   113    1
   161    94    95   ar
   162    94    93    1
   163   167   168    1
   164   116   113    1
   165    93    90    1
   166    69    67    1
   167   168   169    2
   168   113   112    1
   169    68    67    1
   170    67    64    1
   171    91    90    1
   172    91    92    2
   173    90    89    1
   174   169   171    1
   175   169   170    1
   176   112   105   am
   177    88    87    1
   178   106   105    2
   179   105   104    1
   180    64    63    1
   181    64    65    1
   182    86    87   ar
   183    86    84   ar
   184    87    85   ar
   185    84    82   ar
   186    66    65    2
   187    85    83   ar
   188    65    70   am
   189   104   103    1
   190   104   107    1
   191    82    83   ar
   192    82    81    1
   193    81    78    1
   194    70    76    1
   195    70    71    1
   196   107   108    1
   197    73    72    2
   198    76    75    1
   199    72    71    1
   200    72    77   am
   201    71    74    1
   202   108   109    1
   203    78    77    1
   204    78    79    1
   205    75    74    1
   206    79    80    2
   207   109   110    1
   208   110   111    1
