@<TRIPOS>MOLECULE
tmp/3l3aA00.pdb
 211 204 0 0 0
SMALL
GASTEIGER

@<TRIPOS>ATOM
      1  N          5.0360    1.8670   12.7190 N.3    14  GLY14      -0.1210
      2  CA         5.5880    1.4400   13.9880 C.3    14  GLY14       0.1956
      3  C          5.6110   -0.0680   14.1550 C.2    14  GLY14       0.2612
      4  O          6.0420   -0.5840   15.1830 O.2    14  GLY14      -0.2717
      5  N          5.1460   -0.7880   13.1480 N.am   15  GLN15      -0.1965
      6  CA         5.0530   -2.2340   13.2760 C.3    15  GLN15       0.1733
      7  C          5.9650   -2.9240   12.2800 C.2    15  GLN15       0.2617
      8  O          5.9860   -4.1430   12.1900 O.2    15  GLN15      -0.2715
      9  CB         3.5990   -2.6920   13.1420 C.3    15  GLN15       0.0408
     10  CG         2.7270   -2.2110   14.2940 C.3    15  GLN15       0.0908
     11  CD         1.3530   -2.8380   14.2840 C.2    15  GLN15       0.2608
     12  OE1        0.8340   -3.2000   13.2290 O.2    15  GLN15      -0.2717
     13  NE2        0.7540   -2.9710   15.4620 N.am   15  GLN15      -0.0878
     14  N          6.7260   -2.1170   11.5430 N.am   16  GLY16      -0.1940
     15  CA         7.7640   -2.6100   10.6610 C.3    16  GLY16       0.2014
     16  C          7.3300   -2.7130    9.2150 C.2    16  GLY16       0.2638
     17  O          6.1500   -2.6080    8.8950 O.2    16  GLY16      -0.2714
     18  N          8.3040   -2.9170    8.3390 N.am   17  TYR17      -0.1973
     19  CA         8.0340   -3.1570    6.9390 C.3    17  TYR17       0.1639
     20  C          8.2250   -4.6360    6.6760 C.2    17  TYR17       0.2290
     21  O          9.1250   -5.2670    7.2300 O.2    17  TYR17      -0.2864
     22  CB         8.9990   -2.3640    6.0670 C.3    17  TYR17       0.0560
     23  CG         8.8170   -0.8700    6.1440 C.ar   17  TYR17      -0.0198
     24  CD1        9.3120   -0.1440    7.2230 C.ar   17  TYR17      -0.0009
     25  CD2        8.1610   -0.1790    5.1280 C.ar   17  TYR17      -0.0009
     26  CE1        9.1570    1.2310    7.2920 C.ar   17  TYR17       0.0417
     27  CE2        8.0010    1.1910    5.1880 C.ar   17  TYR17       0.0417
     28  CZ         8.5000    1.8920    6.2700 C.ar   17  TYR17       0.1957
     29  OH         8.3340    3.2570    6.3310 O.3    17  TYR17      -0.2866
     30  N          9.0210   -9.5260    8.1770 N.3    33  LEU33      -0.1245
     31  CA         9.6610   -8.2840    8.5920 C.3    33  LEU33       0.1561
     32  C         11.0650   -8.1800    8.0030 C.2    33  LEU33       0.2260
     33  O         11.8820   -9.0930    8.1420 O.2    33  LEU33      -0.2867
     34  CB         9.7310   -8.1860   10.1150 C.3    33  LEU33       0.0270
     35  CG        10.3960   -6.9050   10.6230 C.3    33  LEU33       0.0019
     36  CD1        9.5560   -5.6740   10.2940 C.3    33  LEU33       0.0001
     37  CD2       10.6620   -6.9950   12.1180 C.3    33  LEU33       0.0001
     38  N         14.4990   -6.9480    8.3680 N.3    35  ASP35      -0.1239
     39  CA        15.2050   -6.5610    9.5780 C.3    35  ASP35       0.1674
     40  C         16.7110   -6.5240    9.3950 C.2    35  ASP35       0.2266
     41  O         17.3670   -7.5660    9.4340 O.2    35  ASP35      -0.2867
     42  CB        14.8570   -7.5320   10.7040 C.3    35  ASP35       0.1410
     43  CG        15.3200   -7.0430   12.0590 C.2    35  ASP35       0.3668
     44  OD1       15.7030   -5.8630   12.1630 O.co2  35  ASP35      -0.2456
     45  OD2       15.2960   -7.8330   13.0180 O.co2  35  ASP35      -0.2456
     46  N         18.6470   -5.3600   11.5100 N.3    37  GLY37      -0.1210
     47  CA        19.2100   -5.3540   12.8480 C.3    37  GLY37       0.1956
     48  C         19.3280   -6.7390   13.4580 C.2    37  GLY37       0.2613
     49  O         19.6930   -6.8810   14.6230 O.2    37  GLY37      -0.2717
     50  N         18.9920   -7.7630   12.6800 N.am   38  SER38      -0.1938
     51  CA        19.1750   -9.1470   13.1130 C.3    38  SER38       0.2055
     52  C         19.5610   -9.9790   11.8970 C.2    38  SER38       0.2644
     53  O         19.6310   -9.4540   10.7810 O.2    38  SER38      -0.2714
     54  CB        17.9380   -9.7040   13.8300 C.3    38  SER38       0.2130
     55  OG        16.8360   -9.8240   12.9610 O.3    38  SER38      -0.2179
     56  N         19.8260  -11.2630   12.1110 N.am   39  SER39      -0.1935
     57  CA        20.4500  -12.0800   11.0770 C.3    39  SER39       0.2055
     58  C         19.8060  -13.4500   10.8790 C.2    39  SER39       0.2643
     59  O         20.2900  -14.2580   10.0800 O.2    39  SER39      -0.2714
     60  CB        21.9320  -12.2460   11.3960 C.3    39  SER39       0.2130
     61  OG        22.5230  -10.9800   11.6000 O.3    39  SER39      -0.2179
     62  N         18.7250  -13.7150   11.6080 N.am   40  ASN40      -0.1971
     63  CA        17.9990  -14.9700   11.4510 C.3    40  ASN40       0.1688
     64  C         16.7900  -14.8480   10.5280 C.2    40  ASN40       0.2292
     65  O         16.0480  -13.8680   10.5640 O.2    40  ASN40      -0.2864
     66  CB        17.5360  -15.5050   12.8030 C.3    40  ASN40       0.1181
     67  CG        18.6610  -16.0890   13.6160 C.2    40  ASN40       0.2629
     68  OD1       19.3400  -15.3750   14.3470 O.2    40  ASN40      -0.2716
     69  ND2       18.8490  -17.4020   13.5120 N.am   40  ASN40      -0.0877
     70  N         13.5640  -16.2160   10.6640 N.3    42  ALA42      -0.1245
     71  CA        12.7350  -16.8520   11.6710 C.3    42  ALA42       0.1562
     72  C         11.2600  -16.5720   11.3760 C.2    42  ALA42       0.2260
     73  O         10.8370  -15.4240   11.2900 O.2    42  ALA42      -0.2867
     74  CB        13.1120  -16.3440   13.0630 C.3    42  ALA42       0.0290
     75  N         15.8880  -17.8240   22.0110 N.3    72  VAL72      -0.1231
     76  CA        16.2380  -16.4120   21.9370 C.3    72  VAL72       0.1678
     77  C         15.4600  -15.5480   22.9300 C.2    72  VAL72       0.2434
     78  O         14.3580  -15.0950   22.6220 O.2    72  VAL72      -0.2733
     79  CB        16.0370  -15.8670   20.5100 C.3    72  VAL72       0.0265
     80  CG1       16.6040  -14.4600   20.3950 C.3    72  VAL72       0.0020
     81  CG2       16.6910  -16.7930   19.4980 C.3    72  VAL72       0.0020
     82  N         16.0270  -15.3310   24.1310 N.am   73  PRO73      -0.2718
     83  CA        15.4700  -14.3960   25.1170 C.3    73  PRO73       0.1535
     84  C         16.0250  -12.9870   24.9230 C.2    73  PRO73       0.2598
     85  O         17.0940  -12.8340   24.3240 O.2    73  PRO73      -0.2715
     86  CB        15.9600  -14.9590   26.4640 C.3    73  PRO73       0.0310
     87  CG        16.6600  -16.2610   26.1410 C.3    73  PRO73       0.0237
     88  CD        17.0960  -16.1520   24.7180 C.3    73  PRO73       0.0939
     89  N         15.3130  -11.9810   25.4310 N.am   74  TYR74      -0.1974
     90  CA        15.7230  -10.5870   25.2630 C.3    74  TYR74       0.1639
     91  C         14.9680   -9.6180   26.1760 C.2    74  TYR74       0.2290
     92  O         14.5080   -8.5690   25.7240 O.2    74  TYR74      -0.2864
     93  CB        15.5450  -10.1630   23.8040 C.3    74  TYR74       0.0560
     94  CG        14.2220  -10.5870   23.2050 C.ar   74  TYR74      -0.0198
     95  CD1       13.1030   -9.7620   23.2820 C.ar   74  TYR74      -0.0009
     96  CD2       14.0920  -11.8120   22.5650 C.ar   74  TYR74      -0.0009
     97  CE1       11.8930  -10.1490   22.7340 C.ar   74  TYR74       0.0417
     98  CE2       12.8890  -12.2050   22.0160 C.ar   74  TYR74       0.0417
     99  CZ        11.7960  -11.3740   22.1060 C.ar   74  TYR74       0.1957
    100  OH        10.6000  -11.7710   21.5600 O.3    74  TYR74      -0.2866
    101  N         11.7960  -15.8290   21.7250 N.3    79  TRP79      -0.1241
    102  CA        11.2770  -16.7710   20.7480 C.3    79  TRP79       0.1605
    103  C         12.1300  -18.0330   20.7360 C.2    79  TRP79       0.2264
    104  O         13.3370  -18.0000   20.9760 O.2    79  TRP79      -0.2867
    105  CB        11.1060  -16.1560   19.3480 C.3    79  TRP79       0.0550
    106  CG        12.3650  -15.7430   18.6360 C.ar   79  TRP79       0.0003
    107  CD1       12.9200  -14.4950   18.6130 C.ar   79  TRP79       0.0946
    108  CD2       13.2040  -16.5680   17.8130 C.ar   79  TRP79       0.0152
    109  NE1       14.0570  -14.4960   17.8460 N.ar   79  TRP79      -0.2442
    110  CE2       14.2530  -15.7550   17.3430 C.ar   79  TRP79       0.0810
    111  CE3       13.1770  -17.9180   17.4430 C.ar   79  TRP79       0.0012
    112  CZ2       15.2630  -16.2430   16.5200 C.ar   79  TRP79       0.0191
    113  CZ3       14.1770  -18.3990   16.6290 C.ar   79  TRP79       0.0001
    114  CH2       15.2080  -17.5650   16.1750 C.ar   79  TRP79       0.0015
    115  N          6.8460  -11.5210   20.9490 N.3   111  PHE111     -0.1241
    116  CA         7.6810  -11.4330   19.7600 C.3   111  PHE111      0.1605
    117  C          6.8460  -10.9090   18.6020 C.2   111  PHE111      0.2264
    118  O          7.1700   -9.8910   17.9900 O.2   111  PHE111     -0.2867
    119  CB         8.2750  -12.8030   19.4130 C.3   111  PHE111      0.0534
    120  CG         9.0300  -12.8280   18.1070 C.ar  111  PHE111     -0.0203
    121  CD1       10.3200  -12.3260   18.0220 C.ar  111  PHE111     -0.0042
    122  CD2        8.4510  -13.3600   16.9670 C.ar  111  PHE111     -0.0042
    123  CE1       11.0100  -12.3510   16.8270 C.ar  111  PHE111     -0.0003
    124  CE2        9.1410  -13.3840   15.7680 C.ar  111  PHE111     -0.0003
    125  CZ        10.4190  -12.8850   15.7020 C.ar  111  PHE111     -0.0000
    126  N          3.6970   -9.1430   16.7480 N.3   113  ILE113     -0.1245
    127  CA         2.9570   -7.9360   17.0530 C.3   113  ILE113      0.1561
    128  C          1.5180   -8.0740   16.5790 C.2   113  ILE113      0.2260
    129  O          1.2490   -8.5120   15.4530 O.2   113  ILE113     -0.2867
    130  CB         3.6510   -6.7020   16.4500 C.3   113  ILE113      0.0252
    131  CG1        5.0670   -6.5900   17.0310 C.3   113  ILE113      0.0019
    132  CG2        2.8420   -5.4420   16.7190 C.3   113  ILE113      0.0019
    133  CD1        5.9420   -5.5560   16.3560 C.3   113  ILE113      0.0001
    134  N          2.7580   -9.3720    9.6550 N.3   118  TRP118     -0.1241
    135  CA         3.8760  -10.2270    9.2680 C.3   118  TRP118      0.1605
    136  C          3.9800  -11.4430   10.1680 C.2   118  TRP118      0.2264
    137  O          3.5600  -11.4100   11.3270 O.2   118  TRP118     -0.2867
    138  CB         5.2080   -9.4700    9.1890 C.3   118  TRP118      0.0550
    139  CG         5.5510   -8.6310   10.3830 C.ar  118  TRP118      0.0003
    140  CD1        5.3480   -7.2850   10.5240 C.ar  118  TRP118      0.0946
    141  CD2        6.1890   -9.0720   11.5910 C.ar  118  TRP118      0.0152
    142  NE1        5.8110   -6.8650   11.7470 N.ar  118  TRP118     -0.2442
    143  CE2        6.3320   -7.9390   12.4220 C.ar  118  TRP118      0.0810
    144  CE3        6.6510  -10.3120   12.0520 C.ar  118  TRP118      0.0012
    145  CZ2        6.9170   -8.0070   13.6870 C.ar  118  TRP118      0.0191
    146  CZ3        7.2320  -10.3800   13.3080 C.ar  118  TRP118      0.0001
    147  CH2        7.3570   -9.2340   14.1130 C.ar  118  TRP118      0.0015
    148  N         10.5370  -12.9670   10.5540 N.3   121  ILE121     -0.1245
    149  CA        11.5670  -11.9500   10.4500 C.3   121  ILE121      0.1561
    150  C         12.6580  -12.4010    9.4870 C.2   121  ILE121      0.2260
    151  O         13.1180  -13.5470    9.5210 O.2   121  ILE121     -0.2867
    152  CB        12.1780  -11.6350   11.8300 C.3   121  ILE121      0.0252
    153  CG1       11.0980  -11.1030   12.7690 C.3   121  ILE121      0.0019
    154  CG2       13.3120  -10.6160   11.7070 C.3   121  ILE121      0.0019
    155  CD1       11.6480  -10.3890   13.9800 C.3   121  ILE121      0.0001
    156  N         26.0190  -12.2820   14.5280 N.3   129  ILE129     -0.1245
    157  CA        25.0010  -12.1200   15.5530 C.3   129  ILE129      0.1561
    158  C         23.8330  -13.1070   15.3660 C.2   129  ILE129      0.2260
    159  O         22.8160  -13.0300   16.0690 O.2   129  ILE129     -0.2867
    160  CB        24.5020  -10.6580   15.6150 C.3   129  ILE129      0.0252
    161  CG1       23.8720  -10.2460   14.2810 C.3   129  ILE129      0.0019
    162  CG2       25.6630   -9.7140   15.9760 C.3   129  ILE129      0.0019
    163  CD1       23.3980   -8.8110   14.2460 C.3   129  ILE129      0.0001
    164  N         21.6590  -16.5010   15.6410 N.3   131  ARG131     -0.1245
    165  CA        21.4280  -17.5110   16.6660 C.3   131  ARG131      0.1563
    166  C         21.2520  -18.8520   15.9700 C.2   131  ARG131      0.2260
    167  O         20.6810  -18.9070   14.8850 O.2   131  ARG131     -0.2867
    168  CB        20.1760  -17.1780   17.4750 C.3   131  ARG131      0.0307
    169  CG        20.1510  -15.7690   18.0190 C.3   131  ARG131      0.0489
    170  CD        21.3410  -15.5080   18.9220 C.3   131  ARG131      0.2205
    171  NE        21.2430  -14.1990   19.5620 N.pl3 131  ARG131     -0.0865
    172  CZ        20.6300  -13.9820   20.7220 C.cat 131  ARG131      0.5346
    173  NH1       20.0610  -14.9920   21.3700 N.pl3 131  ARG131      0.1354
    174  NH2       20.5850  -12.7570   21.2330 N.pl3 131  ARG131      0.1354
    175  N         19.2000    0.0860   11.3860 N.3   224  ASP224     -0.1225
    176  CA        18.2970   -1.0000   11.7420 C.3   224  ASP224      0.1805
    177  C         16.8640   -0.7410   11.2980 C.2   224  ASP224      0.2598
    178  O         16.1420    0.0190   11.9400 O.2   224  ASP224     -0.2718
    179  CB        18.3520   -1.2580   13.2480 C.3   224  ASP224      0.1424
    180  CG        17.4310   -2.3720   13.6780 C.2   224  ASP224      0.3668
    181  OD1       16.9380   -3.1140   12.7940 O.co2 224  ASP224     -0.2456
    182  OD2       17.1950   -2.4950   14.8990 O.co2 224  ASP224     -0.2456
    183  N         16.4650   -1.3830   10.2000 N.am  225  SER225     -0.1938
    184  CA        15.1140   -1.2650    9.6610 C.3   225  SER225      0.2055
    185  C         14.0670   -1.9150   10.5800 C.2   225  SER225      0.2644
    186  O         12.8670   -1.6500   10.4550 O.2   225  SER225     -0.2714
    187  CB        15.0520   -1.8840    8.2630 C.3   225  SER225      0.2130
    188  OG        15.3630   -3.2670    8.2980 O.3   225  SER225     -0.2179
    189  N         14.5300   -2.7540   11.5060 N.am  226  GLY226     -0.1939
    190  CA        13.6510   -3.4430   12.4370 C.3   226  GLY226      0.2014
    191  C         13.3930   -2.6520   13.7090 C.2   226  GLY226      0.2640
    192  O         12.7600   -3.1350   14.6500 O.2   226  GLY226     -0.2714
    193  N         13.9070   -1.4310   13.7450 N.am  227  THR227     -0.1936
    194  CA        13.6170   -0.5070   14.8360 C.3   227  THR227      0.2028
    195  C         12.9260    0.6890   14.2160 C.2   227  THR227      0.2642
    196  O         13.3990    1.2240   13.2200 O.2   227  THR227     -0.2714
    197  CB        14.9030   -0.0510   15.5550 C.3   227  THR227      0.1808
    198  OG1       15.4820   -1.1650   16.2490 O.3   227  THR227     -0.2208
    199  CG2       14.6100    1.0760   16.5480 C.3   227  THR227      0.0379
    200  N         11.7980    1.1000   14.7770 N.am  228  THR228     -0.1950
    201  CA        11.0790    2.2330   14.2010 C.3   228  THR228      0.1897
    202  C         11.7380    3.5770   14.5390 C.2   228  THR228      0.2313
    203  O         11.8010    4.4690   13.6900 O.2   228  THR228     -0.2863
    204  CB         9.5580    2.2420   14.5680 C.3   228  THR228      0.1794
    205  OG1        9.1490    3.5720   14.9020 O.3   228  THR228     -0.2208
    206  CG2        9.2620    1.3430   15.7480 C.3   228  THR228      0.0378
    207  N         13.7930    3.1030   11.1710 N.3   319  ALA319     -0.1245
    208  CA        12.9820    3.6060   10.0540 C.3   319  ALA319      0.1562
    209  C         12.8230    5.1360   10.0340 C.2   319  ALA319      0.2260
    210  O         12.8830    5.7580    8.9760 O.2   319  ALA319     -0.2867
    211  CB        11.6290    2.9340   10.0460 C.3   319  ALA319      0.0290
@<TRIPOS>BOND
     1    25    27   ar
     2    25    23   ar
     3    27    28   ar
     4    22    23    1
     5    22    19    1
     6    23    24   ar
     7    28    29    1
     8    28    26   ar
     9    20    19    1
    10    20    21    2
    11    19    18    1
    12    24    26   ar
    13    32    33    2
    14    32    31    1
    15    30    31    1
    16   187   188    1
    17   187   184    1
    18    18    16   am
    19    38    39    1
    20    31    34    1
    21    17    16    2
    22   210   209    2
    23   138   135    1
    24   138   139    1
    25    16    15    1
    26   135   134    1
    27   135   136    1
    28    40    41    2
    29    40    39    1
    30   150   151    2
    31   150   149    1
    32    39    42    1
    33   184   183    1
    34   184   185    1
    35   209   208    1
    36   211   208    1
    37   208   207    1
    38    59    58    2
    39    34    35    1
    40   136   137    2
    41   183   177   am
    42    36    35    1
    43   139   140   ar
    44   139   141   ar
    45   149   148    1
    46   149   152    1
    47   186   185    2
    48   140   142   ar
    49    64    65    2
    50    64    63    1
    51   185   189   am
    52    35    37    1
    53    15    14    1
    54    70    71    1
    55    42    43    1
    56    53    52    2
    57    58    57    1
    58    58    62   am
    59    57    60    1
    60    57    56    1
    61    73    72    2
    62   177   176    1
    63   177   178    2
    64    72    71    1
    65   175   176    1
    66    60    61    1
    67    63    62    1
    68    63    66    1
    69   189   190    1
    70    46    47    1
    71    14     7   am
    72   141   144   ar
    73   141   143   ar
    74    71    74    1
    75   154   152    1
    76   176   179    1
    77   142   143   ar
    78   152   153    1
    79    52    56   am
    80    52    51    1
    81   144   146   ar
    82    43    44   ar
    83    43    45   ar
    84     8     7    2
    85     7     6    1
    86   143   145   ar
    87   190   191    1
    88    50    51    1
    89    50    48   am
    90     1     2    1
    91   153   155    1
    92   181   180   ar
    93    66    67    1
    94    47    48    1
    95    55    54    1
    96    51    54    1
    97     9     6    1
    98     9    10    1
    99     5     6    1
   100     5     3   am
   101   196   195    2
   102    12    11    2
   103   179   180    1
   104   146   147   ar
   105    48    49    2
   106    69    67   am
   107    67    68    2
   108   180   182   ar
   109   145   147   ar
   110   203   202    2
   111   191   193   am
   112   191   192    2
   113   193   194    1
   114     2     3    1
   115     3     4    2
   116   201   202    1
   117   201   204    1
   118   201   200    1
   119   195   200   am
   120   195   194    1
   121   163   161    1
   122   161   160    1
   123    11    10    1
   124    11    13   am
   125   156   157    1
   126   204   205    1
   127   204   206    1
   128   194   197    1
   129   167   166    2
   130   158   157    1
   131   158   159    2
   132   129   128    2
   133   157   160    1
   134   197   198    1
   135   197   199    1
   136   160   162    1
   137   164   165    1
   138   125   124   ar
   139   125   123   ar
   140   124   122   ar
   141   166   165    1
   142   114   112   ar
   143   114   113   ar
   144   133   131    1
   145   130   132    1
   146   130   131    1
   147   130   127    1
   148   112   110   ar
   149   128   127    1
   150   113   111   ar
   151   165   168    1
   152   126   127    1
   153   123   121   ar
   154   122   120   ar
   155   110   108   ar
   156   110   109   ar
   157   111   108   ar
   158   168   169    1
   159   108   106   ar
   160   109   107   ar
   161   118   117    2
   162   169   170    1
   163   121   120   ar
   164   120   119    1
   165   117   116    1
   166   107   106   ar
   167   106   105    1
   168   170   171    1
   169   105   102    1
   170   119   116    1
   171    81    79    1
   172   171   172    2
   173   116   115    1
   174    80    79    1
   175    79    76    1
   176   172   174    1
   177   172   173    1
   178   103   102    1
   179   103   104    2
   180   102   101    1
   181   100    99    1
   182    76    75    1
   183    76    77    1
   184    98    99   ar
   185    98    96   ar
   186    99    97   ar
   187    96    94   ar
   188    78    77    2
   189    97    95   ar
   190    77    82   am
   191    94    95   ar
   192    94    93    1
   193    93    90    1
   194    82    88    1
   195    82    83    1
   196    85    84    2
   197    88    87    1
   198    84    83    1
   199    84    89   am
   200    83    86    1
   201    90    89    1
   202    90    91    1
   203    92    91    2
   204    87    86    1
