@<TRIPOS>MOLECULE
tmp/3l3lA00.pdb
 120 116 0 0 0
SMALL
GASTEIGER

@<TRIPOS>ATOM
      1  N        -18.8150   61.7740   37.9790 N.3    98  GLN98      -0.1245
      2  CA       -19.5560   62.2160   36.8010 C.3    98  GLN98       0.1566
      3  C        -19.0300   63.5610   36.3080 C.2    98  GLN98       0.2260
      4  O        -18.7620   63.7470   35.1170 O.2    98  GLN98      -0.2867
      5  CB       -21.0270   62.3750   37.1700 C.3    98  GLN98       0.0367
      6  CG       -21.9880   62.2630   36.0040 C.3    98  GLN98       0.0905
      7  CD       -23.3660   61.8100   36.4460 C.2    98  GLN98       0.2608
      8  OE1      -24.3770   62.4130   36.0830 O.2    98  GLN98      -0.2717
      9  NE2      -23.4110   60.7570   37.2570 N.am   98  GLN98      -0.0878
     10  N        -16.7070   64.5550   33.0010 N.3   102  GLU102     -0.1245
     11  CA       -17.1400   65.5180   31.9910 C.3   102  GLU102      0.1567
     12  C        -15.9910   66.4720   31.6920 C.2   102  GLU102      0.2260
     13  O        -15.8040   66.9020   30.5520 O.2   102  GLU102     -0.2867
     14  CB       -18.3460   66.3230   32.4800 C.3   102  GLU102      0.0388
     15  CG       -19.6620   65.5670   32.4790 C.3   102  GLU102      0.1160
     16  CD       -20.7050   66.2170   33.3750 C.2   102  GLU102      0.3649
     17  OE1      -21.5790   65.4940   33.9030 O.co2 102  GLU102     -0.2457
     18  OE2      -20.6390   67.4530   33.5630 O.co2 102  GLU102     -0.2457
     19  N        -13.2940   64.8620   29.5020 N.3   105  ASP105     -0.1239
     20  CA       -13.7910   64.8330   28.1240 C.3   105  ASP105      0.1674
     21  C        -13.4290   66.1620   27.4650 C.2   105  ASP105      0.2266
     22  O        -12.8420   66.2030   26.3870 O.2   105  ASP105     -0.2867
     23  CB       -15.3160   64.6790   28.1160 C.3   105  ASP105      0.1410
     24  CG       -15.7620   63.2340   28.2100 C.2   105  ASP105      0.3668
     25  OD1      -14.9900   62.3950   28.7200 O.co2 105  ASP105     -0.2456
     26  OD2      -16.8990   62.9380   27.7890 O.co2 105  ASP105     -0.2456
     27  N        -26.7530   68.7390   18.2960 N.3   201  HIS201     -0.1226
     28  CA       -25.6390   68.3130   19.1290 C.3   201  HIS201      0.1752
     29  C        -24.8720   69.5530   19.5520 C.2   201  HIS201      0.2596
     30  O        -24.2390   70.2130   18.7290 O.2   201  HIS201     -0.2718
     31  CB       -24.7080   67.3370   18.4160 C.3   201  HIS201      0.0759
     32  CG       -23.7380   66.6610   19.3370 C.ar  201  HIS201      0.0818
     33  ND1      -22.5570   67.2480   19.7390 N.ar  201  HIS201     -0.2268
     34  CD2      -23.8020   65.4720   19.9820 C.ar  201  HIS201      0.1154
     35  CE1      -21.9260   66.4410   20.5740 C.ar  201  HIS201      0.1986
     36  NE2      -22.6670   65.3610   20.7470 N.ar  201  HIS201     -0.2212
     37  N        -24.9870   69.9030   20.8270 N.am  202  GLY202     -0.1957
     38  CA       -24.3160   71.0630   21.3660 C.3   202  GLY202      0.1869
     39  C        -23.0840   70.6150   22.1190 C.2   202  GLY202      0.2309
     40  O        -23.0430   69.5100   22.6630 O.2   202  GLY202     -0.2863
     41  N        -22.8870   58.6470   34.0720 N.3   227  GLY227     -0.1210
     42  CA       -23.0990   59.8670   33.3090 C.3   227  GLY227      0.1956
     43  C        -23.7290   59.6070   31.9550 C.2   227  GLY227      0.2611
     44  O        -24.6290   60.3390   31.5230 O.2   227  GLY227     -0.2717
     45  N        -23.2510   58.5650   31.2800 N.am  228  TYR228     -0.1976
     46  CA       -23.8020   58.1680   29.9920 C.3   228  TYR228      0.1639
     47  C        -25.0660   57.3670   30.2810 C.2   228  TYR228      0.2290
     48  O        -25.0010   56.1700   30.5550 O.2   228  TYR228     -0.2864
     49  CB       -22.8030   57.2980   29.2290 C.3   228  TYR228      0.0560
     50  CG       -21.4520   57.9420   29.0340 C.ar  228  TYR228     -0.0198
     51  CD1      -20.5380   58.0150   30.0780 C.ar  228  TYR228     -0.0009
     52  CD2      -21.0890   58.4800   27.8060 C.ar  228  TYR228     -0.0009
     53  CE1      -19.3010   58.6040   29.9030 C.ar  228  TYR228      0.0417
     54  CE2      -19.8540   59.0750   27.6220 C.ar  228  TYR228      0.0417
     55  CZ       -18.9650   59.1360   28.6730 C.ar  228  TYR228      0.1957
     56  OH       -17.7360   59.7340   28.4920 O.3   228  TYR228     -0.2866
     57  N        -24.7860   61.2240   21.3990 N.3   235  TYR235     -0.1227
     58  CA       -26.1070   61.7020   21.7930 C.3   235  TYR235      0.1736
     59  C        -26.6050   62.8950   20.9940 C.2   235  TYR235      0.2595
     60  O        -25.8700   63.8500   20.7710 O.2   235  TYR235     -0.2718
     61  CB       -26.1090   62.0590   23.2790 C.3   235  TYR235      0.0548
     62  CG       -25.8760   60.8760   24.1840 C.ar  235  TYR235     -0.0200
     63  CD1      -24.7020   60.1390   24.1010 C.ar  235  TYR235     -0.0009
     64  CD2      -26.8440   60.4710   25.0970 C.ar  235  TYR235     -0.0009
     65  CE1      -24.4870   59.0450   24.9160 C.ar  235  TYR235      0.0417
     66  CE2      -26.6370   59.3760   25.9130 C.ar  235  TYR235      0.0417
     67  CZ       -25.4560   58.6700   25.8220 C.ar  235  TYR235      0.1957
     68  OH       -25.2460   57.5740   26.6300 O.3   235  TYR235     -0.2866
     69  N        -27.8760   62.8550   20.6050 N.am  236  PHE236     -0.1962
     70  CA       -28.4860   63.9570   19.8640 C.3   236  PHE236      0.1771
     71  C        -29.8530   64.2980   20.4450 C.2   236  PHE236      0.2619
     72  O        -30.4240   63.5220   21.2060 O.2   236  PHE236     -0.2715
     73  CB       -28.6500   63.5910   18.3880 C.3   236  PHE236      0.0574
     74  CG       -27.3660   63.2540   17.6970 C.ar  236  PHE236     -0.0200
     75  CD1      -26.9520   61.9400   17.5870 C.ar  236  PHE236     -0.0042
     76  CD2      -26.5900   64.2490   17.1260 C.ar  236  PHE236     -0.0042
     77  CE1      -25.7660   61.6270   16.9400 C.ar  236  PHE236     -0.0003
     78  CE2      -25.4150   63.9430   16.4710 C.ar  236  PHE236     -0.0003
     79  CZ       -25.0020   62.6300   16.3780 C.ar  236  PHE236     -0.0000
     80  N        -30.3800   65.4560   20.0640 N.am  237  ALA237     -0.1977
     81  CA       -31.6990   65.8860   20.5130 C.3   237  ALA237      0.1597
     82  C        -32.4870   66.4000   19.3170 C.2   237  ALA237      0.2287
     83  O        -31.8980   66.7360   18.2880 O.2   237  ALA237     -0.2864
     84  CB       -31.5790   66.9680   21.5780 C.3   237  ALA237      0.0319
     85  N        -32.6190   71.2120   24.4460 N.3   242  LYS242     -0.1231
     86  CA       -31.8410   70.1930   25.1500 C.3   242  LYS242      0.1693
     87  C        -30.3680   70.2430   24.7750 C.2   242  LYS242      0.2592
     88  O        -29.4970   70.1160   25.6330 O.2   242  LYS242     -0.2718
     89  CB       -32.3820   68.7940   24.8610 C.3   242  LYS242      0.0285
     90  CG       -31.4160   67.6780   25.2510 C.3   242  LYS242      0.0035
     91  CD       -31.3730   67.4910   26.7600 C.3   242  LYS242      0.0206
     92  CE       -30.5450   66.2830   27.1510 C.3   242  LYS242      0.1093
     93  NZ       -30.6010   66.0260   28.6160 N.3   242  LYS242     -0.1314
     94  N        -30.0990   70.4060   23.4820 N.am  243  SER243     -0.1952
     95  CA       -28.7290   70.4600   22.9820 C.3   243  SER243      0.1924
     96  C        -28.0070   71.7530   23.3570 C.2   243  SER243      0.2314
     97  O        -26.8490   71.7250   23.7730 O.2   243  SER243     -0.2863
     98  CB       -28.7040   70.2540   21.4670 C.3   243  SER243      0.2116
     99  OG       -28.5490   68.8800   21.1510 O.3   243  SER243     -0.2180
    100  N        -25.5550   72.2260   26.2430 N.3   246  TYR246     -0.1241
    101  CA       -24.2320   71.6290   26.3230 C.3   246  TYR246      0.1605
    102  C        -23.1340   72.5560   25.8220 C.2   246  TYR246      0.2264
    103  O        -21.9510   72.2380   25.9180 O.2   246  TYR246     -0.2867
    104  CB       -24.2030   70.2620   25.6440 C.3   246  TYR246      0.0534
    105  CG       -25.0650   69.2500   26.3600 C.ar  246  TYR246     -0.0201
    106  CD1      -24.6430   68.6660   27.5490 C.ar  246  TYR246     -0.0009
    107  CD2      -26.3300   68.9300   25.8890 C.ar  246  TYR246     -0.0009
    108  CE1      -25.4380   67.7530   28.2210 C.ar  246  TYR246      0.0417
    109  CE2      -27.1360   68.0240   26.5600 C.ar  246  TYR246      0.0417
    110  CZ       -26.6850   67.4420   27.7240 C.ar  246  TYR246      0.1957
    111  OH       -27.4900   66.5540   28.3970 O.3   246  TYR246     -0.2866
    112  N        -33.9730   61.8270   23.2130 N.3   327  GLU327     -0.1245
    113  CA       -32.5390   61.5900   23.1130 C.3   327  GLU327      0.1567
    114  C        -32.3000   60.5030   22.0700 C.2   327  GLU327      0.2260
    115  O        -32.9780   59.4750   22.0720 O.2   327  GLU327     -0.2867
    116  CB       -32.0210   61.0830   24.4620 C.3   327  GLU327      0.0388
    117  CG       -30.8250   61.8030   25.0140 C.3   327  GLU327      0.1160
    118  CD       -30.7840   61.7420   26.5240 C.2   327  GLU327      0.3649
    119  OE1      -30.0200   60.9170   27.0710 O.co2 327  GLU327     -0.2457
    120  OE2      -31.5460   62.4990   27.1620 O.co2 327  GLU327     -0.2457
@<TRIPOS>BOND
     1    79    78   ar
     2    79    77   ar
     3    78    76   ar
     4    77    75   ar
     5    76    74   ar
     6    75    74   ar
     7    74    73    1
     8    83    82    2
     9    27    28    1
    10    73    70    1
    11    31    28    1
    12    31    32    1
    13    30    29    2
    14    28    29    1
    15    82    81    1
    16    32    33   ar
    17    32    34   ar
    18    29    37   am
    19    33    35   ar
    20    70    71    1
    21    70    69    1
    22    34    36   ar
    23    80    71   am
    24    80    81    1
    25    71    72    2
    26    81    84    1
    27    35    36   ar
    28    69    59   am
    29    60    59    2
    30    37    38    1
    31    59    58    1
    32    99    98    1
    33    38    39    1
    34    57    58    1
    35    98    95    1
    36    58    61    1
    37   114   115    2
    38   114   113    1
    39    39    40    2
    40    95    96    1
    41    95    94    1
    42   113   112    1
    43   113   116    1
    44    61    62    1
    45    96    97    2
    46    94    87   am
    47    63    62   ar
    48    63    65   ar
    49    62    64   ar
    50    85    86    1
    51   116   117    1
    52    87    86    1
    53    87    88    2
    54    89    86    1
    55    89    90    1
    56    65    67   ar
    57   117   118    1
    58    64    66   ar
    59    90    91    1
    60   104   101    1
    61   104   105    1
    62    67    66   ar
    63    67    68    1
    64   102   103    2
    65   102   101    1
    66   107   105   ar
    67   107   109   ar
    68   100   101    1
    69   105   106   ar
    70    22    21    2
    71   118   119   ar
    72   118   120   ar
    73   109   110   ar
    74    91    92    1
    75    92    93    1
    76    21    20    1
    77   106   108   ar
    78    54    52   ar
    79    54    55   ar
    80   110   108   ar
    81   110   111    1
    82    26    24   ar
    83    52    50   ar
    84    23    20    1
    85    23    24    1
    86    20    19    1
    87    24    25   ar
    88    56    55    1
    89    55    53   ar
    90    50    49    1
    91    50    51   ar
    92    49    46    1
    93    53    51   ar
    94    46    47    1
    95    46    45    1
    96    47    48    2
    97    13    12    2
    98    45    43   am
    99    44    43    2
   100    12    11    1
   101    43    42    1
   102    11    14    1
   103    11    10    1
   104    15    14    1
   105    15    16    1
   106    42    41    1
   107    16    18   ar
   108    16    17   ar
   109     4     3    2
   110     6     7    1
   111     6     5    1
   112     8     7    2
   113     3     2    1
   114     7     9   am
   115     2     5    1
   116     2     1    1
