@<TRIPOS>MOLECULE
tmp/3l3mA00.pdb
 140 136 0 0 0
SMALL
GASTEIGER

@<TRIPOS>ATOM
      1  N         31.0730   14.9140   37.8800 N.3    97  GLN97      -0.1245
      2  CA        30.2640   14.6190   36.7000 C.3    97  GLN97       0.1566
      3  C         29.3790   15.8100   36.3500 C.2    97  GLN97       0.2260
      4  O         29.3040   16.2270   35.1950 O.2    97  GLN97      -0.2867
      5  CB        29.3910   13.3890   36.9380 C.3    97  GLN97       0.0367
      6  CG        30.0830   12.0680   36.6530 C.3    97  GLN97       0.0905
      7  CD        29.5810   10.9490   37.5420 C.2    97  GLN97       0.2608
      8  OE1       28.6620   11.1400   38.3390 O.2    97  GLN97      -0.2717
      9  NE2       30.1900    9.7740   37.4190 N.am   97  GLN97      -0.0878
     10  N         31.5300   18.7940   35.2310 N.3   100  ALA100     -0.1231
     11  CA        32.1070   18.5220   33.9170 C.3   100  ALA100      0.1694
     12  C         31.0360   18.7260   32.8580 C.2   100  ALA100      0.2591
     13  O         31.2980   19.2620   31.7810 O.2   100  ALA100     -0.2718
     14  CB        32.6540   17.1010   33.8600 C.3   100  ALA100      0.0304
     15  N         29.8190   18.3060   33.1860 N.am  101  GLU101     -0.1979
     16  CA        28.6930   18.4380   32.2810 C.3   101  GLU101      0.1602
     17  C         28.4950   19.9090   31.9610 C.2   101  GLU101      0.2287
     18  O         28.2190   20.2770   30.8210 O.2   101  GLU101     -0.2864
     19  CB        27.4350   17.8360   32.9180 C.3   101  GLU101      0.0415
     20  CG        26.1250   18.3950   32.3770 C.3   101  GLU101      0.1163
     21  CD        25.1260   18.7510   33.4790 C.2   101  GLU101      0.3649
     22  OE1       25.5480   19.1930   34.5740 O.co2 101  GLU101     -0.2457
     23  OE2       23.9080   18.5970   33.2360 O.co2 101  GLU101     -0.2457
     24  N         31.3710   21.2410   29.5180 N.3   104  ASP104     -0.1239
     25  CA        31.1350   20.8950   28.1090 C.3   104  ASP104      0.1674
     26  C         30.1820   21.9300   27.5000 C.2   104  ASP104      0.2266
     27  O         30.4210   22.4490   26.4090 O.2   104  ASP104     -0.2867
     28  CB        30.4900   19.5030   27.9510 C.3   104  ASP104      0.1410
     29  CG        31.2950   18.3910   28.6010 C.2   104  ASP104      0.3668
     30  OD1       32.5350   18.3590   28.4650 O.co2 104  ASP104     -0.2456
     31  OD2       30.6670   17.5130   29.2270 O.co2 104  ASP104     -0.2456
     32  N         21.1850   11.2460   18.1730 N.3   200  HIS200     -0.1226
     33  CA        22.0960   11.9790   19.0440 C.3   200  HIS200      0.1752
     34  C         21.4120   13.2470   19.5260 C.2   200  HIS200      0.2596
     35  O         21.1060   14.1430   18.7360 O.2   200  HIS200     -0.2718
     36  CB        23.4440   12.3050   18.4030 C.3   200  HIS200      0.0759
     37  CG        24.4540   12.8280   19.3840 C.ar  200  HIS200      0.0818
     38  ND1       24.5220   14.1570   19.7510 N.ar  200  HIS200     -0.2268
     39  CD2       25.3910   12.1910   20.1240 C.ar  200  HIS200      0.1154
     40  CE1       25.4810   14.3190   20.6440 C.ar  200  HIS200      0.1986
     41  NE2       26.0170   13.1390   20.8960 N.ar  200  HIS200     -0.2212
     42  N         21.1300   13.2970   20.8220 N.am  201  GLY201     -0.1957
     43  CA        20.4800   14.4450   21.4160 C.3   201  GLY201      0.1869
     44  C         21.4830   15.2880   22.1730 C.2   201  GLY201      0.2309
     45  O         22.4980   14.7810   22.6500 O.2   201  GLY201     -0.2863
     46  N         35.1480   10.3650   34.3230 N.3   225  THR225     -0.1203
     47  CA        33.9650    9.9490   35.0720 C.3   225  THR225      0.1994
     48  C         32.7510   10.4090   34.2850 C.2   225  THR225      0.2618
     49  O         32.7160   11.5400   33.8050 O.2   225  THR225     -0.2717
     50  CB        33.9280   10.5670   36.4900 C.3   225  THR225      0.1784
     51  OG1       35.2100   11.1100   36.8210 O.3   225  THR225     -0.2211
     52  CG2       33.5350    9.5250   37.5220 C.3   225  THR225      0.0376
     53  N         31.7480    9.5480   34.1640 N.am  226  GLY226     -0.1942
     54  CA        30.5460    9.9090   33.4370 C.3   226  GLY226      0.2014
     55  C         30.4780    9.3200   32.0400 C.2   226  GLY226      0.2639
     56  O         29.4280    9.3630   31.4020 O.2   226  GLY226     -0.2714
     57  N         31.5950    8.7830   31.5570 N.am  227  TYR227     -0.1959
     58  CA        31.6300    8.1460   30.2420 C.3   227  TYR227      0.1771
     59  C         31.7310    6.6510   30.4680 C.2   227  TYR227      0.2619
     60  O         32.8180    6.1340   30.7190 O.2   227  TYR227     -0.2715
     61  CB        32.8470    8.6000   29.4320 C.3   227  TYR227      0.0574
     62  CG        32.7990   10.0330   28.9700 C.ar  227  TYR227     -0.0198
     63  CD1       33.4990   11.0240   29.6520 C.ar  227  TYR227     -0.0009
     64  CD2       32.0760   10.3960   27.8410 C.ar  227  TYR227     -0.0009
     65  CE1       33.4720   12.3330   29.2270 C.ar  227  TYR227      0.0417
     66  CE2       32.0400   11.7080   27.4110 C.ar  227  TYR227      0.0417
     67  CZ        32.7420   12.6700   28.1070 C.ar  227  TYR227      0.1957
     68  OH        32.7030   13.9800   27.6920 O.3   227  TYR227     -0.2866
     69  N         30.5990    5.9570   30.3850 N.am  228  MET228     -0.1977
     70  CA        30.5720    4.5150   30.6180 C.3   228  MET228      0.1605
     71  C         31.5450    3.7160   29.7670 C.2   228  MET228      0.2287
     72  O         32.0560    2.6930   30.2090 O.2   228  MET228     -0.2864
     73  CB        29.1620    3.9690   30.4430 C.3   228  MET228      0.0413
     74  CG        28.2830    4.1770   31.6530 C.3   228  MET228      0.0598
     75  SD        26.7440    3.2800   31.4940 S.3   228  MET228     -0.1393
     76  CE        27.3450    1.6820   30.9090 C.3   228  MET228      0.0692
     77  N         28.5950    9.1640   21.4230 N.3   234  TYR234     -0.1227
     78  CA        27.5210    8.2660   21.8220 C.3   234  TYR234      0.1736
     79  C         26.2660    8.4270   20.9830 C.2   234  TYR234      0.2595
     80  O         25.8850    9.5390   20.6320 O.2   234  TYR234     -0.2718
     81  CB        27.1870    8.4770   23.2980 C.3   234  TYR234      0.0548
     82  CG        28.2510    7.9660   24.2370 C.ar  234  TYR234     -0.0200
     83  CD1       29.5830    8.3260   24.0720 C.ar  234  TYR234     -0.0009
     84  CD2       27.9290    7.0970   25.2730 C.ar  234  TYR234     -0.0009
     85  CE1       30.5650    7.8580   24.9300 C.ar  234  TYR234      0.0417
     86  CE2       28.9060    6.6190   26.1340 C.ar  234  TYR234      0.0417
     87  CZ        30.2210    6.9990   25.9520 C.ar  234  TYR234      0.1957
     88  OH        31.1880    6.5220   26.8020 O.3   234  TYR234     -0.2866
     89  N         25.6200    7.3060   20.6790 N.am  235  PHE235     -0.1962
     90  CA        24.3840    7.3110   19.9030 C.3   235  PHE235      0.1771
     91  C         23.4140    6.2890   20.4910 C.2   235  PHE235      0.2619
     92  O         23.8230    5.3620   21.1920 O.2   235  PHE235     -0.2715
     93  CB        24.6560    6.9380   18.4400 C.3   235  PHE235      0.0574
     94  CG        25.5160    7.9210   17.7030 C.ar  235  PHE235     -0.0200
     95  CD1       26.8620    7.6720   17.5090 C.ar  235  PHE235     -0.0042
     96  CD2       24.9620    9.0520   17.1270 C.ar  235  PHE235     -0.0042
     97  CE1       27.6540    8.5730   16.8030 C.ar  235  PHE235     -0.0003
     98  CE2       25.7450    9.9540   16.4330 C.ar  235  PHE235     -0.0003
     99  CZ        27.0910    9.7120   16.2690 C.ar  235  PHE235     -0.0000
    100  N         22.1350    6.4440   20.1520 N.am  236  ALA236     -0.1977
    101  CA        21.0870    5.5240   20.5770 C.3   236  ALA236      0.1597
    102  C         20.2600    5.1210   19.3590 C.2   236  ALA236      0.2287
    103  O         20.3220    5.7700   18.3150 O.2   236  ALA236     -0.2864
    104  CB        20.2000    6.1770   21.6240 C.3   236  ALA236      0.0319
    105  N         16.1310    7.4030   24.5530 N.3   241  LYS241     -0.1231
    106  CA        17.4280    7.5060   25.2020 C.3   241  LYS241      0.1693
    107  C         18.0760    8.8460   24.9010 C.2   241  LYS241      0.2592
    108  O         18.6000    9.4990   25.8000 O.2   241  LYS241     -0.2718
    109  CB        18.3530    6.3770   24.7470 C.3   241  LYS241      0.0285
    110  CG        19.7620    6.4670   25.3270 C.3   241  LYS241      0.0035
    111  CD        19.7330    6.4880   26.8470 C.3   241  LYS241      0.0206
    112  CE        21.1050    6.1780   27.4280 C.3   241  LYS241      0.1093
    113  NZ        21.3040    6.7950   28.7730 N.3   241  LYS241     -0.1314
    114  N         18.0340    9.2380   23.6300 N.am  242  SER242     -0.1952
    115  CA        18.6270   10.4910   23.1580 C.3   242  SER242      0.1924
    116  C         17.8700   11.7170   23.6450 C.2   242  SER242      0.2314
    117  O         18.4780   12.6830   24.1120 O.2   242  SER242     -0.2863
    118  CB        18.6730   10.5160   21.6220 C.3   242  SER242      0.2116
    119  OG        19.6290    9.6060   21.1180 O.3   242  SER242     -0.2180
    120  N         18.7330   13.9490   26.5250 N.3   245  TYR245     -0.1241
    121  CA        19.8810   14.8480   26.5260 C.3   245  TYR245      0.1605
    122  C         19.5840   16.2120   25.9300 C.2   245  TYR245      0.2264
    123  O         20.4700   17.0500   25.8240 O.2   245  TYR245     -0.2867
    124  CB        21.0850   14.1990   25.8420 C.3   245  TYR245      0.0534
    125  CG        21.5390   12.9300   26.5210 C.ar  245  TYR245     -0.0201
    126  CD1       22.4900   12.9620   27.5360 C.ar  245  TYR245     -0.0009
    127  CD2       20.9890   11.7030   26.1750 C.ar  245  TYR245     -0.0009
    128  CE1       22.8960   11.7970   28.1770 C.ar  245  TYR245      0.0417
    129  CE2       21.3860   10.5370   26.8040 C.ar  245  TYR245      0.0417
    130  CZ        22.3340   10.5900   27.8090 C.ar  245  TYR245      0.1957
    131  OH        22.7190    9.4310   28.4440 O.3   245  TYR245     -0.2866
    132  N         23.4660    1.5890   23.3880 N.3   326  GLU326     -0.1245
    133  CA        24.2240    2.7720   23.0150 C.3   326  GLU326      0.1567
    134  C         25.3710    2.3270   22.1370 C.2   326  GLU326      0.2260
    135  O         25.9010    1.2280   22.2980 O.2   326  GLU326     -0.2867
    136  CB        24.7290    3.5950   24.2100 C.3   326  GLU326      0.0388
    137  CG        24.7340    2.9030   25.5460 C.3   326  GLU326      0.1160
    138  CD        24.9910    3.8780   26.6760 C.2   326  GLU326      0.3649
    139  OE1       26.1230    4.3910   26.7650 O.co2 326  GLU326     -0.2457
    140  OE2       24.0470    4.1780   27.4370 O.co2 326  GLU326     -0.2457
@<TRIPOS>BOND
     1    99    98   ar
     2    99    97   ar
     3    98    96   ar
     4    97    95   ar
     5    96    94   ar
     6    95    94   ar
     7    94    93    1
     8    32    33    1
     9   103   102    2
    10    36    33    1
    11    36    37    1
    12    93    90    1
    13    35    34    2
    14    33    34    1
    15   102   101    1
    16    37    38   ar
    17    37    39   ar
    18    34    42   am
    19    38    40   ar
    20    90    91    1
    21    90    89    1
    22    39    41   ar
    23   100    91   am
    24   100   101    1
    25    91    92    2
    26   101   104    1
    27    80    79    2
    28    40    41   ar
    29    89    79   am
    30    42    43    1
    31    79    78    1
    32   119   118    1
    33    43    44    1
    34    77    78    1
    35   118   115    1
    36    78    81    1
    37   134   135    2
    38   134   133    1
    39    44    45    2
    40   133   132    1
    41   133   136    1
    42   115   114    1
    43   115   116    1
    44    81    82    1
    45   114   107   am
    46   116   117    2
    47    83    82   ar
    48    83    85   ar
    49   136   137    1
    50    82    84   ar
    51   105   106    1
    52   109   106    1
    53   109   110    1
    54   107   106    1
    55   107   108    2
    56    85    87   ar
    57    84    86   ar
    58   110   111    1
    59   137   138    1
    60   123   122    2
    61   124   125    1
    62   124   121    1
    63   122   121    1
    64    87    86   ar
    65    87    88    1
    66   127   125   ar
    67   127   129   ar
    68    27    26    2
    69   125   126   ar
    70   120   121    1
    71   138   139   ar
    72   138   140   ar
    73   129   130   ar
    74   111   112    1
    75    66    64   ar
    76    66    67   ar
    77   112   113    1
    78    26    25    1
    79   126   128   ar
    80    68    67    1
    81   130   128   ar
    82   130   131    1
    83    64    62   ar
    84    28    25    1
    85    28    29    1
    86    67    65   ar
    87    25    24    1
    88    30    29   ar
    89    29    31   ar
    90    62    61    1
    91    62    63   ar
    92    65    63   ar
    93    61    58    1
    94    71    72    2
    95    71    70    1
    96    58    59    1
    97    58    57    1
    98    69    59   am
    99    69    70    1
   100    73    70    1
   101    73    74    1
   102    59    60    2
   103    18    17    2
   104    76    75    1
   105    56    55    2
   106    75    74    1
   107    57    55   am
   108    13    12    2
   109    17    16    1
   110    55    54    1
   111    16    19    1
   112    16    15    1
   113    20    19    1
   114    20    21    1
   115    12    15   am
   116    12    11    1
   117    23    21   ar
   118    54    53    1
   119    21    22   ar
   120    49    48    2
   121    14    11    1
   122    11    10    1
   123    53    48   am
   124    48    47    1
   125    46    47    1
   126    47    50    1
   127     4     3    2
   128     3     2    1
   129    50    51    1
   130    50    52    1
   131     6     5    1
   132     6     7    1
   133     2     5    1
   134     2     1    1
   135     9     7   am
   136     7     8    2
