@<TRIPOS>MOLECULE
tmp/3l3nA00.pdb
 98 92 0 0 0
SMALL
GASTEIGER

@<TRIPOS>ATOM
      1  N         44.6590  -22.6240  132.8460 N.3     6  SER6       -0.1217
      2  CA        43.3570  -21.9990  133.0400 C.3     6  SER6        0.1889
      3  C         43.3850  -21.0020  134.2040 C.2     6  SER6        0.2288
      4  O         42.8670  -19.8900  134.0870 O.2     6  SER6       -0.2866
      5  CB        42.3100  -23.0870  133.3030 C.3     6  SER6        0.2089
      6  OG        41.0040  -22.6420  132.9810 O.3     6  SER6       -0.2183
      7  N         45.3880  -17.8260  133.3350 N.3     9  VAL9       -0.1231
      8  CA        44.6360  -16.9380  132.4490 C.3     9  VAL9        0.1692
      9  C         43.5910  -16.1510  133.2420 C.2     9  VAL9        0.2591
     10  O         43.3620  -14.9580  132.9860 O.2     9  VAL9       -0.2718
     11  CB        43.9630  -17.7280  131.3030 C.3     9  VAL9        0.0266
     12  CG1       42.8250  -16.9280  130.7040 C.3     9  VAL9        0.0020
     13  CG2       44.9590  -17.9810  130.2280 C.3     9  VAL9        0.0020
     14  N         42.9650  -16.8020  134.2220 N.am   10  GLU10      -0.1979
     15  CA        41.9930  -16.1070  135.0650 C.3    10  GLU10       0.1602
     16  C         42.7200  -15.0380  135.8970 C.2    10  GLU10       0.2287
     17  O         42.2230  -13.9160  136.0620 O.2    10  GLU10      -0.2864
     18  CB        41.2760  -17.0960  135.9840 C.3    10  GLU10       0.0415
     19  CG        40.4170  -18.1080  135.2480 C.3    10  GLU10       0.1163
     20  CD        40.0440  -19.3050  136.1100 C.2    10  GLU10       0.3649
     21  OE1       40.6330  -19.4720  137.2040 O.co2  10  GLU10      -0.2457
     22  OE2       39.1700  -20.0860  135.6910 O.co2  10  GLU10      -0.2457
     23  N         45.5570  -28.2980  125.3670 N.3    69  GLN69      -0.1231
     24  CA        44.3930  -28.7560  124.6030 C.3    69  GLN69       0.1698
     25  C         43.4430  -27.6250  124.2110 C.2    69  GLN69       0.2592
     26  O         43.1230  -27.4370  123.0230 O.2    69  GLN69      -0.2718
     27  CB        43.6240  -29.7830  125.4320 C.3    69  GLN69       0.0381
     28  CG        44.4780  -30.9580  125.9080 C.3    69  GLN69       0.0905
     29  CD        44.6950  -32.0200  124.8230 C.2    69  GLN69       0.2608
     30  OE1       44.8400  -31.7080  123.6290 O.2    69  GLN69      -0.2717
     31  NE2       44.7330  -33.2870  125.2430 N.am   69  GLN69      -0.0878
     32  N         42.9870  -26.8570  125.2080 N.am   70  ASN70      -0.1960
     33  CA        42.0430  -25.7780  124.9180 C.3    70  ASN70       0.1819
     34  C         42.6270  -24.7280  124.0080 C.2    70  ASN70       0.2622
     35  O         43.6990  -24.1550  124.2780 O.2    70  ASN70      -0.2715
     36  CB        41.5430  -25.0870  126.2150 C.3    70  ASN70       0.1195
     37  CG        40.4330  -24.0810  125.9510 C.2    70  ASN70       0.2630
     38  OD1       40.6690  -22.9830  125.3380 O.2    70  ASN70      -0.2716
     39  ND2       39.1950  -24.4270  126.3510 N.am   70  ASN70      -0.0877
     40  N         41.9030  -24.4490  122.9240 N.am   71  THR71      -0.1937
     41  CA        42.3170  -23.4250  121.9750 C.3    71  THR71       0.2028
     42  C         42.3290  -22.0200  122.5470 C.2    71  THR71       0.2643
     43  O         43.3390  -21.3160  122.4760 O.2    71  THR71      -0.2714
     44  CB        41.4250  -23.4150  120.7560 C.3    71  THR71       0.1808
     45  OG1       41.8480  -24.4380  119.8370 O.3    71  THR71      -0.2208
     46  CG2       41.4920  -22.0540  120.0730 C.3    71  THR71       0.0379
     47  N         41.2060  -21.5980  123.1170 N.am   72  THR72      -0.1936
     48  CA        41.1620  -20.2420  123.6390 C.3    72  THR72       0.2028
     49  C         42.3020  -19.9590  124.6330 C.2    72  THR72       0.2642
     50  O         42.9750  -18.9310  124.5190 O.2    72  THR72      -0.2714
     51  CB        39.8310  -19.9170  124.3210 C.3    72  THR72       0.1808
     52  OG1       38.8030  -19.8010  123.3260 O.3    72  THR72      -0.2208
     53  CG2       39.9490  -18.6150  125.1010 C.3    72  THR72       0.0379
     54  N         42.5000  -20.8450  125.6030 N.am   73  ILE73      -0.1977
     55  CA        43.5370  -20.6390  126.6150 C.3    73  ILE73       0.1596
     56  C         44.9350  -20.5610  125.9880 C.2    73  ILE73       0.2287
     57  O         45.7580  -19.6810  126.3140 O.2    73  ILE73      -0.2864
     58  CB        43.4800  -21.8010  127.6750 C.3    73  ILE73       0.0276
     59  CG1       42.1910  -21.6830  128.4890 C.3    73  ILE73       0.0022
     60  CG2       44.7020  -21.7790  128.5700 C.3    73  ILE73       0.0022
     61  CD1       41.7570  -22.9580  129.1280 C.3    73  ILE73       0.0001
     62  N         45.4940  -17.2270  124.4240 N.3    76  ILE76      -0.1245
     63  CA        45.8260  -16.1820  125.3630 C.3    76  ILE76       0.1561
     64  C         47.2660  -16.1760  125.8750 C.2    76  ILE76       0.2260
     65  O         47.9660  -15.1590  125.8530 O.2    76  ILE76      -0.2867
     66  CB        44.8500  -16.2700  126.5220 C.3    76  ILE76       0.0252
     67  CG1       43.4160  -16.0800  126.0290 C.3    76  ILE76       0.0019
     68  CG2       45.1840  -15.2440  127.5880 C.3    76  ILE76       0.0019
     69  CD1       42.3770  -16.0990  127.1230 C.3    76  ILE76       0.0001
     70  N         34.9990  -10.1910  126.8910 N.3   358  LEU358     -0.1231
     71  CA        36.0460  -11.1340  126.5050 C.3   358  LEU358      0.1678
     72  C         37.2700  -10.9250  127.3640 C.2   358  LEU358      0.2434
     73  O         37.5380   -9.8150  127.8080 O.2   358  LEU358     -0.2733
     74  CB        36.4690  -10.9540  125.0240 C.3   358  LEU358      0.0284
     75  CG        35.7180  -11.6180  123.8650 C.3   358  LEU358      0.0019
     76  CD1       36.3480  -11.2010  122.5540 C.3   358  LEU358      0.0001
     77  CD2       35.7690  -13.1280  123.9940 C.3   358  LEU358      0.0001
     78  N         38.0190  -12.0050  127.6300 N.am  359  PRO359     -0.2729
     79  CA        39.2260  -11.8460  128.4390 C.3   359  PRO359      0.1401
     80  C         39.9530  -10.6670  127.7940 C.2   359  PRO359      0.2269
     81  O         40.0420  -10.5790  126.5730 O.2   359  PRO359     -0.2865
     82  CB        39.9650  -13.1600  128.2140 C.3   359  PRO359      0.0296
     83  CG        38.8400  -14.1390  128.0550 C.3   359  PRO359      0.0237
     84  CD        37.8200  -13.4090  127.2200 C.3   359  PRO359      0.0939
     85  N         41.9300  -10.7970  124.5780 N.3   362  LEU362     -0.1245
     86  CA        41.2530  -11.0140  123.3050 C.3   362  LEU362      0.1561
     87  C         40.3860   -9.8070  122.9160 C.2   362  LEU362      0.2260
     88  O         39.6870   -9.8340  121.9000 O.2   362  LEU362     -0.2867
     89  CB        40.4090  -12.2950  123.3860 C.3   362  LEU362      0.0270
     90  CG        41.1680  -13.5790  123.7760 C.3   362  LEU362      0.0019
     91  CD1       40.2290  -14.7780  123.8620 C.3   362  LEU362      0.0001
     92  CD2       42.2680  -13.8520  122.7580 C.3   362  LEU362      0.0001
     93  N         39.4890  -13.5080  119.4460 N.3   529  SER529     -0.1217
     94  CA        39.3930  -14.9150  119.8690 C.3   529  SER529      0.1889
     95  C         39.6140  -15.9840  118.7840 C.2   529  SER529      0.2288
     96  O         39.9120  -17.1440  119.1010 O.2   529  SER529     -0.2866
     97  CB        38.0480  -15.1790  120.5650 C.3   529  SER529      0.2089
     98  OG        36.9720  -15.1750  119.6440 O.3   529  SER529     -0.2183
@<TRIPOS>BOND
     1    95    96    2
     2    95    94    1
     3    93    94    1
     4    98    97    1
     5    45    44    1
     6    94    97    1
     7    46    44    1
     8    44    41    1
     9    88    87    2
    10    41    42    1
    11    41    40    1
    12    43    42    2
    13    42    47   am
    14    76    75    1
    15    92    90    1
    16    87    86    1
    17    40    34   am
    18    26    25    2
    19    47    48    1
    20    86    89    1
    21    86    85    1
    22    52    51    1
    23    89    90    1
    24    30    29    2
    25    48    51    1
    26    48    49    1
    27    90    91    1
    28    75    77    1
    29    75    74    1
    30    34    35    2
    31    34    33    1
    32    25    24    1
    33    25    32   am
    34    51    53    1
    35    62    63    1
    36    50    49    2
    37    24    23    1
    38    24    27    1
    39    49    54   am
    40    29    31   am
    41    29    28    1
    42    33    32    1
    43    33    36    1
    44    74    71    1
    45    38    37    2
    46    63    64    1
    47    63    66    1
    48    27    28    1
    49    54    55    1
    50    65    64    2
    51    37    36    1
    52    37    39   am
    53    56    57    2
    54    56    55    1
    55    67    66    1
    56    67    69    1
    57    71    70    1
    58    71    72    1
    59    66    68    1
    60    81    80    2
    61    55    58    1
    62    84    78    1
    63    84    83    1
    64    72    78   am
    65    72    73    2
    66    78    79    1
    67    58    59    1
    68    58    60    1
    69    80    79    1
    70    83    82    1
    71    82    79    1
    72    59    61    1
    73    13    11    1
    74    12    11    1
    75    11     8    1
    76     8     9    1
    77     8     7    1
    78     1     2    1
    79     6     5    1
    80    10     9    2
    81     2     5    1
    82     2     3    1
    83     9    14   am
    84     4     3    2
    85    14    15    1
    86    15    16    1
    87    15    18    1
    88    19    18    1
    89    19    20    1
    90    22    20   ar
    91    16    17    2
    92    20    21   ar
