@<TRIPOS>MOLECULE
tmp/3l3rA00.pdb
 169 162 0 0 0
SMALL
GASTEIGER

@<TRIPOS>ATOM
      1  N         22.0270   12.1630    1.7320 N.3     7  ILE7       -0.1231
      2  CA        21.3840   11.3190    2.6950 C.3     7  ILE7        0.1692
      3  C         21.4180    9.9070    2.1170 C.2     7  ILE7        0.2592
      4  O         21.1610    9.7240    0.9440 O.2     7  ILE7       -0.2718
      5  CB        19.9480   11.8110    3.0420 C.3     7  ILE7        0.0266
      6  CG1       19.3390   10.9170    4.1500 C.3     7  ILE7        0.0019
      7  CG2       19.0430   11.9320    1.7900 C.3     7  ILE7        0.0020
      8  CD1       17.9770   11.4260    4.6870 C.3     7  ILE7        0.0001
      9  N         21.7610    8.9220    2.9470 N.am    8  VAL8       -0.1966
     10  CA        21.9450    7.5380    2.4910 C.3     8  VAL8        0.1727
     11  C         21.6510    6.6470    3.7030 C.2     8  VAL8        0.2616
     12  O         21.7800    7.1040    4.8580 O.2     8  VAL8       -0.2715
     13  CB        23.4020    7.2590    1.9860 C.3     8  VAL8        0.0290
     14  CG1       24.4510    7.2600    3.1570 C.3     8  VAL8        0.0023
     15  CG2       23.4410    5.8970    1.2430 C.3     8  VAL8        0.0023
     16  N         21.2560    5.4010    3.4450 N.am    9  ALA9       -0.1977
     17  CA        21.3210    4.3270    4.4590 C.3     9  ALA9        0.1597
     18  C         22.2710    3.2880    3.9450 C.2     9  ALA9        0.2287
     19  O         22.2310    2.9270    2.7540 O.2     9  ALA9       -0.2864
     20  CB        19.9210    3.7080    4.7200 C.3     9  ALA9        0.0319
     21  N         17.2790   -2.4840   -5.7850 N.3    21  ASP21      -0.1225
     22  CA        16.4450   -2.5500   -4.6010 C.3    21  ASP21       0.1805
     23  C         17.3790   -2.3560   -3.3900 C.2    21  ASP21       0.2597
     24  O         18.6040   -2.3860   -3.5220 O.2    21  ASP21      -0.2718
     25  CB        15.8160   -3.9410   -4.6530 C.3    21  ASP21       0.1424
     26  CG        14.7640   -4.1620   -3.6430 C.2    21  ASP21       0.3668
     27  OD1       14.0700   -3.1780   -3.2530 O.co2  21  ASP21      -0.2456
     28  OD2       14.6230   -5.3740   -3.2670 O.co2  21  ASP21      -0.2456
     29  N         16.8290   -2.1100   -2.2070 N.am   22  LEU22      -0.1979
     30  CA        17.6640   -2.0310   -0.9910 C.3    22  LEU22       0.1596
     31  C         18.1460   -3.4360   -0.5380 C.2    22  LEU22       0.2287
     32  O         17.4740   -4.4480   -0.7720 O.2    22  LEU22      -0.2864
     33  CB        16.9330   -1.2620    0.1310 C.3    22  LEU22       0.0297
     34  CG        16.4640    0.1930   -0.1370 C.3    22  LEU22       0.0022
     35  CD1       15.8840    0.7880    1.1010 C.3    22  LEU22       0.0001
     36  CD2       17.5190    1.2080   -0.6970 C.3    22  LEU22       0.0001
     37  N         12.7500    3.9710    9.1850 N.3    30  GLU30      -0.1231
     38  CA        13.8790    4.4770    8.3790 C.3    30  GLU30       0.1699
     39  C         13.3930    5.1720    7.1050 C.2    30  GLU30       0.2592
     40  O         13.8690    6.2550    6.7790 O.2    30  GLU30      -0.2718
     41  CB        14.8640    3.3460    8.0240 C.3    30  GLU30       0.0402
     42  CG        16.3410    3.8140    7.9150 C.3    30  GLU30       0.1161
     43  CD        16.6540    4.7670    6.7540 C.2    30  GLU30       0.3649
     44  OE1       17.3410    5.7930    6.9710 O.co2  30  GLU30      -0.2457
     45  OE2       16.2760    4.5150    5.6060 O.co2  30  GLU30      -0.2457
     46  N         12.4570    4.5560    6.3730 N.am   31  PHE31      -0.1976
     47  CA        11.7370    5.2860    5.3290 C.3    31  PHE31       0.1639
     48  C         11.1140    6.6170    5.8200 C.2    31  PHE31       0.2290
     49  O         11.2400    7.6460    5.1310 O.2    31  PHE31      -0.2864
     50  CB        10.6290    4.4570    4.6660 C.3    31  PHE31       0.0560
     51  CG        11.1230    3.4530    3.6460 C.ar   31  PHE31      -0.0200
     52  CD1       11.7980    3.8660    2.5170 C.ar   31  PHE31      -0.0042
     53  CD2       10.8610    2.0640    3.8170 C.ar   31  PHE31      -0.0042
     54  CE1       12.2530    2.8990    1.5390 C.ar   31  PHE31      -0.0003
     55  CE2       11.3090    1.0760    2.8690 C.ar   31  PHE31      -0.0003
     56  CZ        12.0090    1.4830    1.7330 C.ar   31  PHE31      -0.0000
     57  N         11.9580    8.5640    8.2930 N.3    33  TYR33      -0.1227
     58  CA        13.0710    9.4770    8.5420 C.3    33  TYR33       0.1736
     59  C         13.5480   10.1080    7.2440 C.2    33  TYR33       0.2595
     60  O         13.7540   11.3120    7.2270 O.2    33  TYR33      -0.2718
     61  CB        14.2500    8.7090    9.2050 C.3    33  TYR33       0.0548
     62  CG        15.5560    9.5520    9.3880 C.ar   33  TYR33      -0.0200
     63  CD1       16.6470    9.4340    8.5120 C.ar   33  TYR33      -0.0009
     64  CD2       15.6560   10.4990   10.4190 C.ar   33  TYR33      -0.0009
     65  CE1       17.8330   10.2070    8.6980 C.ar   33  TYR33       0.0417
     66  CE2       16.8650   11.2630   10.6110 C.ar   33  TYR33       0.0417
     67  CZ        17.9110   11.1100    9.7570 C.ar   33  TYR33       0.1957
     68  OH        19.0180   11.9310    9.9600 O.3    33  TYR33      -0.2866
     69  N         13.8020    9.2870    6.2030 N.am   34  PHE34      -0.1962
     70  CA        14.2370    9.7670    4.8830 C.3    34  PHE34       0.1771
     71  C         13.2570   10.8440    4.3310 C.2    34  PHE34       0.2619
     72  O         13.6750   11.9260    3.8710 O.2    34  PHE34      -0.2715
     73  CB        14.4410    8.5880    3.9010 C.3    34  PHE34       0.0574
     74  CG        14.6100    9.0180    2.4400 C.ar   34  PHE34      -0.0200
     75  CD1       15.7630    9.7060    2.0070 C.ar   34  PHE34      -0.0042
     76  CD2       13.6020    8.7610    1.5060 C.ar   34  PHE34      -0.0042
     77  CE1       15.9240   10.0970    0.6780 C.ar   34  PHE34      -0.0003
     78  CE2       13.7280    9.2050    0.1260 C.ar   34  PHE34      -0.0003
     79  CZ        14.8690    9.8450   -0.2940 C.ar   34  PHE34      -0.0000
     80  N         11.9580   10.5530    4.4340 N.am   35  LYS35      -0.1977
     81  CA        10.8900   11.4250    3.9590 C.3    35  LYS35       0.1596
     82  C         10.8650   12.7320    4.7570 C.2    35  LYS35       0.2287
     83  O         10.7750   13.8130    4.1640 O.2    35  LYS35      -0.2864
     84  CB         9.5210   10.7160    4.1170 C.3    35  LYS35       0.0298
     85  CG         8.2700   11.5030    3.7330 C.3    35  LYS35       0.0038
     86  CD         7.0720   10.4930    3.5330 C.3    35  LYS35       0.0206
     87  CE         5.7950   11.1640    2.9690 C.3    35  LYS35       0.1093
     88  NZ         5.8190   11.8160    1.5820 N.3    35  LYS35      -0.1314
     89  N         18.4620    5.4030   -9.5650 N.3    56  THR56      -0.1218
     90  CA        17.7730    5.7130   -8.3010 C.3    56  THR56       0.1862
     91  C         16.3190    6.1190   -8.5350 C.2    56  THR56       0.2287
     92  O         15.3940    5.6000   -7.8150 O.2    56  THR56      -0.2866
     93  CB        18.5860    6.8190   -7.4840 C.3    56  THR56       0.1770
     94  OG1       19.9200    6.3160   -7.2030 O.3    56  THR56      -0.2211
     95  CG2       17.8870    7.1740   -6.1900 C.3    56  THR56       0.0375
     96  N         14.3810    3.1290   -9.3520 N.3    59  SER59      -0.1202
     97  CA        14.3080    2.2210   -8.1810 C.3    59  SER59       0.2020
     98  C         13.0930    2.5370   -7.2690 C.2    59  SER59       0.2619
     99  O         12.6480    1.6820   -6.5080 O.2    59  SER59      -0.2717
    100  CB        15.6360    2.1940   -7.4050 C.3    59  SER59       0.2103
    101  OG        15.8560    3.3770   -6.6210 O.3    59  SER59      -0.2182
    102  N         12.5070    3.7410   -7.3970 N.am   60  ILE60      -0.1966
    103  CA        11.4160    4.1520   -6.5500 C.3    60  ILE60       0.1712
    104  C         10.1360    3.6420   -7.1540 C.2    60  ILE60       0.2458
    105  O          9.9200    3.8180   -8.3480 O.2    60  ILE60      -0.2730
    106  CB        11.3420    5.7280   -6.4270 C.3    60  ILE60       0.0289
    107  CG1       12.6240    6.2930   -5.8040 C.3    60  ILE60       0.0022
    108  CG2       10.1200    6.1500   -5.5880 C.3    60  ILE60       0.0023
    109  CD1       12.7840    7.8390   -5.9830 C.3    60  ILE60       0.0001
    110  N          9.2780    2.9920   -6.3360 N.am   61  PRO61      -0.2727
    111  CA         8.0400    2.4730   -6.9110 C.3    61  PRO61       0.1402
    112  C          7.3430    3.6270   -7.6090 C.2    61  PRO61       0.2269
    113  O          7.3310    4.7290   -7.0780 O.2    61  PRO61      -0.2865
    114  CB         7.2300    2.0540   -5.6770 C.3    61  PRO61       0.0296
    115  CG         8.3020    1.6110   -4.6500 C.3    61  PRO61       0.0237
    116  CD         9.4530    2.6140   -4.9180 C.3    61  PRO61       0.0939
    117  N          5.3470    6.1130   -5.7010 N.3    64  ASN64      -0.1240
    118  CA         6.0690    6.9460   -4.7410 C.3    64  ASN64       0.1653
    119  C          6.8440    8.0390   -5.5050 C.2    64  ASN64       0.2266
    120  O          7.5610    8.8150   -4.9030 O.2    64  ASN64      -0.2867
    121  CB         7.0530    6.1140   -3.8710 C.3    64  ASN64       0.1155
    122  CG         6.3670    5.1600   -2.8750 C.2    64  ASN64       0.2627
    123  OD1        5.6090    5.5790   -1.9920 O.2    64  ASN64      -0.2716
    124  ND2        6.6620    3.8780   -2.9960 N.am   64  ASN64      -0.0877
    125  N          8.9320   12.0770   -5.6010 N.3    67  LEU67      -0.1245
    126  CA         8.9280   12.2240   -4.1420 C.3    67  LEU67       0.1561
    127  C          8.0640   13.4530   -3.7870 C.2    67  LEU67       0.2260
    128  O          8.4030   14.5690   -4.1720 O.2    67  LEU67      -0.2867
    129  CB        10.3700   12.4000   -3.6340 C.3    67  LEU67       0.0270
    130  CG        11.1440   11.0860   -3.8130 C.3    67  LEU67       0.0019
    131  CD1       12.5640   11.2350   -3.2550 C.3    67  LEU67       0.0001
    132  CD2       10.4390    9.8710   -3.1210 C.3    67  LEU67       0.0001
    133  N          8.4470   17.7650   -2.7460 N.3    70  ARG70      -0.1245
    134  CA         9.8070   18.1290   -3.1380 C.3    70  ARG70       0.1563
    135  C          9.9030   18.2390   -4.6410 C.2    70  ARG70       0.2260
    136  O          9.2110   17.5270   -5.3560 O.2    70  ARG70      -0.2867
    137  CB        10.8000   17.0410   -2.6790 C.3    70  ARG70       0.0307
    138  CG        10.8960   16.8440   -1.1570 C.3    70  ARG70       0.0489
    139  CD        11.1740   15.3920   -0.8400 C.3    70  ARG70       0.2205
    140  NE         9.8980   14.6240   -0.7650 N.pl3  70  ARG70      -0.0865
    141  CZ         9.8030   13.3680   -0.2910 C.cat  70  ARG70       0.5346
    142  NH1       10.8840   12.6790    0.1710 N.pl3  70  ARG70       0.1354
    143  NH2        8.6090   12.7970   -0.2780 N.pl3  70  ARG70       0.1354
    144  N         20.2590   12.1440   -3.1310 N.3   115  VAL115     -0.1245
    145  CA        19.6400   10.9280   -2.5680 C.3   115  VAL115      0.1561
    146  C         20.0880    9.6430   -3.3100 C.2   115  VAL115      0.2260
    147  O         19.5120    8.5760   -3.0990 O.2   115  VAL115     -0.2867
    148  CB        18.0700   11.0010   -2.5760 C.3   115  VAL115      0.0252
    149  CG1       17.5250   12.1550   -1.7550 C.3   115  VAL115      0.0019
    150  CG2       17.4840   11.0130   -4.0650 C.3   115  VAL115      0.0019
    151  N         26.7960   10.5730   -5.2490 N.3   121  TYR121     -0.1241
    152  CA        27.4000   10.7200   -3.8890 C.3   121  TYR121      0.1605
    153  C         28.9210   11.0450   -4.0150 C.2   121  TYR121      0.2264
    154  O         29.4260   12.0080   -3.4390 O.2   121  TYR121     -0.2867
    155  CB        27.2500    9.4270   -3.0840 C.3   121  TYR121      0.0534
    156  CG        25.8250    9.0950   -2.5960 C.ar  121  TYR121     -0.0201
    157  CD1       25.2960    7.7910   -2.7560 C.ar  121  TYR121     -0.0009
    158  CD2       25.0620   10.0480   -1.9170 C.ar  121  TYR121     -0.0009
    159  CE1       24.0110    7.4560   -2.2450 C.ar  121  TYR121      0.0417
    160  CE2       23.7520    9.7380   -1.4590 C.ar  121  TYR121      0.0417
    161  CZ        23.2600    8.4510   -1.5810 C.ar  121  TYR121      0.1957
    162  OH        21.9940    8.1440   -1.1030 O.3   121  TYR121     -0.2866
    163  N         22.5080    6.7290    7.6940 N.3   136  THR136     -0.1218
    164  CA        21.9050    5.7940    8.6440 C.3   136  THR136      0.1862
    165  C         22.8020    4.5590    8.5150 C.2   136  THR136      0.2287
    166  O         22.9660    3.9930    7.3930 O.2   136  THR136     -0.2866
    167  CB        20.4990    5.4220    8.1960 C.3   136  THR136      0.1770
    168  OG1       19.6880    6.5970    8.1150 O.3   136  THR136     -0.2211
    169  CG2       19.8540    4.3280    9.1060 C.3   136  THR136      0.0375
@<TRIPOS>BOND
     1    89    90    1
     2    96    97    1
     3    91    90    1
     4    91    92    2
     5   105   104    2
     6    90    93    1
     7    97   100    1
     8    97    98    1
     9   112   113    2
    10   112   111    1
    11    93    94    1
    12    93    95    1
    13   100   101    1
    14   102    98   am
    15   102   103    1
    16    98    99    2
    17   104   103    1
    18   104   110   am
    19   111   110    1
    20   111   114    1
    21   103   106    1
    22   106   107    1
    23   106   108    1
    24   110   116    1
    25   109   107    1
    26    21    22    1
    27   117   118    1
    28   114   115    1
    29   125   126    1
    30   119   120    2
    31   119   118    1
    32   136   135    2
    33   151   152    1
    34   116   115    1
    35   118   121    1
    36    25    22    1
    37    25    26    1
    38   135   134    1
    39    22    23    1
    40   128   127    2
    41   126   127    1
    42   126   129    1
    43   150   148    1
    44   153   152    1
    45   153   154    2
    46   152   155    1
    47   121   122    1
    48   130   129    1
    49   130   131    1
    50   130   132    1
    51    26    28   ar
    52    26    27   ar
    53    24    23    2
    54    23    29   am
    55   146   147    2
    56   146   145    1
    57   134   133    1
    58   134   137    1
    59   144   145    1
    60   155   156    1
    61   124   122   am
    62   122   123    2
    63   157   156   ar
    64   157   159   ar
    65   137   138    1
    66   156   158   ar
    67   148   145    1
    68   148   149    1
    69   159   161   ar
    70    29    30    1
    71   158   160   ar
    72   161   160   ar
    73   161   162    1
    74   138   139    1
    75    30    31    1
    76    30    33    1
    77   139   140    1
    78    32    31    2
    79   140   141    2
    80    36    34    1
    81    79    78   ar
    82    79    77   ar
    83   141   143    1
    84   141   142    1
    85    34    33    1
    86    34    35    1
    87    78    76   ar
    88    77    75   ar
    89     4     3    2
    90    15    13    1
    91    76    74   ar
    92    54    56   ar
    93    54    52   ar
    94    88    87    1
    95     1     2    1
    96    56    55   ar
    97     7     5    1
    98    13    10    1
    99    13    14    1
   100    75    74   ar
   101     3     2    1
   102     3     9   am
   103    74    73    1
   104    10     9    1
   105    10    11    1
   106    52    51   ar
   107     2     5    1
   108    19    18    2
   109    55    53   ar
   110    87    86    1
   111     5     6    1
   112    16    11   am
   113    16    17    1
   114    86    85    1
   115    51    53   ar
   116    51    50    1
   117    11    12    2
   118    85    84    1
   119    72    71    2
   120    73    70    1
   121    18    17    1
   122    81    84    1
   123    81    80    1
   124    81    82    1
   125     6     8    1
   126    83    82    2
   127    71    80   am
   128    71    70    1
   129    17    20    1
   130    50    47    1
   131    70    69    1
   132    49    48    2
   133    47    48    1
   134    47    46    1
   135    45    43   ar
   136    69    59   am
   137    46    39   am
   138    43    44   ar
   139    43    42    1
   140    40    39    2
   141    39    38    1
   142    60    59    2
   143    59    58    1
   144   166   165    2
   145   163   164    1
   146    42    41    1
   147    41    38    1
   148   168   167    1
   149   167   164    1
   150   167   169    1
   151    57    58    1
   152    38    37    1
   153    63    65   ar
   154    63    62   ar
   155   165   164    1
   156    58    61    1
   157    65    67   ar
   158    61    62    1
   159    62    64   ar
   160    67    68    1
   161    67    66   ar
   162    64    66   ar
