@<TRIPOS>MOLECULE
tmp/3l3xA00.pdb
 154 145 0 0 0
SMALL
GASTEIGER

@<TRIPOS>ATOM
      1  N         -4.9620   27.2680    7.2830 N.3    41  GLU41      -0.1245
      2  CA        -6.0810   26.7030    8.0460 C.3    41  GLU41       0.1567
      3  C         -5.8780   25.2000    8.2200 C.2    41  GLU41       0.2260
      4  O         -6.0420   24.6580    9.3220 O.2    41  GLU41      -0.2867
      5  CB        -7.3700   26.9870    7.2960 C.3    41  GLU41       0.0388
      6  CG        -8.6640   26.6620    8.0680 C.3    41  GLU41       0.1160
      7  CD        -9.0740   27.7240    9.0720 C.2    41  GLU41       0.3649
      8  OE1      -10.1690   27.5640    9.6840 O.co2  41  GLU41      -0.2457
      9  OE2       -8.3460   28.7330    9.2520 O.co2  41  GLU41      -0.2457
     10  N         -2.8990   24.4240   10.4750 N.3    44  LEU44      -0.1231
     11  CA        -3.2140   24.7270   11.8610 C.3    44  LEU44       0.1693
     12  C         -3.8000   23.5030   12.5780 C.2    44  LEU44       0.2591
     13  O         -3.4550   23.2180   13.7300 O.2    44  LEU44      -0.2718
     14  CB        -4.1750   25.9150   11.9620 C.3    44  LEU44       0.0284
     15  CG        -4.1820   26.6110   13.3120 C.3    44  LEU44       0.0019
     16  CD1       -2.7880   27.2140   13.5570 C.3    44  LEU44       0.0001
     17  CD2       -5.2900   27.7040   13.3940 C.3    44  LEU44       0.0001
     18  N         -4.6360   22.7440   11.8730 N.am   45  VAL45      -0.1980
     19  CA        -5.1500   21.5130   12.4390 C.3    45  VAL45       0.1595
     20  C         -4.0150   20.5700   12.8490 C.2    45  VAL45       0.2287
     21  O         -4.0250   19.9920   13.9510 O.2    45  VAL45      -0.2864
     22  CB        -6.0790   20.8030   11.4580 C.3    45  VAL45       0.0276
     23  CG1       -6.5270   19.4560   12.0620 C.3    45  VAL45       0.0022
     24  CG2       -7.2930   21.6960   11.1130 C.3    45  VAL45       0.0022
     25  N         -1.8990   21.8690   15.8980 N.3    48  VAL48      -0.1231
     26  CA        -2.5610   21.5990   17.1760 C.3    48  VAL48       0.1692
     27  C         -2.3940   20.1480   17.6120 C.2    48  VAL48       0.2591
     28  O         -2.0330   19.8630   18.7450 O.2    48  VAL48      -0.2718
     29  CB        -4.0390   21.9720   17.1410 C.3    48  VAL48       0.0266
     30  CG1       -4.7420   21.5250   18.4310 C.3    48  VAL48       0.0020
     31  CG2       -4.1900   23.4810   16.8870 C.3    48  VAL48       0.0020
     32  N         -2.6020   19.2340   16.6870 N.am   49  LYS49      -0.1980
     33  CA        -2.4590   17.8120   17.0020 C.3    49  LYS49       0.1596
     34  C         -1.0320   17.4310   17.3780 C.2    49  LYS49       0.2287
     35  O         -0.8000   16.6110   18.2760 O.2    49  LYS49      -0.2864
     36  CB        -2.9840   16.9600   15.8390 C.3    49  LYS49       0.0298
     37  CG        -4.4790   17.1030   15.6280 C.3    49  LYS49       0.0038
     38  CD        -4.9710   16.2380   14.4880 C.3    49  LYS49       0.0206
     39  CE        -6.4810   16.3800   14.2900 C.3    49  LYS49       0.1093
     40  NZ        -6.9670   15.6560   13.0610 N.3    49  LYS49      -0.1314
     41  N         -0.1290   19.0010   20.9650 N.3    52  LYS52      -0.1245
     42  CA        -0.7870   18.2700   22.0540 C.3    52  LYS52       0.1561
     43  C         -0.1280   16.9280   22.3460 C.2    52  LYS52       0.2260
     44  O         -0.3260   16.3670   23.4260 O.2    52  LYS52      -0.2867
     45  CB        -2.2750   18.0750   21.7310 C.3    52  LYS52       0.0271
     46  CG        -3.1420   19.3130   21.8220 C.3    52  LYS52       0.0035
     47  CD        -4.5830   18.9730   21.4400 C.3    52  LYS52       0.0206
     48  CE        -5.2660   18.1360   22.5420 C.3    52  LYS52       0.1093
     49  NZ        -6.6540   17.6770   22.2210 N.3    52  LYS52      -0.1314
     50  N          3.7240   19.0250   26.9650 N.3    57  PHE57      -0.1227
     51  CA         2.9060   20.1520   26.5300 C.3    57  PHE57       0.1736
     52  C          1.5680   20.2360   27.2850 C.2    57  PHE57       0.2595
     53  O          1.1000   21.3230   27.6570 O.2    57  PHE57      -0.2718
     54  CB         2.6390   20.0660   25.0250 C.3    57  PHE57       0.0547
     55  CG         1.8900   21.2400   24.4870 C.ar   57  PHE57      -0.0202
     56  CD1        2.5510   22.4330   24.2550 C.ar   57  PHE57      -0.0042
     57  CD2        0.5310   21.1660   24.2290 C.ar   57  PHE57      -0.0042
     58  CE1        1.8730   23.5210   23.7590 C.ar   57  PHE57      -0.0003
     59  CE2       -0.1580   22.2600   23.7310 C.ar   57  PHE57      -0.0003
     60  CZ         0.5060   23.4300   23.5100 C.ar   57  PHE57      -0.0000
     61  N          0.9580   19.0840   27.5120 N.am   58  ARG58      -0.1980
     62  CA        -0.2970   19.0260   28.2460 C.3    58  ARG58       0.1597
     63  C         -0.1630   19.4330   29.7300 C.2    58  ARG58       0.2287
     64  O         -1.1760   19.6230   30.4000 O.2    58  ARG58      -0.2864
     65  CB        -0.8950   17.6210   28.1220 C.3    58  ARG58       0.0334
     66  CG        -1.3970   17.2660   26.7420 C.3    58  ARG58       0.0492
     67  CD        -1.7690   15.7590   26.6730 C.3    58  ARG58       0.2205
     68  NE        -2.9420   15.4210   27.4980 N.pl3  58  ARG58      -0.0865
     69  CZ        -2.9300   14.9480   28.7520 C.cat  58  ARG58       0.5346
     70  NH1       -1.7960   14.7180   29.4100 N.pl3  58  ARG58       0.1354
     71  NH2       -4.0870   14.6960   29.3670 N.pl3  58  ARG58       0.1354
     72  N         -4.3780   25.0240   30.0850 N.3    62  VAL62      -0.1231
     73  CA        -5.0790   24.9170   28.8130 C.3    62  VAL62       0.1692
     74  C         -5.1390   26.2260   28.0000 C.2    62  VAL62       0.2592
     75  O         -5.0450   26.2250   26.7640 O.2    62  VAL62      -0.2718
     76  CB        -6.5190   24.4100   29.0010 C.3    62  VAL62       0.0266
     77  CG1       -7.2950   25.2900   29.9770 C.3    62  VAL62       0.0020
     78  CG2       -7.2200   24.3210   27.6530 C.3    62  VAL62       0.0020
     79  N         -5.3240   27.3450   28.6870 N.am   63  ASP63      -0.1974
     80  CA        -5.3280   28.6320   28.0000 C.3    63  ASP63       0.1709
     81  C         -3.9370   28.9970   27.4940 C.2    63  ASP63       0.2293
     82  O         -3.8220   29.6780   26.4900 O.2    63  ASP63      -0.2864
     83  CB        -5.8500   29.7520   28.8890 C.3    63  ASP63       0.1436
     84  CG        -7.2940   29.5320   29.3170 C.2    63  ASP63       0.3671
     85  OD1       -8.0840   28.9520   28.5310 O.co2  63  ASP63      -0.2456
     86  OD2       -7.6280   29.9570   30.4360 O.co2  63  ASP63      -0.2456
     87  N         -1.7060   26.7060   26.5380 N.3    65  GLN65      -0.1231
     88  CA        -1.5300   25.8390   25.3740 C.3    65  GLN65       0.1698
     89  C         -2.0840   26.5200   24.1230 C.2    65  GLN65       0.2592
     90  O         -1.4150   26.5860   23.0700 O.2    65  GLN65      -0.2718
     91  CB        -2.2450   24.4960   25.5730 C.3    65  GLN65       0.0381
     92  CG        -1.6860   23.6010   26.6640 C.3    65  GLN65       0.0905
     93  CD        -2.5360   22.3420   26.8400 C.2    65  GLN65       0.2608
     94  OE1       -3.1100   21.8280   25.8800 O.2    65  GLN65      -0.2717
     95  NE2       -2.6230   21.8550   28.0690 N.am   65  GLN65      -0.0878
     96  N         -3.3120   27.0380   24.2390 N.am   66  MET66      -0.1979
     97  CA        -3.9630   27.7330   23.1410 C.3    66  MET66       0.1605
     98  C         -3.1470   28.9390   22.7240 C.2    66  MET66       0.2287
     99  O         -2.8910   29.1500   21.5340 O.2    66  MET66      -0.2864
    100  CB        -5.3710   28.1680   23.5530 C.3    66  MET66       0.0413
    101  CG        -6.3620   27.0540   23.4350 C.3    66  MET66       0.0598
    102  SD        -6.9560   26.9130   21.7350 S.3    66  MET66      -0.1393
    103  CE        -8.1470   28.2710   21.6980 C.3    66  MET66       0.0692
    104  N          0.2290   28.1810   20.8230 N.3    69  ILE69      -0.1231
    105  CA        -0.0760   27.7470   19.4550 C.3    69  ILE69       0.1692
    106  C         -0.5050   28.9230   18.5910 C.2    69  ILE69       0.2591
    107  O         -0.0070   29.0930   17.4820 O.2    69  ILE69      -0.2718
    108  CB        -1.1450   26.6450   19.4360 C.3    69  ILE69       0.0266
    109  CG1       -0.5390   25.3600   19.9720 C.3    69  ILE69       0.0019
    110  CG2       -1.7190   26.4860   18.0070 C.3    69  ILE69       0.0020
    111  CD1        0.2570   25.5240   21.1470 C.3    69  ILE69       0.0001
    112  N         -1.3900   29.7760   19.1280 N.am   70  GLN70      -0.1979
    113  CA        -1.8480   30.9210   18.3690 C.3    70  GLN70       0.1601
    114  C         -0.7780   31.9800   18.0770 C.2    70  GLN70       0.2287
    115  O         -0.9020   32.7310   17.1060 O.2    70  GLN70      -0.2864
    116  CB        -3.0370   31.5520   19.0470 C.3    70  GLN70       0.0394
    117  CG        -4.2650   30.6900   19.0270 C.3    70  GLN70       0.0908
    118  CD        -5.3750   31.3760   19.8040 C.2    70  GLN70       0.2608
    119  OE1       -6.2930   31.9280   19.2220 O.2    70  GLN70      -0.2717
    120  NE2       -5.2440   31.4120   21.1040 N.am   70  GLN70      -0.0878
    121  N        -12.1200   30.5720    8.6970 N.3   225  GLU225     -0.1231
    122  CA       -12.5300   30.9460   10.0670 C.3   225  GLU225      0.1699
    123  C        -11.4340   31.0450   11.1310 C.2   225  GLU225      0.2592
    124  O        -11.3280   32.0660   11.8280 O.2   225  GLU225     -0.2718
    125  CB       -13.5930   29.9500   10.5680 C.3   225  GLU225      0.0402
    126  CG       -13.1250   28.4950   10.5570 C.3   225  GLU225      0.1161
    127  CD       -14.2360   27.5090   10.7920 C.2   225  GLU225      0.3649
    128  OE1      -14.9390   27.6470   11.8230 O.co2 225  GLU225     -0.2457
    129  OE2      -14.3830   26.5810    9.9620 O.co2 225  GLU225     -0.2457
    130  N        -10.6380   29.9970   11.2790 N.am  226  MET226     -0.1979
    131  CA        -9.6030   29.9450   12.3160 C.3   226  MET226      0.1605
    132  C         -8.5370   31.0150   12.0300 C.2   226  MET226      0.2287
    133  O         -8.1450   31.7700   12.9160 O.2   226  MET226     -0.2864
    134  CB        -8.9560   28.5610   12.3190 C.3   226  MET226      0.0413
    135  CG        -8.8600   27.8530   13.5970 C.3   226  MET226      0.0598
    136  SD        -9.0530   26.0340   13.4710 S.3   226  MET226     -0.1393
    137  CE        -8.2290   25.5740   11.9210 C.3   226  MET226      0.0692
    138  N         -9.9040   34.5620   12.7330 N.3   229  GLU229     -0.1231
    139  CA       -10.0020   34.7780   14.1730 C.3   229  GLU229      0.1699
    140  C         -8.6260   35.0800   14.7670 C.2   229  GLU229      0.2592
    141  O         -8.4440   36.0790   15.4710 O.2   229  GLU229     -0.2718
    142  CB       -10.6240   33.5640   14.8600 C.3   229  GLU229      0.0402
    143  CG       -10.6900   33.6420   16.3700 C.3   229  GLU229      0.1161
    144  CD       -11.6880   34.6420   16.8680 C.2   229  GLU229      0.3649
    145  OE1      -12.4910   35.1630   16.0570 O.co2 229  GLU229     -0.2457
    146  OE2      -11.6720   34.9180   18.0880 O.co2 229  GLU229     -0.2457
    147  N         -7.6560   34.2290   14.4580 N.am  230  ILE230     -0.1980
    148  CA        -6.3060   34.3710   15.0450 C.3   230  ILE230      0.1595
    149  C         -5.6230   35.6680   14.5560 C.2   230  ILE230      0.2287
    150  O         -4.9520   36.3440   15.3360 O.2   230  ILE230     -0.2864
    151  CB        -5.4190   33.1650   14.7330 C.3   230  ILE230      0.0276
    152  CG1       -5.9450   31.9380   15.4440 C.3   230  ILE230      0.0022
    153  CG2       -4.0010   33.4120   15.1800 C.3   230  ILE230      0.0022
    154  CD1       -5.3130   30.6930   14.9700 C.3   230  ILE230      0.0001
@<TRIPOS>BOND
     1     1     2    1
     2     5     2    1
     3     5     6    1
     4     2     3    1
     5     6     7    1
     6     3     4    2
     7   121   122    1
     8     7     9   ar
     9     7     8   ar
    10   129   127   ar
    11   122   125    1
    12   122   123    1
    13    10    11    1
    14   126   125    1
    15   126   127    1
    16   127   128   ar
    17    24    22    1
    18   123   130   am
    19   123   124    2
    20   130   131    1
    21    22    23    1
    22    22    19    1
    23    11    14    1
    24    11    12    1
    25    18    19    1
    26    18    12   am
    27   137   136    1
    28    14    15    1
    29   132   131    1
    30   132   133    2
    31   131   134    1
    32   134   135    1
    33    19    20    1
    34    12    13    2
    35   138   139    1
    36    20    21    2
    37    40    39    1
    38    15    17    1
    39    15    16    1
    40   136   135    1
    41   139   140    1
    42   139   142    1
    43    39    38    1
    44   147   140   am
    45   147   148    1
    46    38    37    1
    47   149   148    1
    48   149   150    2
    49   151   148    1
    50   151   153    1
    51   151   152    1
    52   140   141    2
    53   142   143    1
    54   154   152    1
    55    37    36    1
    56    36    33    1
    57    25    26    1
    58   145   144   ar
    59   143   144    1
    60    32    33    1
    61    32    27   am
    62   144   146   ar
    63    31    29    1
    64    33    34    1
    65   115   114    2
    66    29    26    1
    67    29    30    1
    68    26    27    1
    69    34    35    2
    70   107   106    2
    71    27    28    2
    72   110   108    1
    73   114   113    1
    74   113   116    1
    75   113   112    1
    76   106   112   am
    77   106   105    1
    78   117   116    1
    79   117   118    1
    80   119   118    2
    81   108   105    1
    82   108   109    1
    83   105   104    1
    84   118   120   am
    85   109   111    1
    86    41    42    1
    87    47    46    1
    88    47    48    1
    89    99    98    2
    90   103   102    1
    91    45    46    1
    92    45    42    1
    93   102   101    1
    94    42    43    1
    95    49    48    1
    96    43    44    2
    97    98    97    1
    98    90    89    2
    99    97   100    1
   100    97    96    1
   101   101   100    1
   102    60    59   ar
   103    60    58   ar
   104    59    57   ar
   105    58    56   ar
   106    89    96   am
   107    89    88    1
   108    57    55   ar
   109    56    55   ar
   110    55    54    1
   111    54    51    1
   112    88    91    1
   113    88    87    1
   114    91    92    1
   115    94    93    2
   116    82    81    2
   117    51    50    1
   118    51    52    1
   119    92    93    1
   120    67    66    1
   121    67    68    1
   122    66    65    1
   123    75    74    2
   124    93    95   am
   125    52    61   am
   126    52    53    2
   127    81    80    1
   128    68    69    2
   129    61    62    1
   130    78    76    1
   131    74    79   am
   132    74    73    1
   133    80    79    1
   134    80    83    1
   135    65    62    1
   136    62    63    1
   137    85    84   ar
   138    69    71    1
   139    69    70    1
   140    73    76    1
   141    73    72    1
   142    83    84    1
   143    76    77    1
   144    84    86   ar
   145    63    64    2
