@<TRIPOS>MOLECULE
tmp/3l49D00.pdb
 140 133 0 0 0
SMALL
GASTEIGER

@<TRIPOS>ATOM
      1  N         55.1460  -11.4950  -10.2340 N.3    16  HIS16      -0.1241
      2  CA        55.0850  -12.7940   -9.5610 C.3    16  HIS16       0.1621
      3  C         54.0500  -13.7370  -10.1820 C.2    16  HIS16       0.2264
      4  O         53.2300  -13.3170  -11.0030 O.2    16  HIS16      -0.2867
      5  CB        54.8580  -12.6200   -8.0540 C.3    16  HIS16       0.0745
      6  CG        53.4960  -12.1120   -7.6960 C.ar   16  HIS16       0.0817
      7  ND1       52.5300  -12.9140   -7.1270 N.ar   16  HIS16      -0.2268
      8  CD2       52.9380  -10.8840   -7.8250 C.ar   16  HIS16       0.1154
      9  CE1       51.4370  -12.2020   -6.9190 C.ar   16  HIS16       0.1986
     10  NE2       51.6570  -10.9680   -7.3350 N.ar   16  HIS16      -0.2212
     11  N         51.0840  -15.4490   -9.6570 N.3    18  TRP18      -0.1227
     12  CA        49.6510  -15.2110   -9.8340 C.3    18  TRP18       0.1737
     13  C         49.3780  -14.2000  -10.9400 C.2    18  TRP18       0.2595
     14  O         48.5720  -14.4670  -11.8310 O.2    18  TRP18      -0.2718
     15  CB        49.0080  -14.7260   -8.5270 C.3    18  TRP18       0.0564
     16  CG        47.5030  -14.8220   -8.5150 C.ar   18  TRP18       0.0003
     17  CD1       46.7550  -15.8290   -7.9740 C.ar   18  TRP18       0.0946
     18  CD2       46.5640  -13.8760   -9.0590 C.ar   18  TRP18       0.0152
     19  NE1       45.4160  -15.5740   -8.1490 N.ar   18  TRP18      -0.2442
     20  CE2       45.2680  -14.3850   -8.8110 C.ar   18  TRP18       0.0810
     21  CE3       46.6920  -12.6470   -9.7310 C.ar   18  TRP18       0.0012
     22  CZ2       44.1080  -13.7140   -9.2150 C.ar   18  TRP18       0.0191
     23  CZ3       45.5430  -11.9830  -10.1330 C.ar   18  TRP18       0.0001
     24  CH2       44.2640  -12.5220   -9.8760 C.ar   18  TRP18       0.0015
     25  N         50.0430  -13.0450  -10.8550 N.am   19  ASP19      -0.1974
     26  CA        49.8850  -11.9410  -11.8070 C.3    19  ASP19       0.1709
     27  C         50.1720  -12.3390  -13.2420 C.2    19  ASP19       0.2293
     28  O         49.4030  -12.0080  -14.1500 O.2    19  ASP19      -0.2864
     29  CB        50.8010  -10.7810  -11.4240 C.3    19  ASP19       0.1436
     30  CG        50.2120   -9.9070  -10.3500 C.2    19  ASP19       0.3671
     31  OD1       49.6480  -10.4500   -9.3780 O.co2  19  ASP19      -0.2456
     32  OD2       50.3150   -8.6700  -10.4740 O.co2  19  ASP19      -0.2456
     33  N         54.8510   -2.5900  -12.0010 N.3    44  ARG44      -0.1245
     34  CA        54.6270   -2.2700  -10.5800 C.3    44  ARG44       0.1563
     35  C         54.8030   -0.7940  -10.2430 C.2    44  ARG44       0.2260
     36  O         55.1460   -0.4280   -9.1190 O.2    44  ARG44      -0.2867
     37  CB        55.4320   -3.2030   -9.6580 C.3    44  ARG44       0.0307
     38  CG        54.8410   -4.5960   -9.5760 C.3    44  ARG44       0.0489
     39  CD        53.5190   -4.5360   -8.8540 C.3    44  ARG44       0.2205
     40  NE        52.7820   -5.7930   -8.8860 N.pl3  44  ARG44      -0.0865
     41  CZ        51.6520   -6.0050   -8.2150 C.cat  44  ARG44       0.5346
     42  NH1       51.1340   -5.0450   -7.4540 N.pl3  44  ARG44       0.1354
     43  NH2       51.0400   -7.1770   -8.2990 N.pl3  44  ARG44       0.1354
     44  N         44.2960   -5.8010  -11.1430 N.3    68  LEU68      -0.1245
     45  CA        44.8710   -5.3510   -9.8570 C.3    68  LEU68       0.1561
     46  C         45.2140   -3.8550   -9.7910 C.2    68  LEU68       0.2260
     47  O         44.6970   -3.0580  -10.5750 O.2    68  LEU68      -0.2867
     48  CB        46.0530   -6.2360   -9.4340 C.3    68  LEU68       0.0270
     49  CG        45.6800   -7.6400   -8.9480 C.3    68  LEU68       0.0019
     50  CD1       46.8380   -8.6020   -9.1320 C.3    68  LEU68       0.0001
     51  CD2       45.2460   -7.6060   -7.4980 C.3    68  LEU68       0.0001
     52  N         40.0730   -8.8440  -10.3540 N.3    92  ASP92      -0.1239
     53  CA        40.3280   -8.5210   -8.9340 C.3    92  ASP92       0.1674
     54  C         39.9460   -7.1080   -8.4610 C.2    92  ASP92       0.2266
     55  O         39.4970   -6.9400   -7.3270 O.2    92  ASP92      -0.2867
     56  CB        41.7840   -8.8260   -8.5350 C.3    92  ASP92       0.1410
     57  CG        41.9680  -10.2160   -7.9450 C.2    92  ASP92       0.3668
     58  OD1       41.0050  -11.0120   -7.8960 O.co2  92  ASP92      -0.2456
     59  OD2       43.1040  -10.5130   -7.5220 O.co2  92  ASP92      -0.2456
     60  N         49.2490   -3.5010    1.3890 N.3   133  PHE133     -0.1241
     61  CA        48.4720   -3.3810    0.1440 C.3   133  PHE133      0.1605
     62  C         46.9530   -3.2000    0.3480 C.2   133  PHE133      0.2264
     63  O         46.1520   -3.6140   -0.4940 O.2   133  PHE133     -0.2867
     64  CB        48.7550   -4.5820   -0.7720 C.3   133  PHE133      0.0534
     65  CG        50.1740   -4.6420   -1.2710 C.ar  133  PHE133     -0.0203
     66  CD1       51.0990   -5.5020   -0.6720 C.ar  133  PHE133     -0.0042
     67  CD2       50.5930   -3.8280   -2.3280 C.ar  133  PHE133     -0.0042
     68  CE1       52.4150   -5.5560   -1.1250 C.ar  133  PHE133     -0.0003
     69  CE2       51.9090   -3.8710   -2.7870 C.ar  133  PHE133     -0.0003
     70  CZ        52.8210   -4.7360   -2.1860 C.ar  133  PHE133     -0.0000
     71  N         44.6670   -2.1020   -2.3900 N.3   136  VAL136     -0.1245
     72  CA        44.2370   -3.1140   -3.3440 C.3   136  VAL136      0.1561
     73  C         43.0000   -3.7860   -2.7290 C.2   136  VAL136      0.2260
     74  O         43.1230   -4.4620   -1.7060 O.2   136  VAL136     -0.2867
     75  CB        45.3580   -4.1500   -3.6080 C.3   136  VAL136      0.0252
     76  CG1       44.8780   -5.2930   -4.5100 C.3   136  VAL136      0.0019
     77  CG2       46.5810   -3.4640   -4.1820 C.3   136  VAL136      0.0019
     78  N         41.0680   -6.4270   -3.0070 N.3   138  VAL138     -0.1231
     79  CA        41.0370   -7.8050   -2.5080 C.3   138  VAL138      0.1692
     80  C         41.8120   -7.9750   -1.1960 C.2   138  VAL138      0.2592
     81  O         41.4520   -8.8110   -0.3610 O.2   138  VAL138     -0.2718
     82  CB        41.4600   -8.8770   -3.5660 C.3   138  VAL138      0.0266
     83  CG1       40.5970   -8.7730   -4.8000 C.3   138  VAL138      0.0020
     84  CG2       42.9290   -8.7940   -3.9250 C.3   138  VAL138      0.0020
     85  N         42.8510   -7.1640   -1.0040 N.am  139  CYS139     -0.1970
     86  CA        43.6180   -7.2270    0.2280 C.3   139  CYS139      0.1712
     87  C         42.8790   -6.5090    1.3380 C.2   139  CYS139      0.2296
     88  O         42.9480   -6.9190    2.5050 O.2   139  CYS139     -0.2864
     89  CB        45.0310   -6.6860    0.0310 C.3   139  CYS139      0.0983
     90  SG        46.1500   -7.9410   -0.6420 S.3   139  CYS139     -0.0798
     91  N         40.3240   -9.0890    2.5220 N.3   142  ARG142     -0.1245
     92  CA        41.0180  -10.1150    3.3020 C.3   142  ARG142      0.1563
     93  C         41.4200   -9.6500    4.7010 C.2   142  ARG142      0.2260
     94  O         41.3200  -10.4120    5.6690 O.2   142  ARG142     -0.2867
     95  CB        42.2300  -10.6310    2.5320 C.3   142  ARG142      0.0307
     96  CG        41.8650  -11.5230    1.3590 C.3   142  ARG142      0.0489
     97  CD        43.0460  -11.6830    0.4270 C.3   142  ARG142      0.2205
     98  NE        42.6570  -11.9260   -0.9580 N.pl3 142  ARG142     -0.0865
     99  CZ        43.5190  -12.0040   -1.9700 C.cat 142  ARG142      0.5346
    100  NH1       44.8090  -11.8600   -1.7400 N.pl3 142  ARG142      0.1354
    101  NH2       43.0970  -12.2140   -3.2120 N.pl3 142  ARG142      0.1354
    102  N         56.7880   -4.4630   -2.6770 N.3   167  ILE167     -0.1245
    103  CA        57.2570   -4.8770   -3.9910 C.3   167  ILE167      0.1561
    104  C         58.1560   -3.7180   -4.4610 C.2   167  ILE167      0.2260
    105  O         57.7190   -2.5650   -4.4390 O.2   167  ILE167     -0.2867
    106  CB        56.0750   -5.0980   -4.9800 C.3   167  ILE167      0.0252
    107  CG1       55.3350   -6.4030   -4.6700 C.3   167  ILE167      0.0019
    108  CG2       56.5570   -5.1270   -6.4200 C.3   167  ILE167      0.0019
    109  CD1       54.0150   -6.5720   -5.4370 C.3   167  ILE167      0.0001
    110  N         48.5630  -11.9350    0.7970 N.3   198  TRP198     -0.1241
    111  CA        49.1160  -12.7450   -0.3020 C.3   198  TRP198      0.1605
    112  C         50.3320  -13.5050    0.1950 C.2   198  TRP198      0.2264
    113  O         50.9300  -13.1050    1.1900 O.2   198  TRP198     -0.2867
    114  CB        49.4400  -11.9090   -1.5460 C.3   198  TRP198      0.0550
    115  CG        50.4950  -10.8330   -1.3700 C.ar  198  TRP198      0.0003
    116  CD1       50.5450   -9.8770   -0.3990 C.ar  198  TRP198      0.0946
    117  CD2       51.6160  -10.5840   -2.2300 C.ar  198  TRP198      0.0152
    118  NE1       51.6360   -9.0650   -0.5850 N.ar  198  TRP198     -0.2442
    119  CE2       52.3050   -9.4700   -1.7080 C.ar  198  TRP198      0.0810
    120  CE3       52.0990  -11.1930   -3.3980 C.ar  198  TRP198      0.0012
    121  CZ2       53.4600   -8.9530   -2.3060 C.ar  198  TRP198      0.0191
    122  CZ3       53.2470  -10.6780   -3.9900 C.ar  198  TRP198      0.0001
    123  CH2       53.9210   -9.5780   -3.4340 C.ar  198  TRP198      0.0015
    124  N         46.9430  -17.1750   -2.2330 N.3   223  ASP223     -0.1239
    125  CA        47.3330  -17.2250   -3.6730 C.3   223  ASP223      0.1674
    126  C         47.4990  -18.6420   -4.1720 C.2   223  ASP223      0.2266
    127  O         46.9440  -19.0060   -5.2030 O.2   223  ASP223     -0.2867
    128  CB        48.6190  -16.4640   -4.0260 C.3   223  ASP223      0.1410
    129  CG        48.3680  -15.0080   -4.3450 C.2   223  ASP223      0.3668
    130  OD1       47.1920  -14.5960   -4.3140 O.co2 223  ASP223     -0.2456
    131  OD2       49.3540  -14.2820   -4.5950 O.co2 223  ASP223     -0.2456
    132  N         44.3120  -20.1350   -5.1260 N.3   245  GLN245     -0.1245
    133  CA        43.4730  -19.5580   -6.1780 C.3   245  GLN245      0.1566
    134  C         43.7590  -20.1750   -7.5440 C.2   245  GLN245      0.2260
    135  O         44.7440  -20.8970   -7.7180 O.2   245  GLN245     -0.2867
    136  CB        43.7070  -18.0580   -6.2760 C.3   245  GLN245      0.0367
    137  CG        43.3140  -17.2680   -5.0500 C.3   245  GLN245      0.0905
    138  CD        43.2320  -15.8010   -5.3660 C.2   245  GLN245      0.2608
    139  OE1       42.2360  -15.3340   -5.9160 O.2   245  GLN245     -0.2717
    140  NE2       44.2890  -15.0610   -5.0410 N.am  245  GLN245     -0.0878
@<TRIPOS>BOND
     1    28    27    2
     2    27    26    1
     3    33    34    1
     4    14    13    2
     5    26    29    1
     6    26    25    1
     7    29    30    1
     8    44    45    1
     9     4     3    2
    10    13    25   am
    11    13    12    1
    12    34    35    1
    13    34    37    1
    14    47    46    2
    15    32    30   ar
    16    52    53    1
    17    30    31   ar
    18    35    36    2
    19     1     2    1
    20     3     2    1
    21    23    24   ar
    22    23    21   ar
    23    24    22   ar
    24    45    46    1
    25    45    48    1
    26    12    11    1
    27    12    15    1
    28    21    18   ar
    29    37    38    1
    30    38    39    1
    31     2     5    1
    32    48    49    1
    33    22    20   ar
    34    50    49    1
    35    18    20   ar
    36    18    16   ar
    37    49    51    1
    38    53    56    1
    39    53    54    1
    40    40    39    1
    41    40    41    2
    42    20    19   ar
    43    56    57    1
    44    15    16    1
    45    16    17   ar
    46    54    55    2
    47    43    41    1
    48    41    42    1
    49    19    17   ar
    50     5     6    1
    51    57    58   ar
    52    57    59   ar
    53     8     6   ar
    54     8    10   ar
    55   135   134    2
    56     6     7   ar
    57   134   133    1
    58    10     9   ar
    59     7     9   ar
    60   108   106    1
    61   136   133    1
    62   136   137    1
    63   133   132    1
    64   139   138    2
    65   109   107    1
    66   138   137    1
    67   138   140   am
    68   127   126    2
    69   106   107    1
    70   106   103    1
    71    83    82    1
    72   131   129   ar
    73    76    75    1
    74   104   105    2
    75   104   103    1
    76   129   130   ar
    77   129   128    1
    78    77    75    1
    79   126   125    1
    80   128   125    1
    81   103   102    1
    82   122   123   ar
    83   122   120   ar
    84    84    82    1
    85   125   124    1
    86    75    72    1
    87    82    79    1
    88   123   121   ar
    89   120   117   ar
    90    72    73    1
    91    72    71    1
    92   101    99    1
    93    78    79    1
    94    69    67   ar
    95    69    70   ar
    96    73    74    2
    97    79    80    1
    98    67    65   ar
    99   121   119   ar
   100   117   119   ar
   101   117   115   ar
   102    70    68   ar
   103    99   100    1
   104    99    98    2
   105   119   118   ar
   106   114   115    1
   107   114   111    1
   108   115   116   ar
   109    65    64    1
   110    65    66   ar
   111    80    85   am
   112    80    81    2
   113    68    66   ar
   114    85    86    1
   115    98    97    1
   116    64    61    1
   117    90    89    1
   118   118   116   ar
   119    63    62    2
   120   111   112    1
   121   111   110    1
   122    89    86    1
   123    61    62    1
   124    61    60    1
   125   112   113    2
   126    86    87    1
   127    97    96    1
   128    87    88    2
   129    96    95    1
   130    91    92    1
   131    95    92    1
   132    92    93    1
   133    93    94    2
