@<TRIPOS>MOLECULE
tmp/3l4dB01.pdb
 164 155 0 0 0
SMALL
GASTEIGER

@<TRIPOS>ATOM
      1  N         59.4930  -29.5170  -29.5480 N.3    75  TYR75      -0.1241
      2  CA        59.5200  -29.0930  -28.1480 C.3    75  TYR75       0.1605
      3  C         58.7450  -27.8030  -27.8770 C.2    75  TYR75       0.2264
      4  O         58.8800  -27.2050  -26.8120 O.2    75  TYR75      -0.2867
      5  CB        60.9670  -28.9740  -27.6560 C.3    75  TYR75       0.0534
      6  CG        61.5910  -30.3130  -27.3220 C.ar   75  TYR75      -0.0201
      7  CD1       61.1750  -31.4710  -27.9720 C.ar   75  TYR75      -0.0009
      8  CD2       62.5950  -30.4220  -26.3680 C.ar   75  TYR75      -0.0009
      9  CE1       61.7320  -32.7010  -27.6790 C.ar   75  TYR75       0.0417
     10  CE2       63.1640  -31.6520  -26.0670 C.ar   75  TYR75       0.0417
     11  CZ        62.7260  -32.7910  -26.7290 C.ar   75  TYR75       0.1957
     12  OH        63.2780  -34.0230  -26.4480 O.3    75  TYR75      -0.2866
     13  N         55.8410  -27.4720  -27.1380 N.3    77  PHE77      -0.1227
     14  CA        54.7980  -27.6850  -26.1370 C.3    77  PHE77       0.1736
     15  C         55.2550  -27.2320  -24.7540 C.2    77  PHE77       0.2595
     16  O         54.4720  -27.2100  -23.8070 O.2    77  PHE77      -0.2718
     17  CB        54.3530  -29.1520  -26.1040 C.3    77  PHE77       0.0547
     18  CG        55.2990  -30.0570  -25.3690 C.ar   77  PHE77      -0.0202
     19  CD1       55.1460  -30.2840  -24.0130 C.ar   77  PHE77      -0.0042
     20  CD2       56.3390  -30.6800  -26.0340 C.ar   77  PHE77      -0.0042
     21  CE1       56.0150  -31.1120  -23.3320 C.ar   77  PHE77      -0.0003
     22  CE2       57.2140  -31.5100  -25.3610 C.ar   77  PHE77      -0.0003
     23  CZ        57.0520  -31.7280  -24.0070 C.ar   77  PHE77      -0.0000
     24  N         56.5260  -26.8640  -24.6460 N.am   78  MET78      -0.1979
     25  CA        57.0610  -26.3290  -23.4010 C.3    78  MET78       0.1605
     26  C         57.1260  -24.7990  -23.4140 C.2    78  MET78       0.2287
     27  O         57.5100  -24.1790  -22.4220 O.2    78  MET78      -0.2864
     28  CB        58.4430  -26.9170  -23.1280 C.3    78  MET78       0.0413
     29  CG        58.4320  -28.4330  -23.0240 C.3    78  MET78       0.0598
     30  SD        60.0190  -29.1210  -22.5310 S.3    78  MET78      -0.1393
     31  CE        60.1160  -28.5670  -20.8280 C.3    78  MET78       0.0692
     32  N         58.9000  -22.2300  -20.6250 N.3    82  PHE82      -0.1241
     33  CA        60.1100  -21.4610  -20.8950 C.3    82  PHE82       0.1605
     34  C         59.7420  -20.0460  -21.3250 C.2    82  PHE82       0.2264
     35  O         60.3330  -19.0730  -20.8610 O.2    82  PHE82      -0.2867
     36  CB        60.9630  -22.1210  -21.9810 C.3    82  PHE82       0.0534
     37  CG        61.2290  -23.5790  -21.7480 C.ar   82  PHE82      -0.0203
     38  CD1       61.2980  -24.4620  -22.8160 C.ar   82  PHE82      -0.0042
     39  CD2       61.3980  -24.0730  -20.4640 C.ar   82  PHE82      -0.0042
     40  CE1       61.5400  -25.8090  -22.6080 C.ar   82  PHE82      -0.0003
     41  CE2       61.6380  -25.4200  -20.2490 C.ar   82  PHE82      -0.0003
     42  CZ        61.7100  -26.2870  -21.3220 C.ar   82  PHE82      -0.0000
     43  N         64.9740  -20.5570  -25.3040 N.3    87  ALA87      -0.1231
     44  CA        65.3710  -21.9130  -25.4920 C.3    87  ALA87       0.1694
     45  C         64.9420  -22.3370  -26.8670 C.2    87  ALA87       0.2592
     46  O         65.0880  -21.6030  -27.8110 O.2    87  ALA87      -0.2718
     47  CB        64.7280  -22.7600  -24.4730 C.3    87  ALA87       0.0304
     48  N         64.3620  -23.5140  -26.9700 N.am   88  TYR88      -0.1976
     49  CA        64.0760  -24.0880  -28.2810 C.3    88  TYR88       0.1639
     50  C         63.1440  -23.2020  -29.0920 C.2    88  TYR88       0.2290
     51  O         63.2320  -23.1530  -30.3180 O.2    88  TYR88      -0.2864
     52  CB        63.5000  -25.4960  -28.1330 C.3    88  TYR88       0.0560
     53  CG        64.3600  -26.3860  -27.2710 C.ar   88  TYR88      -0.0198
     54  CD1       63.9620  -26.7390  -25.9880 C.ar   88  TYR88      -0.0009
     55  CD2       65.5840  -26.8520  -27.7310 C.ar   88  TYR88      -0.0009
     56  CE1       64.7520  -27.5450  -25.1930 C.ar   88  TYR88       0.0417
     57  CE2       66.3830  -27.6570  -26.9440 C.ar   88  TYR88       0.0417
     58  CZ        65.9620  -28.0020  -25.6760 C.ar   88  TYR88       0.1957
     59  OH        66.7590  -28.8060  -24.8920 O.3    88  TYR88      -0.2866
     60  N         71.5230  -22.0670  -23.9280 N.3    99  LEU99      -0.1245
     61  CA        71.8800  -23.3500  -23.3350 C.3    99  LEU99       0.1561
     62  C         73.3300  -23.3130  -22.8600 C.2    99  LEU99       0.2260
     63  O         73.6480  -23.7880  -21.7700 O.2    99  LEU99      -0.2867
     64  CB        71.6710  -24.4880  -24.3350 C.3    99  LEU99       0.0270
     65  CG        70.2210  -24.7580  -24.7360 C.3    99  LEU99       0.0019
     66  CD1       70.1610  -25.7450  -25.8870 C.3    99  LEU99       0.0001
     67  CD2       69.4200  -25.2640  -23.5500 C.3    99  LEU99       0.0001
     68  N         73.6220  -21.6100  -19.6580 N.3   102  LEU102     -0.1245
     69  CA        73.1820  -22.4860  -18.5820 C.3   102  LEU102      0.1561
     70  C         74.2340  -23.5560  -18.3110 C.2   102  LEU102      0.2260
     71  O         74.4740  -23.9290  -17.1630 O.2   102  LEU102     -0.2867
     72  CB        71.8350  -23.1280  -18.9260 C.3   102  LEU102      0.0270
     73  CG        71.2580  -24.1260  -17.9170 C.3   102  LEU102      0.0019
     74  CD1       71.2930  -23.5620  -16.5030 C.3   102  LEU102      0.0001
     75  CD2       69.8420  -24.5350  -18.3050 C.3   102  LEU102      0.0001
     76  N         65.2790  -19.6630  -18.4230 N.3   256  MET256     -0.1245
     77  CA        66.3600  -20.6170  -18.2030 C.3   256  MET256      0.1570
     78  C         66.4070  -21.1140  -16.7640 C.2   256  MET256      0.2261
     79  O         66.5920  -22.3060  -16.5210 O.2   256  MET256     -0.2867
     80  CB        67.7060  -20.0260  -18.6150 C.3   256  MET256      0.0387
     81  CG        67.7690  -19.6580  -20.0860 C.3   256  MET256      0.0595
     82  SD        67.0920  -20.9580  -21.1400 S.3   256  MET256     -0.1393
     83  CE        68.4540  -22.1210  -21.1350 C.3   256  MET256      0.0692
     84  N         63.6660  -23.5910  -16.6610 N.3   259  ALA259     -0.1245
     85  CA        63.9730  -24.7940  -17.4220 C.3   259  ALA259      0.1562
     86  C         65.0070  -25.6420  -16.6900 C.2   259  ALA259      0.2260
     87  O         64.9460  -26.8680  -16.7150 O.2   259  ALA259     -0.2867
     88  CB        64.4690  -24.4280  -18.8110 C.3   259  ALA259      0.0290
     89  N         63.2370  -27.2480  -13.6070 N.3   262  PHE262     -0.1227
     90  CA        62.3180  -28.3030  -14.0140 C.3   262  PHE262      0.1736
     91  C         63.0670  -29.5590  -14.4300 C.2   262  PHE262      0.2595
     92  O         62.7570  -30.6550  -13.9680 O.2   262  PHE262     -0.2718
     93  CB        61.4180  -27.8600  -15.1640 C.3   262  PHE262      0.0547
     94  CG        60.6740  -29.0010  -15.8090 C.ar  262  PHE262     -0.0202
     95  CD1       59.3680  -29.2950  -15.4390 C.ar  262  PHE262     -0.0042
     96  CD2       61.2930  -29.7980  -16.7640 C.ar  262  PHE262     -0.0042
     97  CE1       58.6830  -30.3490  -16.0260 C.ar  262  PHE262     -0.0003
     98  CE2       60.6170  -30.8500  -17.3550 C.ar  262  PHE262     -0.0003
     99  CZ        59.3080  -31.1270  -16.9850 C.ar  262  PHE262     -0.0000
    100  N         64.0430  -29.3880  -15.3150 N.am  263  ALA263     -0.1980
    101  CA        64.8140  -30.5040  -15.8290 C.3   263  ALA263      0.1597
    102  C         65.5420  -31.2100  -14.6940 C.2   263  ALA263      0.2287
    103  O         65.5770  -32.4410  -14.6340 O.2   263  ALA263     -0.2864
    104  CB        65.7960  -30.0280  -16.8800 C.3   263  ALA263      0.0319
    105  N         63.9680  -35.7100  -13.0420 N.3   267  THR267     -0.1218
    106  CA        64.9010  -36.7730  -13.3510 C.3   267  THR267      0.1862
    107  C         65.7270  -37.1520  -12.1220 C.2   267  THR267      0.2287
    108  O         65.9060  -38.3350  -11.8260 O.2   267  THR267     -0.2866
    109  CB        65.8210  -36.3600  -14.4940 C.3   267  THR267      0.1770
    110  OG1       66.3690  -35.0670  -14.2110 O.3   267  THR267     -0.2211
    111  CG2       65.0340  -36.2950  -15.7920 C.3   267  THR267      0.0375
    112  N         63.3730  -39.9270  -19.3460 N.3   328  LEU328     -0.1245
    113  CA        63.0120  -39.3930  -20.6510 C.3   328  LEU328      0.1561
    114  C         62.8740  -40.5320  -21.6540 C.2   328  LEU328      0.2260
    115  O         63.8590  -41.0400  -22.1840 O.2   328  LEU328     -0.2867
    116  CB        64.0290  -38.3450  -21.1170 C.3   328  LEU328      0.0270
    117  CG        64.1360  -37.1230  -20.1990 C.3   328  LEU328      0.0019
    118  CD1       64.5980  -35.9110  -20.9760 C.3   328  LEU328      0.0001
    119  CD2       62.7960  -36.8480  -19.5540 C.3   328  LEU328      0.0001
    120  N         61.2110  -40.8500  -24.6890 N.3   330  MET330     -0.1230
    121  CA        61.1690  -40.6650  -26.1390 C.3   330  MET330      0.1702
    122  C         61.7890  -39.3400  -26.5580 C.2   330  MET330      0.2592
    123  O         61.2310  -38.2780  -26.2840 O.2   330  MET330     -0.2718
    124  CB        59.7260  -40.7290  -26.6330 C.3   330  MET330      0.0401
    125  CG        59.2440  -42.1240  -26.9930 C.3   330  MET330      0.0596
    126  SD        59.3040  -42.4200  -28.7710 S.3   330  MET330     -0.1393
    127  CE        58.4190  -40.9760  -29.3610 C.3   330  MET330      0.0692
    128  N         62.9400  -39.4040  -27.2220 N.am  331  LEU331     -0.1966
    129  CA        63.6210  -38.2030  -27.6950 C.3   331  LEU331      0.1728
    130  C         63.3360  -37.9720  -29.1740 C.2   331  LEU331      0.2616
    131  O         63.7830  -38.7360  -30.0240 O.2   331  LEU331     -0.2715
    132  CB        65.1310  -38.3040  -27.4560 C.3   331  LEU331      0.0311
    133  CG        65.5830  -38.5690  -26.0160 C.3   331  LEU331      0.0022
    134  CD1       67.1000  -38.5960  -25.9180 C.3   331  LEU331      0.0001
    135  CD2       65.0040  -37.5250  -25.0740 C.3   331  LEU331      0.0001
    136  N         62.6020  -36.9060  -29.4770 N.am  332  MET332     -0.1977
    137  CA        62.1510  -36.6550  -30.8430 C.3   332  MET332      0.1605
    138  C         62.8910  -35.5270  -31.5460 C.2   332  MET332      0.2287
    139  O         63.5400  -34.7010  -30.9070 O.2   332  MET332     -0.2864
    140  CB        60.6480  -36.3900  -30.8590 C.3   332  MET332      0.0413
    141  CG        59.8260  -37.6260  -30.5890 C.3   332  MET332      0.0598
    142  SD        58.1310  -37.2440  -30.1540 S.3   332  MET332     -0.1393
    143  CE        58.3770  -36.2900  -28.6580 C.3   332  MET332      0.0692
    144  N         72.7540  -34.1380  -22.3210 N.3   395  CYS395     -0.1235
    145  CA        72.3960  -33.4780  -21.0730 C.3   395  CYS395      0.1677
    146  C         73.5650  -32.7080  -20.4810 C.2   395  CYS395      0.2270
    147  O         74.6510  -33.2490  -20.3170 O.2   395  CYS395     -0.2867
    148  CB        71.8730  -34.4930  -20.0580 C.3   395  CYS395      0.0956
    149  SG        71.2770  -33.7420  -18.5300 S.3   395  CYS395     -0.0801
    150  N         54.9680  -36.8410  -18.3340 N.3   432  MET432     -0.1230
    151  CA        55.9850  -36.2180  -19.1610 C.3   432  MET432      0.1702
    152  C         57.3570  -36.8090  -18.8550 C.2   432  MET432      0.2592
    153  O         58.0480  -37.2840  -19.7510 O.2   432  MET432     -0.2718
    154  CB        55.9730  -34.7100  -18.9260 C.3   432  MET432      0.0401
    155  CG        56.8460  -33.9080  -19.8590 C.3   432  MET432      0.0596
    156  SD        56.5210  -32.1460  -19.6620 S.3   432  MET432     -0.1393
    157  CE        58.0280  -31.4620  -20.3570 C.3   432  MET432      0.0692
    158  N         57.7480  -36.7860  -17.5850 N.am  433  VAL433     -0.1980
    159  CA        58.9720  -37.4580  -17.1610 C.3   433  VAL433      0.1595
    160  C         58.6080  -38.7430  -16.4110 C.2   433  VAL433      0.2287
    161  O         57.9430  -38.6930  -15.3770 O.2   433  VAL433     -0.2864
    162  CB        59.8260  -36.5520  -16.2740 C.3   433  VAL433      0.0276
    163  CG1       61.2200  -37.1290  -16.1210 C.3   433  VAL433      0.0022
    164  CG2       59.8940  -35.1560  -16.8740 C.3   433  VAL433      0.0022
@<TRIPOS>BOND
     1   138   139    2
     2   138   137    1
     3   140   137    1
     4   140   141    1
     5   137   136    1
     6   141   142    1
     7    51    50    2
     8   142   143    1
     9   131   130    2
    10     1     2    1
    11   136   130   am
    12   127   126    1
    13   130   129    1
    14    50    49    1
    15   126   125    1
    16    49    52    1
    17    49    48    1
    18     2     3    1
    19     2     5    1
    20    52    53    1
    21     7     9   ar
    22     7     6   ar
    23     3     4    2
    24    46    45    2
    25    55    53   ar
    26    55    57   ar
    27   129   132    1
    28   129   128    1
    29     9    11   ar
    30     5     6    1
    31   132   133    1
    32     6     8   ar
    33    53    54   ar
    34   128   122   am
    35    13    14    1
    36   125   124    1
    37    48    45   am
    38    57    58   ar
    39    45    44    1
    40    11    12    1
    41    11    10   ar
    42   124   121    1
    43   122   123    2
    44   122   121    1
    45     8    10   ar
    46   121   120    1
    47    14    17    1
    48    14    15    1
    49    17    18    1
    50    20    18   ar
    51    20    22   ar
    52   133   134    1
    53   133   135    1
    54    54    56   ar
    55    66    65    1
    56    58    56   ar
    57    58    59    1
    58    44    43    1
    59    44    47    1
    60    18    19   ar
    61    22    23   ar
    62    15    24   am
    63    15    16    2
    64    65    64    1
    65    65    67    1
    66    24    25    1
    67    64    61    1
    68    19    21   ar
    69    23    21   ar
    70    60    61    1
    71    26    25    1
    72    26    27    2
    73    25    28    1
    74    61    62    1
    75    28    29    1
    76    29    30    1
    77    62    63    2
    78    38    40   ar
    79    38    37   ar
    80    40    42   ar
    81    30    31    1
    82   144   145    1
    83   115   114    2
    84    36    37    1
    85    36    33    1
    86    37    39   ar
    87   114   113    1
    88    34    33    1
    89    34    35    2
    90    42    41   ar
    91    82    83    1
    92    82    81    1
    93   116   113    1
    94   116   117    1
    95   145   146    1
    96   145   148    1
    97   118   117    1
    98    33    32    1
    99   113   112    1
   100   146   147    2
   101    39    41   ar
   102   157   156    1
   103   117   119    1
   104    81    80    1
   105   148   149    1
   106   155   156    1
   107   155   154    1
   108   153   152    2
   109    68    69    1
   110   151   154    1
   111   151   152    1
   112   151   150    1
   113    72    69    1
   114    72    73    1
   115   152   158   am
   116    88    85    1
   117    80    77    1
   118    69    70    1
   119    76    77    1
   120    70    71    2
   121    75    73    1
   122    77    78    1
   123    73    74    1
   124   158   159    1
   125    85    86    1
   126    85    84    1
   127    98    99   ar
   128    98    96   ar
   129   159   160    1
   130   159   162    1
   131    99    97   ar
   132   104   101    1
   133   164   162    1
   134    96    94   ar
   135    78    79    2
   136    87    86    2
   137   160   161    2
   138   162   163    1
   139    97    95   ar
   140   101   100    1
   141   101   102    1
   142    94    95   ar
   143    94    93    1
   144   111   109    1
   145   100    91   am
   146    93    90    1
   147   102   103    2
   148   109   110    1
   149   109   106    1
   150    91    90    1
   151    91    92    2
   152    90    89    1
   153   106   105    1
   154   106   107    1
   155   107   108    2
