@<TRIPOS>MOLECULE
tmp/3l4gC00.pdb
 141 137 0 0 0
SMALL
GASTEIGER

@<TRIPOS>ATOM
      1  N         45.2940  110.4010  -44.3530 N.3   327  HIS327     -0.1241
      2  CA        44.6800  109.5610  -43.3320 C.3   327  HIS327      0.1621
      3  C         45.7350  109.0880  -42.3320 C.2   327  HIS327      0.2264
      4  O         46.9150  108.9440  -42.6740 O.2   327  HIS327     -0.2867
      5  CB        43.9500  108.3580  -43.9630 C.3   327  HIS327      0.0745
      6  CG        44.7360  107.6280  -45.0130 C.ar  327  HIS327      0.0817
      7  ND1       46.0800  107.3460  -44.8830 N.ar  327  HIS327     -0.2268
      8  CD2       44.3490  107.0670  -46.1840 C.ar  327  HIS327      0.1154
      9  CE1       46.4860  106.6450  -45.9270 C.ar  327  HIS327      0.1986
     10  NE2       45.4550  106.4620  -46.7310 N.ar  327  HIS327     -0.2212
     11  N         46.2060  106.2930  -41.2910 N.3   329  THR329     -0.1218
     12  CA        46.6610  104.9380  -41.6050 C.3   329  THR329      0.1862
     13  C         48.1390  104.9230  -41.9610 C.2   329  THR329      0.2287
     14  O         48.8380  103.9540  -41.6840 O.2   329  THR329     -0.2866
     15  CB        45.8460  104.3100  -42.7610 C.3   329  THR329      0.1770
     16  OG1       44.4610  104.2420  -42.3900 O.3   329  THR329     -0.2211
     17  CG2       46.3330  102.8970  -43.0560 C.3   329  THR329      0.0375
     18  N         40.9470  112.3770  -37.2760 N.3   372  GLN372     -0.1231
     19  CA        40.6620  110.9750  -37.5010 C.3   372  GLN372      0.1698
     20  C         41.3700  110.1380  -36.4360 C.2   372  GLN372      0.2592
     21  O         42.5690  110.2940  -36.2210 O.2   372  GLN372     -0.2718
     22  CB        41.1620  110.6000  -38.8940 C.3   372  GLN372      0.0381
     23  CG        41.0440  109.1540  -39.2510 C.3   372  GLN372      0.0905
     24  CD        41.7020  108.8730  -40.5670 C.2   372  GLN372      0.2608
     25  OE1       41.3410  109.4630  -41.5800 O.2   372  GLN372     -0.2717
     26  NE2       42.6810  107.9740  -40.5670 N.am  372  GLN372     -0.0878
     27  N         40.6310  109.2660  -35.7520 N.am  373  ILE373     -0.1966
     28  CA        41.2300  108.3910  -34.7390 C.3   373  ILE373      0.1727
     29  C         41.3440  106.9740  -35.3200 C.2   373  ILE373      0.2616
     30  O         40.4450  106.4990  -36.0210 O.2   373  ILE373     -0.2715
     31  CB        40.3900  108.3110  -33.4540 C.3   373  ILE373      0.0290
     32  CG1       39.6020  107.0160  -33.4330 C.3   373  ILE373      0.0022
     33  CG2       39.3830  109.4420  -33.3860 C.3   373  ILE373      0.0023
     34  CD1       38.8140  106.8420  -32.1720 C.3   373  ILE373      0.0001
     35  N         42.4550  106.3070  -35.0320 N.am  374  GLU374     -0.1977
     36  CA        42.6840  104.9590  -35.5280 C.3   374  GLU374      0.1602
     37  C         43.2760  104.0300  -34.4560 C.2   374  GLU374      0.2287
     38  O         44.1380  104.4240  -33.6670 O.2   374  GLU374     -0.2864
     39  CB        43.6010  105.0000  -36.7560 C.3   374  GLU374      0.0415
     40  CG        43.9540  103.6220  -37.2710 C.3   374  GLU374      0.1163
     41  CD        44.3840  103.6240  -38.7130 C.2   374  GLU374      0.3649
     42  OE1       43.5680  104.0220  -39.5730 O.co2 374  GLU374     -0.2457
     43  OE2       45.5350  103.2210  -38.9860 O.co2 374  GLU374     -0.2457
     44  N         38.5710   98.2300  -48.7260 N.3   410  ASN410     -0.1240
     45  CA        39.6950   99.0950  -48.4130 C.3   410  ASN410      0.1653
     46  C         40.8540   98.4270  -49.1300 C.2   410  ASN410      0.2266
     47  O         41.0720   97.2180  -48.9970 O.2   410  ASN410     -0.2867
     48  CB        39.9970   99.1410  -46.9160 C.3   410  ASN410      0.1155
     49  CG        38.8550   99.7010  -46.1020 C.2   410  ASN410      0.2627
     50  OD1       38.2650  100.7280  -46.4470 O.2   410  ASN410     -0.2716
     51  ND2       38.5460   99.0340  -44.9970 N.am  410  ASN410     -0.0877
     52  N         43.7920   98.3090  -48.5190 N.3   412  TYR412     -0.1227
     53  CA        44.7210   97.6850  -47.5950 C.3   412  TYR412      0.1736
     54  C         44.1950   96.7510  -46.5070 C.2   412  TYR412      0.2596
     55  O         44.7220   96.7430  -45.4030 O.2   412  TYR412     -0.2718
     56  CB        45.5440   98.7870  -46.9590 C.3   412  TYR412      0.0548
     57  CG        44.7150  100.0010  -46.6680 C.ar  412  TYR412     -0.0200
     58  CD1       43.7600   99.9920  -45.6490 C.ar  412  TYR412     -0.0009
     59  CD2       44.8820  101.1590  -47.4070 C.ar  412  TYR412     -0.0009
     60  CE1       42.9910  101.1220  -45.3670 C.ar  412  TYR412      0.0417
     61  CE2       44.1260  102.2890  -47.1470 C.ar  412  TYR412      0.0417
     62  CZ        43.1800  102.2730  -46.1230 C.ar  412  TYR412      0.1957
     63  OH        42.4450  103.4180  -45.8570 O.3   412  TYR412     -0.2866
     64  N         43.1890   95.9430  -46.8060 N.am  413  THR413     -0.1953
     65  CA        42.6540   95.0220  -45.8050 C.3   413  THR413      0.1897
     66  C         42.0870   93.7490  -46.4560 C.2   413  THR413      0.2313
     67  O         41.2780   93.8410  -47.3870 O.2   413  THR413     -0.2863
     68  CB        41.5570   95.7050  -45.0210 C.3   413  THR413      0.1794
     69  OG1       40.6130   96.2360  -45.9460 O.3   413  THR413     -0.2208
     70  CG2       42.1170   96.8480  -44.1950 C.3   413  THR413      0.0378
     71  N         34.7800  102.3470  -39.8280 N.3   434  ASN434     -0.1225
     72  CA        35.2800  101.4790  -40.8860 C.3   434  ASN434      0.1785
     73  C         36.4910  100.7290  -40.3290 C.2   434  ASN434      0.2598
     74  O         37.2650  101.2950  -39.5490 O.2   434  ASN434     -0.2718
     75  CB        35.6630  102.3430  -42.1020 C.3   434  ASN434      0.1169
     76  CG        36.1940  101.5310  -43.2640 C.2   434  ASN434      0.2627
     77  OD1       37.2720  100.9480  -43.1790 O.2   434  ASN434     -0.2716
     78  ND2       35.4430  101.4960  -44.3620 N.am  434  ASN434     -0.0877
     79  N         36.6430   99.4560  -40.7070 N.am  435  SER435     -0.1938
     80  CA        37.7670   98.6420  -40.2330 C.3   435  SER435      0.2055
     81  C         38.1160   97.5480  -41.2260 C.2   435  SER435      0.2643
     82  O         37.3930   97.3180  -42.1890 O.2   435  SER435     -0.2714
     83  CB        37.4160   97.9600  -38.9330 C.3   435  SER435      0.2130
     84  OG        36.5430   96.8880  -39.2300 O.3   435  SER435     -0.2179
     85  N         39.2130   96.8480  -40.9510 N.am  436  GLY436     -0.1954
     86  CA        39.6530   95.7680  -41.8210 C.3   436  GLY436      0.1869
     87  C         40.7420   94.9100  -41.2000 C.2   436  GLY436      0.2309
     88  O         40.8770   94.8450  -39.9820 O.2   436  GLY436     -0.2863
     89  N         44.5450   94.5890  -42.5030 N.3   438  PHE438     -0.1241
     90  CA        45.7120   94.7800  -43.3610 C.3   438  PHE438      0.1605
     91  C         46.1310   93.5780  -44.2010 C.2   438  PHE438      0.2264
     92  O         46.3760   92.4970  -43.6640 O.2   438  PHE438     -0.2867
     93  CB        46.8870   95.2470  -42.5030 C.3   438  PHE438      0.0534
     94  CG        46.6780   96.6050  -41.9030 C.ar  438  PHE438     -0.0203
     95  CD1       47.1930   96.9120  -40.6480 C.ar  438  PHE438     -0.0042
     96  CD2       45.9390   97.5740  -42.5850 C.ar  438  PHE438     -0.0042
     97  CE1       46.9690   98.1670  -40.0760 C.ar  438  PHE438     -0.0003
     98  CE2       45.7090   98.8290  -42.0280 C.ar  438  PHE438     -0.0003
     99  CZ        46.2210   99.1290  -40.7730 C.ar  438  PHE438     -0.0000
    100  N         42.7340   96.4820  -37.7120 N.3   456  ALA456     -0.1231
    101  CA        42.6470   97.8970  -37.3640 C.3   456  ALA456      0.1694
    102  C         41.2830   98.4730  -37.6970 C.2   456  ALA456      0.2592
    103  O         40.5280   97.9000  -38.4790 O.2   456  ALA456     -0.2718
    104  CB        43.7310   98.6850  -38.1000 C.3   456  ALA456      0.0304
    105  N         40.9700   99.6180  -37.1000 N.am  457  TRP457     -0.1962
    106  CA        39.6890  100.2770  -37.3400 C.3   457  TRP457      0.1775
    107  C         39.8560  101.7730  -37.1350 C.2   457  TRP457      0.2659
    108  O         40.8350  102.2090  -36.5390 O.2   457  TRP457     -0.2711
    109  CB        38.6250   99.7230  -36.3820 C.3   457  TRP457      0.0591
    110  CG        38.6240  100.3250  -34.9860 C.ar  457  TRP457      0.0006
    111  CD1       37.8260  101.3340  -34.5410 C.ar  457  TRP457      0.0946
    112  CD2       39.4060   99.9070  -33.8530 C.ar  457  TRP457      0.0152
    113  NE1       38.0500  101.5650  -33.2060 N.ar  457  TRP457     -0.2442
    114  CE2       39.0150  100.7050  -32.7590 C.ar  457  TRP457      0.0810
    115  CE3       40.3890   98.9370  -33.6560 C.ar  457  TRP457      0.0012
    116  CZ2       39.5740  100.5620  -31.4870 C.ar  457  TRP457      0.0191
    117  CZ3       40.9410   98.7950  -32.3840 C.ar  457  TRP457      0.0001
    118  CH2       40.5320   99.6030  -31.3220 C.ar  457  TRP457      0.0015
    119  N         38.9030  102.5560  -37.6300 N.am  458  GLY458     -0.1716
    120  CA        38.9940  103.9980  -37.4730 C.2   458  GLY458      0.1480
    121  C         37.7110  104.7770  -37.7080 C.2   458  GLY458      0.2820
    122  O         36.7410  104.2730  -38.2770 O.2   458  GLY458     -0.2669
    123  N         37.7110  106.0220  -37.2540 N.am  459  LEU459     -0.1943
    124  CA        36.5660  106.8940  -37.4240 C.3   459  LEU459      0.1599
    125  C         36.9950  108.3380  -37.2330 C.2   459  LEU459      0.2287
    126  O         38.1570  108.6000  -36.9310 O.2   459  LEU459     -0.2864
    127  CB        35.4700  106.5220  -36.4390 C.3   459  LEU459      0.0297
    128  CG        35.9290  106.1750  -35.0340 C.3   459  LEU459      0.0022
    129  CD1       36.6160  107.3700  -34.4470 C.3   459  LEU459      0.0001
    130  CD2       34.7380  105.7880  -34.1720 C.3   459  LEU459      0.0001
    131  N         32.2720  113.4570  -36.5890 N.3   463  ARG463     -0.1245
    132  CA        30.9720  112.7740  -36.6420 C.3   463  ARG463      0.1563
    133  C         30.3240  112.5540  -35.2760 C.2   463  ARG463      0.2260
    134  O         29.1960  112.9900  -35.0450 O.2   463  ARG463     -0.2867
    135  CB        31.0860  111.4060  -37.3340 C.3   463  ARG463      0.0307
    136  CG        31.0740  111.4100  -38.8610 C.3   463  ARG463      0.0489
    137  CD        31.0750  109.9700  -39.4220 C.3   463  ARG463      0.2205
    138  NE        32.2570  109.1940  -39.0280 N.pl3 463  ARG463     -0.0865
    139  CZ        32.4650  107.9180  -39.3500 C.cat 463  ARG463      0.5346
    140  NH1       31.5730  107.2590  -40.0740 N.pl3 463  ARG463      0.1354
    141  NH2       33.5670  107.3010  -38.9510 N.pl3 463  ARG463      0.1354
@<TRIPOS>BOND
     1    46    47    2
     2    46    45    1
     3    44    45    1
     4    52    53    1
     5    45    48    1
     6    53    56    1
     7    53    54    1
     8    59    61   ar
     9    59    57   ar
    10    67    66    2
    11    61    62   ar
    12    56    57    1
    13    48    49    1
    14    64    54   am
    15    64    65    1
    16    10     8   ar
    17    10     9   ar
    18    57    58   ar
    19    54    55    2
    20    66    65    1
    21    50    49    2
    22     8     6   ar
    23    62    63    1
    24    62    60   ar
    25    49    51   am
    26    69    68    1
    27     9     7   ar
    28    65    68    1
    29    58    60   ar
    30    68    70    1
    31     6     7   ar
    32     6     5    1
    33    78    76   am
    34     1     2    1
    35    91    92    2
    36    91    90    1
    37     5     2    1
    38    90    89    1
    39    90    93    1
    40     2     3    1
    41    76    77    2
    42    76    75    1
    43    17    15    1
    44    15    16    1
    45    15    12    1
    46     4     3    2
    47    96    98   ar
    48    96    94   ar
    49    93    94    1
    50    82    81    2
    51    75    72    1
    52    98    99   ar
    53    13    14    2
    54    13    12    1
    55    94    95   ar
    56    86    87    1
    57    86    85    1
    58    12    11    1
    59    25    24    2
    60    81    85   am
    61    81    80    1
    62    87    88    2
    63    72    73    1
    64    72    71    1
    65    99    97   ar
    66    79    73   am
    67    79    80    1
    68    95    97   ar
    69    24    26   am
    70    24    23    1
    71    73    74    2
    72    80    83    1
    73   140   139    1
    74    42    41   ar
    75   137   138    1
    76   137   136    1
    77   139   138    2
    78   139   141    1
    79    23    22    1
    80    84    83    1
    81    43    41   ar
    82    22    19    1
    83   136   135    1
    84    41    40    1
    85   103   102    2
    86   122   121    2
    87   104   101    1
    88   100   101    1
    89   121   120    1
    90   121   123   am
    91   102   101    1
    92   102   105   am
    93   119   120    2
    94   119   107    1
    95    19    18    1
    96    19    20    1
    97   124   123    1
    98   124   125    1
    99   124   127    1
   100   106   107    1
   101   106   105    1
   102   106   109    1
   103   135   132    1
   104    40    39    1
   105   125   126    2
   106   107   108    2
   107    39    36    1
   108   132   131    1
   109   132   133    1
   110   127   128    1
   111    20    21    2
   112    20    27   am
   113   109   110    1
   114    30    29    2
   115    27    28    1
   116    36    35    1
   117    36    37    1
   118    29    35   am
   119    29    28    1
   120   133   134    2
   121   128   129    1
   122   128   130    1
   123   110   111   ar
   124   110   112   ar
   125    28    31    1
   126   111   113   ar
   127    37    38    2
   128   112   115   ar
   129   112   114   ar
   130   115   117   ar
   131    31    32    1
   132    31    33    1
   133    32    34    1
   134   113   114   ar
   135   114   116   ar
   136   117   118   ar
   137   116   118   ar
