@<TRIPOS>MOLECULE
tmp/3l4iA00.pdb
 161 150 0 0 0
SMALL
GASTEIGER

@<TRIPOS>ATOM
      1  N         14.4140    1.5500   51.2360 N.3     7  ASP7       -0.1239
      2  CA        15.6830    1.6290   50.5280 C.3     7  ASP7        0.1674
      3  C         16.3160    3.0320   50.7370 C.2     7  ASP7        0.2266
      4  O         15.8750    4.0300   50.1540 O.2     7  ASP7       -0.2867
      5  CB        15.4310    1.3230   49.0580 C.3     7  ASP7        0.1410
      6  CG        16.6850    1.4120   48.1840 C.2     7  ASP7        0.3668
      7  OD1       17.8080    1.5550   48.7070 O.co2   7  ASP7       -0.2456
      8  OD2       16.5250    1.3270   46.9450 O.co2   7  ASP7       -0.2456
      9  N         19.1190    4.8550   49.7520 N.3     9  GLY9       -0.1210
     10  CA        20.1010    4.7720   48.6760 C.3     9  GLY9        0.1956
     11  C         21.1540    5.8660   48.7100 C.2     9  GLY9        0.2613
     12  O         21.0170    6.8720   49.4040 O.2     9  GLY9       -0.2717
     13  N         22.2260    5.6460   47.9700 N.am   10  THR10      -0.1938
     14  CA        23.3040    6.5950   47.9180 C.3    10  THR10       0.2028
     15  C         22.8530    7.9080   47.2950 C.2    10  THR10       0.2643
     16  O         23.1430    8.9650   47.8400 O.2    10  THR10      -0.2714
     17  CB        24.5140    6.0330   47.1610 C.3    10  THR10       0.1808
     18  OG1       24.9950    4.8940   47.8680 O.3    10  THR10      -0.2208
     19  CG2       25.6190    7.0680   47.0760 C.3    10  THR10       0.0379
     20  N         22.1100    7.8330   46.2000 N.am   11  THR11      -0.1936
     21  CA        21.6330    9.0330   45.5140 C.3    11  THR11       0.2028
     22  C         20.1170    9.2220   45.6070 C.2    11  THR11       0.2642
     23  O         19.6600   10.3560   45.6800 O.2    11  THR11      -0.2714
     24  CB        22.0920    9.0520   44.0340 C.3    11  THR11       0.1808
     25  OG1       21.4790    7.9690   43.3290 O.3    11  THR11      -0.2208
     26  CG2       23.6260    8.9330   43.9460 C.3    11  THR11       0.0379
     27  N         19.3570    8.1310   45.6160 N.am   12  TYR12      -0.1973
     28  CA        17.9080    8.1620   45.8090 C.3    12  TYR12       0.1639
     29  C         17.4330    7.1740   46.8740 C.2    12  TYR12       0.2290
     30  O         18.0280    6.1320   47.0690 O.2    12  TYR12      -0.2864
     31  CB        17.1760    7.8550   44.5080 C.3    12  TYR12       0.0560
     32  CG        17.2620    8.9660   43.4560 C.ar   12  TYR12      -0.0198
     33  CD1       16.2400    9.9070   43.2970 C.ar   12  TYR12      -0.0009
     34  CD2       18.3410    9.0430   42.6050 C.ar   12  TYR12      -0.0009
     35  CE1       16.3290   10.9020   42.3250 C.ar   12  TYR12       0.0417
     36  CE2       18.4320   10.0140   41.6500 C.ar   12  TYR12       0.0417
     37  CZ        17.4320   10.9370   41.5210 C.ar   12  TYR12       0.1957
     38  OH        17.5760   11.8800   40.5510 O.3    12  TYR12      -0.2866
     39  N         11.0200    7.7440   43.8940 N.3    34  THR34      -0.1218
     40  CA        12.3380    7.8720   44.4340 C.3    34  THR34       0.1862
     41  C         12.5980    9.3300   44.8080 C.2    34  THR34       0.2287
     42  O         12.2310   10.2130   44.0660 O.2    34  THR34      -0.2866
     43  CB        13.3430    7.4140   43.4010 C.3    34  THR34       0.1770
     44  OG1       13.1990    8.2390   42.2330 O.3    34  THR34      -0.2211
     45  CG2       13.0880    5.8930   43.0540 C.3    34  THR34       0.0375
     46  N         22.8920   -4.3260   40.0120 N.3   197  ASP197     -0.1239
     47  CA        22.3270   -3.1110   40.6220 C.3   197  ASP197      0.1674
     48  C         23.1190   -1.8700   40.1610 C.2   197  ASP197      0.2266
     49  O         24.1540   -1.5330   40.7320 O.2   197  ASP197     -0.2867
     50  CB        22.3300   -3.2480   42.1610 C.3   197  ASP197      0.1410
     51  CG        21.7250   -2.0100   42.9040 C.2   197  ASP197      0.3668
     52  OD1       21.4720   -0.9690   42.2820 O.co2 197  ASP197     -0.2456
     53  OD2       21.5170   -2.0830   44.1390 O.co2 197  ASP197     -0.2456
     54  N         23.0690    2.0590   39.6360 N.3   199  GLY199     -0.1210
     55  CA        22.3580    3.2660   40.0860 C.3   199  GLY199      0.1956
     56  C         22.9220    4.5600   39.5200 C.2   199  GLY199      0.2612
     57  O         23.4550    4.6060   38.4200 O.2   199  GLY199     -0.2717
     58  N         22.7700    5.6180   40.3000 N.am  200  GLY200     -0.1942
     59  CA        23.1660    6.9530   39.9320 C.3   200  GLY200      0.2014
     60  C         24.6380    7.1680   40.1360 C.2   200  GLY200      0.2639
     61  O         25.2630    7.8530   39.3600 O.2   200  GLY200     -0.2714
     62  N         25.1840    6.5660   41.1820 N.am  201  GLY201     -0.1939
     63  CA        26.6000    6.7070   41.4900 C.3   201  GLY201      0.2014
     64  C         27.3710    5.4490   41.8680 C.2   201  GLY201      0.2639
     65  O         28.5860    5.5140   41.9950 O.2   201  GLY201     -0.2714
     66  N         26.6910    4.3190   42.0630 N.am  202  THR202     -0.1950
     67  CA        27.3420    3.0960   42.4930 C.3   202  THR202      0.1897
     68  C         26.8700    1.8970   41.6830 C.2   202  THR202      0.2313
     69  O         25.7690    1.8910   41.1310 O.2   202  THR202     -0.2863
     70  CB        27.1370    2.8440   44.0210 C.3   202  THR202      0.1794
     71  OG1       25.9210    2.1250   44.2600 O.3   202  THR202     -0.2208
     72  CG2       27.1150    4.1500   44.7930 C.3   202  THR202      0.0378
     73  N         24.8950    6.2330   36.7590 N.3   228  GLY228     -0.1210
     74  CA        24.2120    7.1740   35.8930 C.3   228  GLY228      0.1956
     75  C         24.8410    8.5350   35.7380 C.2   228  GLY228      0.2611
     76  O         24.7420    9.1260   34.6740 O.2   228  GLY228     -0.2717
     77  N         25.4810    9.0490   36.7810 N.am  229  GLU229     -0.1979
     78  CA        26.0820   10.3730   36.6910 C.3   229  GLU229      0.1602
     79  C         27.2070   10.4060   35.6590 C.2   229  GLU229      0.2287
     80  O         27.3640   11.3940   34.9230 O.2   229  GLU229     -0.2864
     81  CB        26.5860   10.8280   38.0540 C.3   229  GLU229      0.0415
     82  CG        25.4600   11.0140   39.1080 C.3   229  GLU229      0.1163
     83  CD        24.6170   12.2840   38.9150 C.2   229  GLU229      0.3649
     84  OE1       25.2000   13.4020   38.9150 O.co2 229  GLU229     -0.2457
     85  OE2       23.3720   12.1570   38.8040 O.co2 229  GLU229     -0.2457
     86  N         20.7850   14.7030   31.4200 N.3   267  GLU267     -0.1245
     87  CA        20.0550   13.7480   32.2450 C.3   267  GLU267      0.1567
     88  C         18.7130   13.4150   31.5950 C.2   267  GLU267      0.2260
     89  O         18.4080   12.2360   31.4120 O.2   267  GLU267     -0.2867
     90  CB        19.8820   14.2850   33.6820 C.3   267  GLU267      0.0388
     91  CG        18.8510   13.5570   34.5700 C.3   267  GLU267      0.1160
     92  CD        19.3070   12.1870   35.0570 C.2   267  GLU267      0.3649
     93  OE1       20.4860   11.8220   34.8100 O.co2 267  GLU267     -0.2457
     94  OE2       18.4870   11.4660   35.6950 O.co2 267  GLU267     -0.2457
     95  N         19.1730   11.5350   28.3590 N.3   270  LYS270     -0.1231
     96  CA        19.5350   10.1440   28.6690 C.3   270  LYS270      0.1693
     97  C         18.2960    9.3140   29.0110 C.2   270  LYS270      0.2591
     98  O         18.1610    8.2120   28.5180 O.2   270  LYS270     -0.2718
     99  CB        20.5290   10.0920   29.8110 C.3   270  LYS270      0.0285
    100  CG        20.8290    8.6940   30.3280 C.3   270  LYS270      0.0035
    101  CD        21.6470    8.7180   31.6020 C.3   270  LYS270      0.0206
    102  CE        20.8190    9.0930   32.8330 C.3   270  LYS270      0.1093
    103  NZ        21.6340    9.0640   34.0850 N.3   270  LYS270     -0.1314
    104  N         17.4020    9.8440   29.8380 N.am  271  ARG271     -0.1980
    105  CA        16.1580    9.1350   30.1960 C.3   271  ARG271      0.1597
    106  C         15.2950    8.8970   28.9680 C.2   271  ARG271      0.2287
    107  O         14.7950    7.7930   28.7200 O.2   271  ARG271     -0.2864
    108  CB        15.3560    9.9180   31.2440 C.3   271  ARG271      0.0334
    109  CG        16.0070    9.9340   32.6100 C.3   271  ARG271      0.0492
    110  CD        15.2800   10.8970   33.5590 C.3   271  ARG271      0.2205
    111  NE        15.8560   10.8790   34.9090 N.pl3 271  ARG271     -0.0865
    112  CZ        15.3150   10.2890   35.9780 C.cat 271  ARG271      0.5346
    113  NH1       14.1480    9.6470   35.9040 N.pl3 271  ARG271      0.1354
    114  NH2       15.9440   10.3570   37.1440 N.pl3 271  ARG271      0.1354
    115  N         16.0050    5.9630   26.7300 N.3   274  SER274     -0.1217
    116  CA        15.6600    4.6130   27.1640 C.3   274  SER274      0.1889
    117  C         14.3350    4.1370   26.5690 C.2   274  SER274      0.2288
    118  O         14.0500    2.9440   26.6130 O.2   274  SER274     -0.2866
    119  CB        15.5990    4.4950   28.6890 C.3   274  SER274      0.2089
    120  OG        16.8770    4.6490   29.2550 O.3   274  SER274     -0.2183
    121  N         18.1360   -0.8150   40.2370 N.3   337  GLY337     -0.1210
    122  CA        18.7910    0.4560   39.9780 C.3   337  GLY337      0.1956
    123  C         18.2560    1.0940   38.7100 C.2   337  GLY337      0.2612
    124  O         18.0130    0.4180   37.7120 O.2   337  GLY337     -0.2717
    125  N         18.0690    2.4110   38.7570 N.am  338  GLY338     -0.1942
    126  CA        17.4390    3.1410   37.6630 C.3   338  GLY338      0.2014
    127  C         18.1900    3.1100   36.3430 C.2   338  GLY338      0.2639
    128  O         17.5820    3.2000   35.3060 O.2   338  GLY338     -0.2714
    129  N         19.5120    3.0160   36.3870 N.am  339  SER339     -0.1949
    130  CA        20.3010    2.9090   35.1820 C.3   339  SER339      0.1924
    131  C         20.1190    1.5700   34.4420 C.2   339  SER339      0.2314
    132  O         20.5280    1.4700   33.2860 O.2   339  SER339     -0.2863
    133  CB        21.7960    3.1470   35.4680 C.3   339  SER339      0.2116
    134  OG        22.0250    4.4590   35.9840 O.3   339  SER339     -0.2180
    135  N         17.5020    0.6280   33.2290 N.3   341  ARG341     -0.1231
    136  CA        16.5130    0.9320   32.2150 C.3   341  ARG341      0.1694
    137  C         17.1440    1.1830   30.8320 C.2   341  ARG341      0.2591
    138  O         16.4430    1.1620   29.8210 O.2   341  ARG341     -0.2718
    139  CB        15.6920    2.1390   32.6620 C.3   341  ARG341      0.0321
    140  CG        14.9150    1.9290   33.9780 C.3   341  ARG341      0.0489
    141  CD        14.1140    3.1790   34.3400 C.3   341  ARG341      0.2205
    142  NE        13.3420    3.0500   35.5750 N.pl3 341  ARG341     -0.0865
    143  CZ        12.1520    2.4640   35.6700 C.cat 341  ARG341      0.5346
    144  NH1       11.5800    1.8970   34.6120 N.pl3 341  ARG341      0.1354
    145  NH2       11.5430    2.4110   36.8400 N.pl3 341  ARG341      0.1354
    146  N         18.4540    1.4030   30.7870 N.am  342  ILE342     -0.1980
    147  CA        19.1460    1.6840   29.5370 C.3   342  ILE342      0.1595
    148  C         19.1540    0.4390   28.6650 C.2   342  ILE342      0.2287
    149  O         19.7850   -0.5670   29.0390 O.2   342  ILE342     -0.2864
    150  CB        20.6100    2.1010   29.7680 C.3   342  ILE342      0.0276
    151  CG1       20.7150    3.3830   30.6060 C.3   342  ILE342      0.0022
    152  CG2       21.2730    2.3550   28.4600 C.3   342  ILE342      0.0022
    153  CD1       22.0870    3.6500   31.0890 C.3   342  ILE342      0.0001
    154  N         14.3030    0.5570   40.3580 N.3   365  ASP365     -0.1239
    155  CA        14.6090    1.4340   41.4740 C.3   365  ASP365      0.1674
    156  C         13.5980    1.3310   42.6230 C.2   365  ASP365      0.2266
    157  O         13.6850    2.0670   43.6010 O.2   365  ASP365     -0.2867
    158  CB        14.7520    2.9020   41.0000 C.3   365  ASP365      0.1410
    159  CG        13.6590    3.3170   40.0550 C.2   365  ASP365      0.3668
    160  OD1       12.6090    2.6560   40.0410 O.co2 365  ASP365     -0.2456
    161  OD2       13.8760    4.2610   39.2800 O.co2 365  ASP365     -0.2456
@<TRIPOS>BOND
     1   117   118    2
     2   117   116    1
     3   115   116    1
     4   116   119    1
     5    95    96    1
     6   152   150    1
     7    98    97    2
     8   148   149    2
     9   148   147    1
    10    96    97    1
    11    96    99    1
    12   119   120    1
    13   107   106    2
    14   106   105    1
    15    97   104   am
    16   147   150    1
    17   147   146    1
    18   150   151    1
    19    99   100    1
    20   138   137    2
    21   104   105    1
    22   105   108    1
    23   100   101    1
    24   151   153    1
    25   146   137   am
    26   137   136    1
    27   108   109    1
    28    89    88    2
    29    86    87    1
    30    88    87    1
    31   101   102    1
    32   136   139    1
    33   136   135    1
    34    87    90    1
    35   109   110    1
    36   139   140    1
    37   102   103    1
    38   132   131    2
    39   110   111    1
    40    90    91    1
    41   140   141    1
    42   141   142    1
    43   131   130    1
    44    91    92    1
    45   144   143    1
    46    76    75    2
    47    93    92   ar
    48   111   112    2
    49    80    79    2
    50    92    94   ar
    51   130   133    1
    52   130   129    1
    53   128   127    2
    54   133   134    1
    55   142   143    2
    56    79    78    1
    57   143   145    1
    58    75    74    1
    59    75    77   am
    60    74    73    1
    61   113   112    1
    62   112   114    1
    63   127   129   am
    64   127   126    1
    65    78    77    1
    66    78    81    1
    67   126   125    1
    68   124   123    2
    69    81    82    1
    70    57    56    2
    71   123   125   am
    72   123   122    1
    73    85    83   ar
    74    83    84   ar
    75    83    82    1
    76   161   159   ar
    77    61    60    2
    78    56    55    1
    79    56    58   am
    80    54    55    1
    81    59    60    1
    82    59    58    1
    83   122   121    1
    84    46    47    1
    85   160   159   ar
    86   159   158    1
    87    60    62   am
    88    48    47    1
    89    48    49    2
    90   154   155    1
    91    38    37    1
    92    47    50    1
    93   158   155    1
    94    69    68    2
    95    62    63    1
    96   155   156    1
    97    63    64    1
    98    37    36   ar
    99    37    35   ar
   100    36    34   ar
   101    68    67    1
   102    64    65    2
   103    64    66   am
   104    66    67    1
   105    50    51    1
   106    44    43    1
   107    52    51   ar
   108    35    33   ar
   109    67    70    1
   110    34    32   ar
   111   156   157    2
   112    51    53   ar
   113    45    43    1
   114    33    32   ar
   115    25    24    1
   116    43    40    1
   117    32    31    1
   118    39    40    1
   119    26    24    1
   120    70    71    1
   121    70    72    1
   122    24    21    1
   123    42    41    2
   124    40    41    1
   125    31    28    1
   126    21    22    1
   127    21    20    1
   128    22    27   am
   129    22    23    2
   130    27    28    1
   131    28    29    1
   132    20    15   am
   133    29    30    2
   134     8     6   ar
   135    19    17    1
   136    17    18    1
   137    17    14    1
   138    15    16    2
   139    15    14    1
   140    14    13    1
   141    13    11   am
   142     6     7   ar
   143     6     5    1
   144    10    11    1
   145    10     9    1
   146    11    12    2
   147     5     2    1
   148     4     3    2
   149     2     3    1
   150     2     1    1
