@<TRIPOS>MOLECULE
tmp/3l4jA00.pdb
 107 101 0 0 0
SMALL
GASTEIGER

@<TRIPOS>ATOM
      1  N         24.1280  -22.1850    2.2270 N.3    29  GLU29      -0.1245
      2  CA        25.1430  -21.8640    1.2290 C.3    29  GLU29       0.1567
      3  C         26.3140  -21.1430    1.8920 C.2    29  GLU29       0.2260
      4  O         26.2710  -19.9320    2.1020 O.2    29  GLU29      -0.2867
      5  CB        24.5510  -20.9700    0.1390 C.3    29  GLU29       0.0388
      6  CG        25.5800  -20.3370   -0.7860 C.3    29  GLU29       0.1160
      7  CD        25.0820  -19.0520   -1.4430 C.2    29  GLU29       0.3649
      8  OE1       25.7280  -18.5720   -2.4020 O.co2  29  GLU29      -0.2457
      9  OE2       24.0450  -18.5180   -1.0010 O.co2  29  GLU29      -0.2457
     10  N         28.5990  -27.1920    0.3020 N.3    55  ARG55      -0.1231
     11  CA        29.9240  -26.6300    0.0820 C.3    55  ARG55       0.1694
     12  C         29.9630  -25.4880   -0.9370 C.2    55  ARG55       0.2593
     13  O         30.3080  -24.3610   -0.5800 O.2    55  ARG55      -0.2718
     14  CB        30.9350  -27.7080   -0.3100 C.3    55  ARG55       0.0321
     15  CG        31.4800  -28.4910    0.8970 C.3    55  ARG55       0.0489
     16  CD        30.4310  -29.4010    1.5340 C.3    55  ARG55       0.2205
     17  NE        30.9100  -30.0380    2.7610 N.pl3  55  ARG55      -0.0865
     18  CZ        30.4800  -31.2160    3.2040 C.cat  55  ARG55       0.5346
     19  NH1       29.5770  -31.8950    2.5100 N.pl3  55  ARG55       0.1354
     20  NH2       30.9590  -31.7240    4.3310 N.pl3  55  ARG55       0.1354
     21  N         29.5840  -25.7510   -2.1840 N.am   56  GLY56      -0.1942
     22  CA        29.5500  -24.6850   -3.1730 C.3    56  GLY56       0.2014
     23  C         28.4590  -24.9060   -4.2030 C.2    56  GLY56       0.2638
     24  O         27.3580  -25.3610   -3.8830 O.2    56  GLY56      -0.2714
     25  N         28.7620  -24.5560   -5.4490 N.am   57  LYS57      -0.1977
     26  CA        27.8710  -24.8470   -6.5600 C.3    57  LYS57       0.1596
     27  C         27.6980  -26.3590   -6.6220 C.2    57  LYS57       0.2287
     28  O         28.6570  -27.0980   -6.8300 O.2    57  LYS57      -0.2864
     29  CB        28.4540  -24.3190   -7.8720 C.3    57  LYS57       0.0298
     30  CG        28.4840  -22.7940   -7.9960 C.3    57  LYS57       0.0038
     31  CD        27.1640  -22.2420   -8.5150 C.3    57  LYS57       0.0206
     32  CE        27.2970  -20.7880   -8.9650 C.3    57  LYS57       0.1093
     33  NZ        28.2340  -20.6430  -10.1180 N.3    57  LYS57      -0.1314
     34  N         21.1880  -13.7250   -3.3830 N.3   108  ASP108     -0.1239
     35  CA        21.7510  -13.1040   -4.5690 C.3   108  ASP108      0.1674
     36  C         21.5750  -14.0400   -5.7510 C.2   108  ASP108      0.2266
     37  O         21.0570  -15.1410   -5.5970 O.2   108  ASP108     -0.2867
     38  CB        23.2230  -12.7430   -4.3440 C.3   108  ASP108      0.1410
     39  CG        24.0930  -13.9400   -4.0610 C.2   108  ASP108      0.3668
     40  OD1       23.5680  -14.9520   -3.5730 O.co2 108  ASP108     -0.2456
     41  OD2       25.3080  -13.8530   -4.3380 O.co2 108  ASP108     -0.2456
     42  N         23.5620  -15.9230   -7.5210 N.3   110  ASP110     -0.1239
     43  CA        24.2150  -17.2190   -7.3490 C.3   110  ASP110      0.1674
     44  C         23.4780  -18.0690   -6.3190 C.2   110  ASP110      0.2266
     45  O         23.5020  -19.2930   -6.3830 O.2   110  ASP110     -0.2867
     46  CB        25.6960  -17.0570   -6.9710 C.3   110  ASP110      0.1410
     47  CG        26.5610  -16.6270   -8.1470 C.2   110  ASP110      0.3668
     48  OD1       26.8350  -17.4630   -9.0260 O.co2 110  ASP110     -0.2456
     49  OD2       26.9760  -15.4530   -8.1820 O.co2 110  ASP110     -0.2456
     50  N         21.9870  -21.8820   -6.8660 N.3   114  ILE114     -0.1245
     51  CA        22.1070  -22.9930   -5.9250 C.3   114  ILE114      0.1561
     52  C         20.7540  -23.6610   -5.7010 C.2   114  ILE114      0.2260
     53  O         20.6470  -24.8860   -5.6800 O.2   114  ILE114     -0.2867
     54  CB        22.6530  -22.5280   -4.5560 C.3   114  ILE114      0.0252
     55  CG1       23.9600  -21.7490   -4.7240 C.3   114  ILE114      0.0019
     56  CG2       22.8480  -23.7170   -3.6230 C.3   114  ILE114      0.0019
     57  CD1       25.1450  -22.6010   -5.0820 C.3   114  ILE114      0.0001
     58  N         28.6730  -11.3450  -16.7320 N.3   270  ARG270     -0.1245
     59  CA        30.0010  -11.4200  -16.1300 C.3   270  ARG270      0.1563
     60  C         30.9820  -12.2990  -16.9070 C.2   270  ARG270      0.2260
     61  O         32.1890  -12.2210  -16.6900 O.2   270  ARG270     -0.2867
     62  CB        29.9070  -11.9020  -14.6770 C.3   270  ARG270      0.0307
     63  CG        29.5930  -13.3810  -14.5200 C.3   270  ARG270      0.0489
     64  CD        29.3140  -13.7160  -13.0670 C.3   270  ARG270      0.2205
     65  NE        29.1290  -15.1440  -12.8430 N.pl3 270  ARG270     -0.0865
     66  CZ        28.6340  -15.6600  -11.7240 C.cat 270  ARG270      0.5346
     67  NH1       28.2640  -14.8580  -10.7340 N.pl3 270  ARG270      0.1354
     68  NH2       28.5020  -16.9750  -11.5950 N.pl3 270  ARG270      0.1354
     69  N         30.9530   -7.4470   -5.4260 N.3   315  HIS315     -0.1226
     70  CA        30.3650   -8.2190   -4.3350 C.3   315  HIS315      0.1752
     71  C         30.7750   -9.6880   -4.3090 C.2   315  HIS315      0.2596
     72  O         30.2740  -10.4600   -3.4950 O.2   315  HIS315     -0.2718
     73  CB        28.8420   -8.0820   -4.3420 C.3   315  HIS315      0.0759
     74  CG        28.3710   -6.6720   -4.1590 C.ar  315  HIS315      0.0818
     75  ND1       27.6880   -5.9810   -5.1360 N.ar  315  HIS315     -0.2268
     76  CD2       28.5060   -5.8180   -3.1170 C.ar  315  HIS315      0.1154
     77  CE1       27.4110   -4.7650   -4.6990 C.ar  315  HIS315      0.1986
     78  NE2       27.8960   -4.6400   -3.4770 N.ar  315  HIS315     -0.2212
     79  N         31.6900  -10.0710   -5.1910 N.am  316  HIS316     -0.1961
     80  CA        32.1810  -11.4450   -5.2180 C.3   316  HIS316      0.1787
     81  C         33.4960  -11.5660   -4.4600 C.2   316  HIS316      0.2620
     82  O         34.0090  -10.5810   -3.9360 O.2   316  HIS316     -0.2715
     83  CB        32.3550  -11.9280   -6.6550 C.3   316  HIS316      0.0785
     84  CG        31.1270  -11.7710   -7.4910 C.ar  316  HIS316      0.0821
     85  ND1       29.9500  -12.4310   -7.2130 N.ar  316  HIS316     -0.2267
     86  CD2       30.8950  -11.0360   -8.6040 C.ar  316  HIS316      0.1154
     87  CE1       29.0450  -12.1100   -8.1200 C.ar  316  HIS316      0.1986
     88  NE2       29.5950  -11.2690   -8.9770 N.ar  316  HIS316     -0.2212
     89  N         34.0390  -12.7770   -4.4090 N.am  317  GLY317     -0.1954
     90  CA        35.2770  -13.0240   -3.6940 C.3   317  GLY317      0.1869
     91  C         36.4740  -12.3620   -4.3460 C.2   317  GLY317      0.2309
     92  O         36.6470  -12.4370   -5.5630 O.2   317  GLY317     -0.2863
     93  N         39.3590  -13.2350   -4.5470 N.3   319  GLN319     -0.1231
     94  CA        40.2260  -14.2010   -5.1950 C.3   319  GLN319      0.1698
     95  C         39.9560  -14.2320   -6.6820 C.2   319  GLN319      0.2592
     96  O         40.8590  -14.3880   -7.4830 O.2   319  GLN319     -0.2718
     97  CB        39.9780  -15.5850   -4.6120 C.3   319  GLN319      0.0381
     98  CG        40.9990  -16.6210   -5.0180 C.3   319  GLN319      0.0905
     99  CD        40.5730  -18.0290   -4.6660 C.2   319  GLN319      0.2608
    100  OE1       39.3860  -18.3210   -4.5580 O.2   319  GLN319     -0.2717
    101  NE2       41.5430  -18.9110   -4.4900 N.am  319  GLN319     -0.0878
    102  N         38.6930  -14.1110   -7.0390 N.am  320  SER320     -0.1952
    103  CA        38.2700  -14.1070   -8.4310 C.3   320  SER320      0.1924
    104  C         38.8180  -12.8770   -9.1510 C.2   320  SER320      0.2314
    105  O         39.2330  -12.9460  -10.3050 O.2   320  SER320     -0.2863
    106  CB        36.7420  -14.1240   -8.5000 C.3   320  SER320      0.2116
    107  OG        36.2770  -14.7580   -9.6740 O.3   320  SER320     -0.2180
@<TRIPOS>BOND
     1    60    61    2
     2    60    59    1
     3    58    59    1
     4    59    62    1
     5    62    63    1
     6    63    64    1
     7    64    65    1
     8    65    66    2
     9    66    68    1
    10    66    67    1
    11   105   104    2
    12    33    32    1
    13   107   106    1
    14   104   103    1
    15    48    47   ar
    16    88    86   ar
    17    88    87   ar
    18    32    31    1
    19    86    84   ar
    20    31    30    1
    21   106   103    1
    22   103   102    1
    23    49    47   ar
    24    47    46    1
    25    87    85   ar
    26    30    29    1
    27    29    26    1
    28    42    43    1
    29    84    85   ar
    30    84    83    1
    31    96    95    2
    32    43    46    1
    33    43    44    1
    34   102    95   am
    35    50    51    1
    36    28    27    2
    37    95    94    1
    38    83    80    1
    39    27    26    1
    40    26    25    1
    41    45    44    2
    42    51    52    1
    43    51    54    1
    44    36    37    2
    45    36    35    1
    46    52    53    2
    47    92    91    2
    48    25    23   am
    49    69    70    1
    50    80    79    1
    51    80    81    1
    52    94    97    1
    53    94    93    1
    54    79    71   am
    55    75    77   ar
    56    75    74   ar
    57    57    55    1
    58    98    99    1
    59    98    97    1
    60    55    54    1
    61    77    78   ar
    62    99   100    2
    63    99   101   am
    64    35    38    1
    65    35    34    1
    66    54    56    1
    67    81    89   am
    68    81    82    2
    69    89    90    1
    70    91    90    1
    71    38    39    1
    72    73    70    1
    73    73    74    1
    74    41    39   ar
    75    70    71    1
    76    71    72    2
    77    23    24    2
    78    23    22    1
    79    74    76   ar
    80    39    40   ar
    81    78    76   ar
    82    22    21    1
    83     8     7   ar
    84    21    12   am
    85     7     9   ar
    86     7     6    1
    87    12    13    2
    88    12    11    1
    89     6     5    1
    90    14    11    1
    91    14    15    1
    92    11    10    1
    93     5     2    1
    94    15    16    1
    95     2     3    1
    96     2     1    1
    97    16    17    1
    98     3     4    2
    99    19    18    1
   100    17    18    2
   101    18    20    1
