@<TRIPOS>MOLECULE
tmp/3l4lA00.pdb
 101 95 0 0 0
SMALL
GASTEIGER

@<TRIPOS>ATOM
      1  N         13.6770   35.7420   31.2230 N.3    39  VAL39      -0.1231
      2  CA        14.9910   35.1580   31.4480 C.3    39  VAL39       0.1692
      3  C         15.1880   33.8950   30.6110 C.2    39  VAL39       0.2591
      4  O         16.2350   33.7100   29.9950 O.2    39  VAL39      -0.2718
      5  CB        15.2130   34.8620   32.9200 C.3    39  VAL39       0.0266
      6  CG1       16.4030   33.9170   33.1000 C.3    39  VAL39       0.0020
      7  CG2       15.4000   36.1730   33.6770 C.3    39  VAL39       0.0020
      8  N         14.1780   33.0360   30.5790 N.am   40  ARG40      -0.1980
      9  CA        14.2150   31.8580   29.7100 C.3    40  ARG40       0.1597
     10  C         14.4320   32.2390   28.2440 C.2    40  ARG40       0.2287
     11  O         15.2560   31.6430   27.5490 O.2    40  ARG40      -0.2864
     12  CB        12.9180   31.0630   29.8330 C.3    40  ARG40       0.0334
     13  CG        12.8050   29.9470   28.8160 C.3    40  ARG40       0.0492
     14  CD        11.5920   29.0760   29.0610 C.3    40  ARG40       0.2205
     15  NE        11.4640   28.0640   28.0160 N.pl3  40  ARG40      -0.0865
     16  CZ        10.7670   28.2290   26.8960 C.cat  40  ARG40       0.5346
     17  NH1       10.1090   29.3630   26.6780 N.pl3  40  ARG40       0.1354
     18  NH2       10.7170   27.2570   25.9990 N.pl3  40  ARG40       0.1354
     19  N         15.8160   34.9110   26.9210 N.3    42  ILE42      -0.1231
     20  CA        17.1780   35.4060   26.6890 C.3    42  ILE42       0.1692
     21  C         18.1760   34.2510   26.6960 C.2    42  ILE42       0.2592
     22  O         19.1090   34.2180   25.8960 O.2    42  ILE42      -0.2718
     23  CB        17.6290   36.4010   27.7840 C.3    42  ILE42       0.0266
     24  CG1       16.7200   37.6370   27.8400 C.3    42  ILE42       0.0019
     25  CG2       19.0890   36.8030   27.5680 C.3    42  ILE42       0.0020
     26  CD1       16.7610   38.4990   26.6080 C.3    42  ILE42       0.0001
     27  N         17.9940   33.3160   27.6230 N.am   43  GLY43      -0.1957
     28  CA        18.8610   32.1530   27.6980 C.3    43  GLY43       0.1869
     29  C         18.8000   31.3170   26.4280 C.2    43  GLY43       0.2309
     30  O         19.8170   30.8780   25.9100 O.2    43  GLY43      -0.2863
     31  N         22.5300   30.1780   25.8580 N.3    48  LEU48      -0.1231
     32  CA        23.1480   30.0170   27.1740 C.3    48  LEU48       0.1693
     33  C         22.4420   28.9410   27.9760 C.2    48  LEU48       0.2592
     34  O         22.9670   28.4520   28.9810 O.2    48  LEU48      -0.2718
     35  CB        23.0640   31.3180   27.9670 C.3    48  LEU48       0.0284
     36  CG        23.7760   32.5130   27.3480 C.3    48  LEU48       0.0019
     37  CD1       23.4830   33.7730   28.1630 C.3    48  LEU48       0.0001
     38  CD2       25.2600   32.2270   27.2900 C.3    48  LEU48       0.0001
     39  N         21.2410   28.5900   27.5320 N.am   49  TYR49      -0.1976
     40  CA        20.3500   27.7320   28.3030 C.3    49  TYR49       0.1639
     41  C         19.4790   26.9280   27.3580 C.2    49  TYR49       0.2290
     42  O         19.2100   27.3580   26.2360 O.2    49  TYR49      -0.2864
     43  CB        19.4540   28.5760   29.2240 C.3    49  TYR49       0.0560
     44  CG        18.4410   27.7500   29.9850 C.ar   49  TYR49      -0.0198
     45  CD1       18.8080   27.0390   31.1290 C.ar   49  TYR49      -0.0009
     46  CD2       17.1220   27.6510   29.5420 C.ar   49  TYR49      -0.0009
     47  CE1       17.8890   26.2530   31.8110 C.ar   49  TYR49       0.0417
     48  CE2       16.1930   26.8760   30.2220 C.ar   49  TYR49       0.0417
     49  CZ        16.5800   26.1810   31.3570 C.ar   49  TYR49       0.1957
     50  OH        15.6560   25.4070   32.0220 O.3    49  TYR49      -0.2866
     51  N         22.0240   24.4120   31.4650 N.3    55  VAL55      -0.1245
     52  CA        22.9100   25.5460   31.2310 C.3    55  VAL55       0.1561
     53  C         24.1700   25.1320   30.4680 C.2    55  VAL55       0.2260
     54  O         24.7930   24.1250   30.7940 O.2    55  VAL55      -0.2867
     55  CB        23.2870   26.2130   32.5770 C.3    55  VAL55       0.0252
     56  CG1       24.3120   27.3360   32.3770 C.3    55  VAL55       0.0019
     57  CG2       22.0220   26.7400   33.2810 C.3    55  VAL55       0.0019
     58  N         28.3370   30.3660   28.9970 N.3    60  ASN60      -0.1240
     59  CA        28.2330   31.3870   30.0340 C.3    60  ASN60       0.1653
     60  C         29.6130   31.9060   30.4660 C.2    60  ASN60       0.2266
     61  O         29.7980   33.1020   30.6790 O.2    60  ASN60      -0.2867
     62  CB        27.4080   30.8770   31.2240 C.3    60  ASN60       0.1155
     63  CG        25.9200   30.8770   30.9350 C.2    60  ASN60       0.2627
     64  OD1       25.2400   31.8830   31.1370 O.2    60  ASN60      -0.2716
     65  ND2       25.4080   29.7560   30.4500 N.am   60  ASN60      -0.0877
     66  N         13.9150   27.7180   34.0900 N.3    97  ALA97      -0.1245
     67  CA        14.9970   28.5130   33.5190 C.3    97  ALA97       0.1562
     68  C         15.4690   29.5560   34.5220 C.2    97  ALA97       0.2260
     69  O         16.6660   29.7570   34.7130 O.2    97  ALA97      -0.2867
     70  CB        14.5510   29.1770   32.2200 C.3    97  ALA97       0.0290
     71  N         19.1160   30.0130   36.2290 N.3   101  PHE101     -0.1241
     72  CA        19.7860   31.2990   36.1330 C.3   101  PHE101      0.1605
     73  C         20.2790   31.7770   37.4960 C.2   101  PHE101      0.2264
     74  O         21.3020   32.4470   37.5900 O.2   101  PHE101     -0.2867
     75  CB        18.8530   32.3520   35.5320 C.3   101  PHE101      0.0534
     76  CG        19.4260   33.7440   35.5660 C.ar  101  PHE101     -0.0203
     77  CD1       18.9410   34.6880   36.4580 C.ar  101  PHE101     -0.0042
     78  CD2       20.4700   34.0980   34.7210 C.ar  101  PHE101     -0.0042
     79  CE1       19.4810   35.9690   36.5070 C.ar  101  PHE101     -0.0003
     80  CE2       21.0160   35.3780   34.7590 C.ar  101  PHE101     -0.0003
     81  CZ        20.5220   36.3140   35.6550 C.ar  101  PHE101     -0.0000
     82  N         23.8560   31.3410   38.3320 N.3   104  LEU104     -0.1245
     83  CA        24.8420   32.1720   37.6400 C.3   104  LEU104      0.1561
     84  C         24.7150   33.6510   37.9920 C.2   104  LEU104      0.2260
     85  O         25.6060   34.4480   37.6950 O.2   104  LEU104     -0.2867
     86  CB        24.7040   32.0100   36.1220 C.3   104  LEU104      0.0270
     87  CG        25.2900   30.7720   35.4360 C.3   104  LEU104      0.0019
     88  CD1       26.8050   30.8650   35.3800 C.3   104  LEU104      0.0001
     89  CD2       24.8560   29.4960   36.1240 C.3   104  LEU104      0.0001
     90  N         27.4000   36.9730   37.1140 N.3   108  TYR108     -0.1241
     91  CA        27.0640   38.0670   36.2170 C.3   108  TYR108      0.1605
     92  C         27.1580   39.4050   36.9400 C.2   108  TYR108      0.2264
     93  O         27.6050   40.3990   36.3680 O.2   108  TYR108     -0.2867
     94  CB        25.6820   37.8640   35.5730 C.3   108  TYR108      0.0534
     95  CG        25.7360   36.9490   34.3660 C.ar  108  TYR108     -0.0201
     96  CD1       26.3430   37.3690   33.1900 C.ar  108  TYR108     -0.0009
     97  CD2       25.2070   35.6620   34.4080 C.ar  108  TYR108     -0.0009
     98  CE1       26.4230   36.5460   32.0920 C.ar  108  TYR108      0.0417
     99  CE2       25.2830   34.8250   33.3030 C.ar  108  TYR108      0.0417
    100  CZ        25.8920   35.2800   32.1470 C.ar  108  TYR108      0.1957
    101  OH        25.9760   34.4810   31.0320 O.3   108  TYR108     -0.2866
@<TRIPOS>BOND
     1    31    32    1
     2    22    21    2
     3    30    29    2
     4    18    16    1
     5    42    41    2
     6    29    28    1
     7    26    24    1
     8    17    16    1
     9    20    21    1
    10    20    19    1
    11    20    23    1
    12    21    27   am
    13    16    15    2
    14    32    35    1
    15    32    33    1
    16    38    36    1
    17    36    35    1
    18    36    37    1
    19    41    40    1
    20    39    33   am
    21    39    40    1
    22    11    10    2
    23    25    23    1
    24    27    28    1
    25    23    24    1
    26    33    34    2
    27    15    14    1
    28    10     9    1
    29    40    43    1
    30    13    14    1
    31    13    12    1
    32    58    59    1
    33    43    44    1
    34    46    44   ar
    35    46    48   ar
    36     9    12    1
    37     9     8    1
    38    44    45   ar
    39     4     3    2
    40    59    60    1
    41    59    62    1
    42    48    49   ar
    43    65    63   am
    44    60    61    2
    45    53    54    2
    46    53    52    1
    47     8     3   am
    48     3     2    1
    49    63    64    2
    50    63    62    1
    51   101   100    1
    52    45    47   ar
    53     1     2    1
    54    52    51    1
    55    52    55    1
    56    49    47   ar
    57    49    50    1
    58     2     5    1
    59    98   100   ar
    60    98    96   ar
    61   100    99   ar
    62    70    67    1
    63    56    55    1
    64    55    57    1
    65     5     6    1
    66     5     7    1
    67    96    95   ar
    68    99    97   ar
    69    67    66    1
    70    67    68    1
    71    95    97   ar
    72    95    94    1
    73    68    69    2
    74    78    80   ar
    75    78    76   ar
    76    80    81   ar
    77    88    87    1
    78    87    86    1
    79    87    89    1
    80    75    76    1
    81    75    72    1
    82    76    77   ar
    83    94    91    1
    84    81    79   ar
    85    86    83    1
    86    72    71    1
    87    72    73    1
    88    91    92    1
    89    91    90    1
    90    93    92    2
    91    77    79   ar
    92    73    74    2
    93    83    84    1
    94    83    82    1
    95    85    84    2
