@<TRIPOS>MOLECULE
tmp/3l4tA00.pdb
 180 175 0 0 0
SMALL
GASTEIGER

@<TRIPOS>ATOM
      1  N         43.2470   87.9590   24.8240 N.3   190  ASP190     -0.1239
      2  CA        43.7560   87.9840   26.1670 C.3   190  ASP190      0.1674
      3  C         44.3630   86.6240   26.5060 C.2   190  ASP190      0.2266
      4  O         43.6390   85.6790   26.8210 O.2   190  ASP190     -0.2867
      5  CB        42.6080   88.3290   27.1290 C.3   190  ASP190      0.1410
      6  CG        43.0240   88.3550   28.5800 C.2   190  ASP190      0.3668
      7  OD1       44.1910   88.0850   28.8980 O.co2 190  ASP190     -0.2456
      8  OD2       42.1480   88.7110   29.4210 O.co2 190  ASP190     -0.2456
      9  N         48.4460   94.9450   40.8860 N.3   286  TYR286     -0.1241
     10  CA        47.0870   94.4180   41.0100 C.3   286  TYR286      0.1605
     11  C         46.8870   94.0230   42.4920 C.2   286  TYR286      0.2264
     12  O         47.5610   93.1490   42.9920 O.2   286  TYR286     -0.2867
     13  CB        46.9660   93.2150   40.0760 C.3   286  TYR286      0.0534
     14  CG        45.6160   92.5340   39.9770 C.ar  286  TYR286     -0.0201
     15  CD1       45.4930   91.3470   39.2780 C.ar  286  TYR286     -0.0009
     16  CD2       44.4660   93.0910   40.5400 C.ar  286  TYR286     -0.0009
     17  CE1       44.2580   90.6830   39.1550 C.ar  286  TYR286      0.0417
     18  CE2       43.2290   92.4390   40.4270 C.ar  286  TYR286      0.0417
     19  CZ        43.1450   91.2400   39.7480 C.ar  286  TYR286      0.1957
     20  OH        41.9290   90.6080   39.6270 O.3   286  TYR286     -0.2866
     21  N         45.0610  100.0620   40.1390 N.3   314  ASP314     -0.1225
     22  CA        44.4310   98.9760   39.4020 C.3   314  ASP314      0.1805
     23  C         43.0070   98.8190   39.9250 C.2   314  ASP314      0.2597
     24  O         42.5570   99.6310   40.7370 O.2   314  ASP314     -0.2718
     25  CB        45.2410   97.7260   39.6010 C.3   314  ASP314      0.1424
     26  CG        45.0920   96.7130   38.4800 C.2   314  ASP314      0.3668
     27  OD1       44.0400   96.6560   37.7890 O.co2 314  ASP314     -0.2456
     28  OD2       46.0670   95.9300   38.3280 O.co2 314  ASP314     -0.2456
     29  N         42.3160   97.7700   39.5000 N.am  315  ILE315     -0.1980
     30  CA        40.8570   97.6650   39.7010 C.3   315  ILE315      0.1595
     31  C         40.4240   97.5350   41.1730 C.2   315  ILE315      0.2287
     32  O         39.2500   97.6800   41.4640 O.2   315  ILE315     -0.2864
     33  CB        40.2040   96.5160   38.8470 C.3   315  ILE315      0.0276
     34  CG1       40.7210   95.1520   39.3120 C.3   315  ILE315      0.0022
     35  CG2       40.3680   96.7780   37.3180 C.3   315  ILE315      0.0022
     36  CD1       40.0850   93.9760   38.5910 C.3   315  ILE315      0.0001
     37  N         43.4550  102.6330   36.0000 N.3   351  ILE351     -0.1245
     38  CA        42.9780  101.6360   35.0560 C.3   351  ILE351      0.1561
     39  C         41.4970  101.8860   34.8500 C.2   351  ILE351      0.2260
     40  O         40.7860  102.3070   35.7900 O.2   351  ILE351     -0.2867
     41  CB        43.2150  100.1590   35.5140 C.3   351  ILE351      0.0252
     42  CG1       43.1020   99.1830   34.3080 C.3   351  ILE351      0.0019
     43  CG2       42.2090   99.7350   36.6350 C.3   351  ILE351      0.0019
     44  CD1       43.6810   97.8080   34.6110 C.3   351  ILE351      0.0001
     45  N         35.0800   91.8050   35.0880 N.3   393  TRP393     -0.1241
     46  CA        35.3900   91.8920   36.5260 C.3   393  TRP393      0.1605
     47  C         34.1940   92.1880   37.4470 C.2   393  TRP393      0.2264
     48  O         34.1080   91.6080   38.5190 O.2   393  TRP393     -0.2867
     49  CB        36.4650   92.9360   36.8400 C.3   393  TRP393      0.0550
     50  CG        37.7680   92.7760   36.1310 C.ar  393  TRP393      0.0003
     51  CD1       38.2990   93.6480   35.2290 C.ar  393  TRP393      0.0946
     52  CD2       38.7570   91.7370   36.3210 C.ar  393  TRP393      0.0152
     53  NE1       39.5260   93.2090   34.8130 N.ar  393  TRP393     -0.2442
     54  CE2       39.8330   92.0360   35.4510 C.ar  393  TRP393      0.0810
     55  CE3       38.8200   90.5670   37.1060 C.ar  393  TRP393      0.0012
     56  CZ2       40.9730   91.2220   35.3560 C.ar  393  TRP393      0.0191
     57  CZ3       39.9430   89.7430   37.0060 C.ar  393  TRP393      0.0001
     58  CH2       41.0120   90.0780   36.1360 C.ar  393  TRP393      0.0015
     59  N         44.9250  104.0890   31.9790 N.3   428  TRP428     -0.1241
     60  CA        45.4000  102.7990   31.5180 C.3   428  TRP428      0.1605
     61  C         44.1920  101.9710   31.0750 C.2   428  TRP428      0.2264
     62  O         43.3450  101.5940   31.8930 O.2   428  TRP428     -0.2867
     63  CB        46.2100  102.1770   32.6630 C.3   428  TRP428      0.0550
     64  CG        46.4790  100.6970   32.6600 C.ar  428  TRP428      0.0003
     65  CD1       46.5420   99.8460   31.5790 C.ar  428  TRP428      0.0946
     66  CD2       46.8180   99.9110   33.8120 C.ar  428  TRP428      0.0152
     67  NE1       46.8820   98.5740   32.0120 N.ar  428  TRP428     -0.2442
     68  CE2       47.0670   98.5930   33.3660 C.ar  428  TRP428      0.0810
     69  CE3       46.9350  100.1960   35.1840 C.ar  428  TRP428      0.0012
     70  CZ2       47.3920   97.5400   34.2510 C.ar  428  TRP428      0.0191
     71  CZ3       47.2520   99.1460   36.0670 C.ar  428  TRP428      0.0001
     72  CH2       47.4860   97.8340   35.5830 C.ar  428  TRP428      0.0015
     73  N         42.6070   98.6270   29.6690 N.3   430  ASP430     -0.1225
     74  CA        42.9820   97.2240   29.7580 C.3   430  ASP430      0.1805
     75  C         41.8350   96.3720   29.2350 C.2   430  ASP430      0.2597
     76  O         40.7320   96.9030   29.0100 O.2   430  ASP430     -0.2718
     77  CB        43.2130   96.8840   31.2100 C.3   430  ASP430      0.1424
     78  CG        43.8080   95.5200   31.3990 C.2   430  ASP430      0.3668
     79  OD1       44.5600   95.0610   30.5210 O.co2 430  ASP430     -0.2456
     80  OD2       43.5100   94.9080   32.4370 O.co2 430  ASP430     -0.2456
     81  N         42.0980   95.0680   29.0280 N.am  431  MET431     -0.1979
     82  CA        41.0520   94.0870   28.7050 C.3   431  MET431      0.1605
     83  C         40.3120   94.4330   27.4200 C.2   431  MET431      0.2287
     84  O         39.1360   94.0920   27.2450 O.2   431  MET431     -0.2864
     85  CB        40.0440   93.9780   29.8810 C.3   431  MET431      0.0413
     86  CG        40.6540   93.6560   31.2230 C.3   431  MET431      0.0598
     87  SD        41.3590   91.9960   31.3060 S.3   431  MET431     -0.1393
     88  CE        39.8550   91.0340   31.4680 C.3   431  MET431      0.0692
     89  N         38.2550   91.4500   25.9600 N.3   435  SER435     -0.1217
     90  CA        38.3970   90.2470   26.7630 C.3   435  SER435      0.1889
     91  C         37.0710   89.9930   27.4600 C.2   435  SER435      0.2288
     92  O         36.4900   90.9140   28.0420 O.2   435  SER435     -0.2866
     93  CB        39.5110   90.4490   27.7790 C.3   435  SER435      0.2089
     94  OG        39.6050   89.3410   28.6490 O.3   435  SER435     -0.2183
     95  N         34.9960   87.0420   29.9270 N.3   437  PHE437     -0.1241
     96  CA        35.2000   85.8550   30.7580 C.3   437  PHE437      0.1605
     97  C         34.3020   84.6840   30.3330 C.2   437  PHE437      0.2264
     98  O         34.5190   83.5450   30.7580 O.2   437  PHE437     -0.2867
     99  CB        34.9870   86.1510   32.2480 C.3   437  PHE437      0.0534
    100  CG        36.0020   87.0880   32.8500 C.ar  437  PHE437     -0.0203
    101  CD1       37.2280   87.3520   32.2150 C.ar  437  PHE437     -0.0042
    102  CD2       35.7430   87.6670   34.0940 C.ar  437  PHE437     -0.0042
    103  CE1       38.1610   88.2170   32.8020 C.ar  437  PHE437     -0.0003
    104  CE2       36.6670   88.5130   34.7030 C.ar  437  PHE437     -0.0003
    105  CZ        37.8810   88.8040   34.0550 C.ar  437  PHE437     -0.0000
    106  N         46.3900   97.9060   26.3320 N.3   513  ARG513     -0.1245
    107  CA        46.7520   96.5130   26.0540 C.3   513  ARG513      0.1563
    108  C         46.5770   96.1320   24.5710 C.2   513  ARG513      0.2260
    109  O         47.5520   95.8180   23.9270 O.2   513  ARG513     -0.2867
    110  CB        46.0110   95.5320   26.9550 C.3   513  ARG513      0.0307
    111  CG        46.8440   94.2840   27.1900 C.3   513  ARG513      0.0489
    112  CD        46.3520   93.5490   28.3930 C.3   513  ARG513      0.2205
    113  NE        45.0550   92.9370   28.1230 N.pl3 513  ARG513     -0.0865
    114  CZ        44.4480   92.0930   28.9560 C.cat 513  ARG513      0.5346
    115  NH1       44.9870   91.8280   30.1350 N.pl3 513  ARG513      0.1354
    116  NH2       43.2760   91.5580   28.6300 N.pl3 513  ARG513      0.1354
    117  N         52.0350   98.1910   26.9750 N.3   526  TRP526     -0.1241
    118  CA        52.9030   97.2650   27.7440 C.3   526  TRP526      0.1605
    119  C         52.6890   95.8330   27.2880 C.2   526  TRP526      0.2264
    120  O         51.6160   95.5050   26.8050 O.2   526  TRP526     -0.2867
    121  CB        52.7710   97.4500   29.2940 C.3   526  TRP526      0.0550
    122  CG        51.7710   96.5740   29.9420 C.ar  526  TRP526      0.0003
    123  CD1       52.0090   95.4880   30.7470 C.ar  526  TRP526      0.0946
    124  CD2       50.3550   96.7140   29.8610 C.ar  526  TRP526      0.0152
    125  NE1       50.8130   94.9370   31.1580 N.ar  526  TRP526     -0.2442
    126  CE2       49.7850   95.6750   30.6260 C.ar  526  TRP526      0.0810
    127  CE3       49.5090   97.6000   29.1760 C.ar  526  TRP526      0.0012
    128  CZ2       48.3980   95.4990   30.7350 C.ar  526  TRP526      0.0191
    129  CZ3       48.1450   97.4480   29.2930 C.ar  526  TRP526      0.0001
    130  CH2       47.5920   96.4000   30.0810 C.ar  526  TRP526      0.0015
    131  N         50.5030   90.3710   30.5350 N.3   529  ASP529     -0.1239
    132  CA        50.6790   89.5680   31.7490 C.3   529  ASP529      0.1674
    133  C         51.8080   88.5380   31.6310 C.2   529  ASP529      0.2266
    134  O         51.5340   87.3770   31.4480 O.2   529  ASP529     -0.2867
    135  CB        49.4000   88.7800   32.0540 C.3   529  ASP529      0.1410
    136  CG        48.2260   89.6600   32.3270 C.2   529  ASP529      0.3668
    137  OD1       48.4420   90.8860   32.5150 O.co2 529  ASP529     -0.2456
    138  OD2       47.0800   89.1190   32.3730 O.co2 529  ASP529     -0.2456
    139  N         54.7180   90.0610   36.1780 N.3   562  PHE562     -0.1241
    140  CA        53.3720   90.1830   36.7070 C.3   562  PHE562      0.1605
    141  C         53.0420   88.9340   37.5660 C.2   562  PHE562      0.2264
    142  O         52.9360   89.0440   38.7920 O.2   562  PHE562     -0.2867
    143  CB        52.4090   90.3580   35.5360 C.3   562  PHE562      0.0534
    144  CG        50.9720   90.4380   35.9080 C.ar  562  PHE562     -0.0203
    145  CD1       50.4380   91.5980   36.4940 C.ar  562  PHE562     -0.0042
    146  CD2       50.1180   89.3750   35.6240 C.ar  562  PHE562     -0.0042
    147  CE1       49.0700   91.6460   36.8190 C.ar  562  PHE562     -0.0003
    148  CE2       48.7910   89.4380   35.9390 C.ar  562  PHE562     -0.0003
    149  CZ        48.2580   90.5700   36.5140 C.ar  562  PHE562     -0.0000
    150  N         55.1790   96.3610   37.7510 N.3   587  HIS587     -0.1241
    151  CA        53.7920   95.9930   38.0210 C.3   587  HIS587      0.1621
    152  C         53.7460   94.5100   38.4370 C.2   587  HIS587      0.2264
    153  O         54.5750   93.7150   37.9740 O.2   587  HIS587     -0.2867
    154  CB        52.9630   96.2880   36.7900 C.3   587  HIS587      0.0745
    155  CG        51.5180   95.9080   36.9190 C.ar  587  HIS587      0.0817
    156  ND1       50.7100   96.3580   37.9490 N.ar  587  HIS587     -0.2268
    157  CD2       50.7260   95.1740   36.1130 C.ar  587  HIS587      0.1154
    158  CE1       49.5000   95.8600   37.7980 C.ar  587  HIS587      0.1986
    159  NE2       49.4840   95.1380   36.6910 N.ar  587  HIS587     -0.2212
    160  N         47.9770   89.8730   41.4240 N.3   590  GLN590     -0.1245
    161  CA        47.2290   89.7370   42.6730 C.3   590  GLN590      0.1566
    162  C         47.8560   88.6340   43.5270 C.2   590  GLN590      0.2260
    163  O         48.1350   87.5250   43.0390 O.2   590  GLN590     -0.2867
    164  CB        45.7420   89.4910   42.3270 C.3   590  GLN590      0.0367
    165  CG        44.8160   88.8640   43.4170 C.3   590  GLN590      0.0905
    166  CD        43.3490   88.9010   43.0000 C.2   590  GLN590      0.2608
    167  OE1       42.9010   88.1550   42.1240 O.2   590  GLN590     -0.2717
    168  NE2       42.6030   89.7910   43.6100 N.am  590  GLN590     -0.0878
    169  N         50.7610   88.0350   44.9280 N.3   592  TYR592     -0.1241
    170  CA        52.1920   87.7010   44.9670 C.3   592  TYR592      0.1605
    171  C         52.9980   88.5670   45.9390 C.2   592  TYR592      0.2264
    172  O         52.5710   89.6380   46.3160 O.2   592  TYR592     -0.2867
    173  CB        52.7920   87.7230   43.5470 C.3   592  TYR592      0.0534
    174  CG        51.9760   86.9140   42.5750 C.ar  592  TYR592     -0.0201
    175  CD1       51.7870   85.5440   42.7700 C.ar  592  TYR592     -0.0009
    176  CD2       51.3500   87.5240   41.4890 C.ar  592  TYR592     -0.0009
    177  CE1       50.9950   84.7910   41.8840 C.ar  592  TYR592      0.0417
    178  CE2       50.5670   86.7890   40.6090 C.ar  592  TYR592      0.0417
    179  CZ        50.3990   85.4260   40.8120 C.ar  592  TYR592      0.1957
    180  OH        49.6470   84.7080   39.9290 O.3   592  TYR592     -0.2866
@<TRIPOS>BOND
     1   109   108    2
     2   108   107    1
     3     1     2    1
     4    89    90    1
     5   107   106    1
     6   107   110    1
     7     2     3    1
     8     2     5    1
     9     3     4    2
    10    90    91    1
    11    90    93    1
    12   120   119    2
    13   110   111    1
    14   117   118    1
    15     5     6    1
    16   111   112    1
    17    84    83    2
    18   119   118    1
    19    83    82    1
    20    91    92    2
    21   118   121    1
    22    93    94    1
    23   113   112    1
    24   113   114    2
    25     6     7   ar
    26     6     8   ar
    27   116   114    1
    28    82    81    1
    29    82    85    1
    30   114   115    1
    31    76    75    2
    32    81    75   am
    33   127   129   ar
    34   127   124   ar
    35    75    74    1
    36   129   130   ar
    37   121   122    1
    38    73    74    1
    39    74    77    1
    40   124   122   ar
    41   124   126   ar
    42    85    86    1
    43    95    96    1
    44   122   123   ar
    45   130   128   ar
    46    97    96    1
    47    97    98    2
    48    79    78   ar
    49   131   132    1
    50   126   128   ar
    51   126   125   ar
    52   123   125   ar
    53    96    99    1
    54    61    60    1
    55    61    62    2
    56    77    78    1
    57    86    87    1
    58    87    88    1
    59    78    80   ar
    60   134   133    2
    61    60    59    1
    62    60    63    1
    63    65    67   ar
    64    65    64   ar
    65   133   132    1
    66   132   135    1
    67    67    68   ar
    68   135   136    1
    69   101   103   ar
    70   101   100   ar
    71    99   100    1
    72   136   138   ar
    73   136   137   ar
    74    64    63    1
    75    64    66   ar
    76   103   105   ar
    77   100   102   ar
    78    68    66   ar
    79    68    70   ar
    80    66    69   ar
    81   105   104   ar
    82   102   104   ar
    83    70    72   ar
    84    42    44    1
    85    42    41    1
    86    53    51   ar
    87    53    54   ar
    88    39    38    1
    89    39    40    2
    90    38    41    1
    91    38    37    1
    92    45    46    1
    93    69    71   ar
    94    51    50   ar
    95    56    54   ar
    96    56    58   ar
    97    54    52   ar
    98    41    43    1
    99   143   144    1
   100   143   140    1
   101    72    71   ar
   102   146   144   ar
   103   146   148   ar
   104   144   145   ar
   105   148   149   ar
   106   157   159   ar
   107   157   155   ar
   108    50    52   ar
   109    50    49    1
   110    58    57   ar
   111   139   140    1
   112    52    55   ar
   113   145   147   ar
   114   149   147   ar
   115    46    49    1
   116    46    47    1
   117   159   158   ar
   118   140   141    1
   119   154   155    1
   120   154   151    1
   121   155   156   ar
   122    57    55   ar
   123    35    33    1
   124    47    48    2
   125   141   142    2
   126   150   151    1
   127    27    26   ar
   128   158   156   ar
   129   153   152    2
   130   151   152    1
   131    28    26   ar
   132    26    25    1
   133    36    34    1
   134    33    34    1
   135    33    30    1
   136    17    15   ar
   137    17    19   ar
   138    15    14   ar
   139    22    25    1
   140    22    23    1
   141    22    21    1
   142    29    30    1
   143    29    23   am
   144    20    19    1
   145    30    31    1
   146    19    18   ar
   147    23    24    2
   148   180   179    1
   149    14    13    1
   150    14    16   ar
   151    13    10    1
   152    18    16   ar
   153   178   179   ar
   154   178   176   ar
   155   179   177   ar
   156     9    10    1
   157    10    11    1
   158    31    32    2
   159   160   161    1
   160   176   174   ar
   161   177   175   ar
   162   167   166    2
   163   164   161    1
   164   164   165    1
   165    11    12    2
   166   174   175   ar
   167   174   173    1
   168   161   162    1
   169   166   165    1
   170   166   168   am
   171   163   162    2
   172   173   170    1
   173   169   170    1
   174   170   171    1
   175   171   172    2
