@<TRIPOS>MOLECULE
tmp/3l4tA02.pdb
 91 87 0 0 0
SMALL
GASTEIGER

@<TRIPOS>ATOM
      1  N         22.3990  104.7230   23.9510 N.3   376  LYS376     -0.1245
      2  CA        22.3170  103.5390   23.0890 C.3   376  LYS376      0.1561
      3  C         23.6580  103.1920   22.4080 C.2   376  LYS376      0.2260
      4  O         23.7030  102.9050   21.2130 O.2   376  LYS376     -0.2867
      5  CB        21.1650  103.6880   22.0710 C.3   376  LYS376      0.0271
      6  CG        19.7590  103.8960   22.7210 C.3   376  LYS376      0.0035
      7  CD        18.6310  103.5520   21.7410 C.3   376  LYS376      0.0206
      8  CE        17.2040  103.7090   22.3520 C.3   376  LYS376      0.1093
      9  NZ        16.9780  102.9850   23.6540 N.3   376  LYS376     -0.1314
     10  N         26.0510  100.7280   23.1070 N.3   378  TRP378     -0.1241
     11  CA        26.6730   99.4010   23.2950 C.3   378  TRP378      0.1605
     12  C         26.8100   98.5710   22.0260 C.2   378  TRP378      0.2264
     13  O         26.0860   98.7740   21.0570 O.2   378  TRP378     -0.2867
     14  CB        25.9580   98.5640   24.3820 C.3   378  TRP378      0.0550
     15  CG        25.5470   99.3040   25.6250 C.ar  378  TRP378      0.0003
     16  CD1       24.2430   99.5140   26.0680 C.ar  378  TRP378      0.0946
     17  CD2       26.4030   99.9120   26.6060 C.ar  378  TRP378      0.0152
     18  NE1       24.2640  100.2190   27.2480 N.ar  378  TRP378     -0.2442
     19  CE2       25.5680  100.4740   27.6030 C.ar  378  TRP378      0.0810
     20  CE3       27.7980  100.0390   26.7430 C.ar  378  TRP378      0.0012
     21  CZ2       26.0850  101.1610   28.7180 C.ar  378  TRP378      0.0191
     22  CZ3       28.3070  100.7150   27.8360 C.ar  378  TRP378      0.0001
     23  CH2       27.4560  101.2760   28.8120 C.ar  378  TRP378      0.0015
     24  N         25.8820   95.4860   20.0550 N.3   380  ASN380     -0.1240
     25  CA        24.6580   94.7040   20.0260 C.3   380  ASN380      0.1653
     26  C         24.9470   93.2660   19.5750 C.2   380  ASN380      0.2266
     27  O         25.9540   93.0170   18.9260 O.2   380  ASN380     -0.2867
     28  CB        23.6530   95.3680   19.0890 C.3   380  ASN380      0.1155
     29  CG        23.1850   96.7460   19.5860 C.2   380  ASN380      0.2627
     30  OD1       23.2770   97.0780   20.7800 O.2   380  ASN380     -0.2716
     31  ND2       22.6740   97.5420   18.6530 N.am  380  ASN380     -0.0877
     32  N         21.0360   93.2550   16.0150 N.3   384  GLY384     -0.1210
     33  CA        21.3630   94.6650   15.8170 C.3   384  GLY384      0.1956
     34  C         20.5690   95.6700   16.6390 C.2   384  GLY384      0.2611
     35  O         20.5000   96.8440   16.2650 O.2   384  GLY384     -0.2717
     36  N         19.9740   95.2190   17.7480 N.am  385  VAL385     -0.1979
     37  CA        19.1410   96.0780   18.6200 C.3   385  VAL385      0.1595
     38  C         19.2520   95.7790   20.1310 C.2   385  VAL385      0.2287
     39  O         19.0240   96.6550   20.9400 O.2   385  VAL385     -0.2864
     40  CB        17.6270   96.1060   18.1790 C.3   385  VAL385      0.0276
     41  CG1       17.4310   96.9260   16.8910 C.3   385  VAL385      0.0022
     42  CG2       17.0680   94.6860   18.0270 C.3   385  VAL385      0.0022
     43  N         21.7050   95.0280   23.2310 N.3   387  PRO387     -0.2116
     44  CA        23.0590   95.0510   23.7960 C.3   387  PRO387      0.1372
     45  C         23.5820   93.6600   24.1210 C.2   387  PRO387      0.2244
     46  O         22.8800   92.8540   24.7510 O.2   387  PRO387     -0.2868
     47  CB        22.8880   95.8750   25.0690 C.3   387  PRO387      0.0268
     48  CG        21.8510   96.8630   24.6920 C.3   387  PRO387      0.0207
     49  CD        20.8580   96.0630   23.8540 C.3   387  PRO387      0.0892
     50  N         30.6400  100.5240   22.3060 N.3   401  ASP401     -0.1239
     51  CA        30.9690  100.4770   20.9010 C.3   401  ASP401      0.1674
     52  C         31.7340  101.7430   20.5620 C.2   401  ASP401      0.2266
     53  O         31.1340  102.7530   20.1600 O.2   401  ASP401     -0.2867
     54  CB        29.7150  100.3780   20.0270 C.3   401  ASP401      0.1410
     55  CG        30.0310  100.4750   18.5450 C.2   401  ASP401      0.3668
     56  OD1       31.2250  100.3700   18.1640 O.co2 401  ASP401     -0.2456
     57  OD2       29.0900  100.6620   17.7600 O.co2 401  ASP401     -0.2456
     58  N         31.4530  104.0780   17.2770 N.3   404  ASN404     -0.1240
     59  CA        30.3510  105.0310   17.1750 C.3   404  ASN404      0.1653
     60  C         30.8530  106.3460   17.7770 C.2   404  ASN404      0.2266
     61  O         31.2150  106.3730   18.9470 O.2   404  ASN404     -0.2867
     62  CB        29.1730  104.4550   17.9730 C.3   404  ASN404      0.1155
     63  CG        27.9380  105.3610   18.0000 C.2   404  ASN404      0.2627
     64  OD1       28.0220  106.5770   17.8130 O.2   404  ASN404     -0.2716
     65  ND2       26.7860  104.7570   18.2670 N.am  404  ASN404     -0.0877
     66  N         27.5400   93.3050   16.5360 N.3   474  VAL474     -0.1231
     67  CA        27.2940   94.3980   15.5840 C.3   474  VAL474      0.1692
     68  C         27.7290   95.7390   16.1710 C.2   474  VAL474      0.2592
     69  O         27.2480   96.1410   17.2200 O.2   474  VAL474     -0.2718
     70  CB        25.7750   94.4350   15.1720 C.3   474  VAL474      0.0266
     71  CG1       25.4590   95.6400   14.3090 C.3   474  VAL474      0.0020
     72  CG2       25.4080   93.1770   14.4180 C.3   474  VAL474      0.0020
     73  N         28.6360   96.4340   15.4760 N.am  475  GLN475     -0.1966
     74  CA        29.1180   97.7630   15.8910 C.3   475  GLN475      0.1733
     75  C         28.9140   98.7420   14.7380 C.2   475  GLN475      0.2616
     76  O         28.5650   98.3260   13.6390 O.2   475  GLN475     -0.2715
     77  CB        30.6000   97.7170   16.2980 C.3   475  GLN475      0.0408
     78  CG        30.8560   96.8970   17.5630 C.3   475  GLN475      0.0908
     79  CD        32.3040   96.8930   18.0520 C.2   475  GLN475      0.2608
     80  OE1       32.8400   97.9090   18.5060 O.2   475  GLN475     -0.2717
     81  NE2       32.9120   95.7310   18.0250 N.am  475  GLN475     -0.0878
     82  N         29.1130  100.0280   14.9900 N.am  476  HIS476     -0.1973
     83  CA        29.0220  101.0370   13.9290 C.3   476  HIS476      0.1656
     84  C         29.9440  100.7680   12.6940 C.2   476  HIS476      0.2291
     85  O         29.5370  101.0120   11.5500 O.2   476  HIS476     -0.2864
     86  CB        29.1920  102.4330   14.5280 C.3   476  HIS476      0.0771
     87  CG        29.1300  103.5350   13.5290 C.ar  476  HIS476      0.0820
     88  ND1       30.1470  104.4570   13.3750 N.ar  476  HIS476     -0.2267
     89  CD2       28.1880  103.8550   12.6120 C.ar  476  HIS476      0.1154
     90  CE1       29.8280  105.3050   12.4110 C.ar  476  HIS476      0.1986
     91  NE2       28.6490  104.9570   11.9280 N.ar  476  HIS476     -0.2212
@<TRIPOS>BOND
     1    85    84    2
     2    91    90   ar
     3    91    89   ar
     4    90    88   ar
     5    89    87   ar
     6    84    83    1
     7    88    87   ar
     8    87    86    1
     9    76    75    2
    10    83    86    1
    11    83    82    1
    12    71    70    1
    13    72    70    1
    14    75    82   am
    15    75    74    1
    16    70    67    1
    17    73    74    1
    18    73    68   am
    19    67    68    1
    20    67    66    1
    21    33    32    1
    22    33    34    1
    23    74    77    1
    24    68    69    2
    25    35    34    2
    26    77    78    1
    27    34    36   am
    28    41    40    1
    29    59    58    1
    30    59    60    1
    31    59    62    1
    32    78    79    1
    33    36    37    1
    34    57    55   ar
    35    60    61    2
    36    64    63    2
    37    62    63    1
    38    63    65   am
    39    81    79   am
    40    42    40    1
    41    79    80    2
    42    56    55   ar
    43    40    37    1
    44    55    54    1
    45    37    38    1
    46    31    29   am
    47    27    26    2
    48    28    29    1
    49    28    25    1
    50    26    25    1
    51    29    30    2
    52    25    24    1
    53    54    51    1
    54    38    39    2
    55    53    52    2
    56    52    51    1
    57    51    50    1
    58    13    12    2
    59     4     3    2
    60     7     8    1
    61     7     6    1
    62    12    11    1
    63     5     6    1
    64     5     2    1
    65     8     9    1
    66     3     2    1
    67     2     1    1
    68    10    11    1
    69    43    44    1
    70    43    49    1
    71    11    14    1
    72    44    45    1
    73    44    47    1
    74    49    48    1
    75    45    46    2
    76    14    15    1
    77    48    47    1
    78    15    16   ar
    79    15    17   ar
    80    16    18   ar
    81    17    20   ar
    82    17    19   ar
    83    20    22   ar
    84    18    19   ar
    85    19    21   ar
    86    22    23   ar
    87    21    23   ar
