@<TRIPOS>MOLECULE
tmp/3l4uA03.pdb
 107 102 0 0 0
SMALL
GASTEIGER

@<TRIPOS>ATOM
      1  N        -25.0430   -2.9550  -28.9850 N.3   382  MET382     -0.1230
      2  CA       -24.4830   -2.5840  -30.2710 C.3   382  MET382      0.1702
      3  C        -24.3750   -3.7410  -31.2500 C.2   382  MET382      0.2592
      4  O        -24.0780   -3.5200  -32.4100 O.2   382  MET382     -0.2718
      5  CB       -23.1300   -1.9130  -30.0800 C.3   382  MET382      0.0401
      6  CG       -23.2070   -0.7420  -29.1500 C.3   382  MET382      0.0596
      7  SD       -21.6180    0.0770  -28.9870 S.3   382  MET382     -0.1393
      8  CE       -21.4800    0.8330  -30.5940 C.3   382  MET382      0.0692
      9  N        -24.6270   -4.9660  -30.7900 N.am  383  LYS383     -0.1980
     10  CA       -24.6830   -6.1210  -31.6820 C.3   383  LYS383      0.1596
     11  C        -23.3260   -6.3550  -32.3960 C.2   383  LYS383      0.2287
     12  O        -23.2790   -6.6150  -33.5920 O.2   383  LYS383     -0.2864
     13  CB       -25.8390   -5.9580  -32.6980 C.3   383  LYS383      0.0298
     14  CG       -27.1920   -5.7890  -32.0040 C.3   383  LYS383      0.0038
     15  CD       -28.3090   -5.5160  -32.9850 C.3   383  LYS383      0.0206
     16  CE       -29.6380   -5.3290  -32.2280 C.3   383  LYS383      0.1093
     17  NZ       -29.7920   -6.3860  -31.1730 N.3   383  LYS383     -0.1314
     18  N        -20.9570   -8.7490  -31.5380 N.3   385  TRP385     -0.1241
     19  CA       -20.3730  -10.0970  -31.3400 C.3   385  TRP385      0.1605
     20  C        -20.1860  -10.9010  -32.6290 C.2   385  TRP385      0.2264
     21  O        -20.8890  -10.6760  -33.6360 O.2   385  TRP385     -0.2867
     22  CB       -21.1730  -10.9110  -30.3210 C.3   385  TRP385      0.0550
     23  CG       -21.5830  -10.1620  -29.0930 C.ar  385  TRP385      0.0003
     24  CD1      -22.8680   -9.9480  -28.6560 C.ar  385  TRP385      0.0946
     25  CD2      -20.7170   -9.5550  -28.1230 C.ar  385  TRP385      0.0152
     26  NE1      -22.8470   -9.2270  -27.4660 N.ar  385  TRP385     -0.2442
     27  CE2      -21.5390   -8.9770  -27.1260 C.ar  385  TRP385      0.0810
     28  CE3      -19.3170   -9.4360  -28.0050 C.ar  385  TRP385      0.0012
     29  CZ2      -21.0140   -8.3080  -26.0230 C.ar  385  TRP385      0.0191
     30  CZ3      -18.7920   -8.7500  -26.9170 C.ar  385  TRP385      0.0001
     31  CH2      -19.6410   -8.1890  -25.9370 C.ar  385  TRP385      0.0015
     32  N        -21.0180  -14.0280  -34.6620 N.3   387  ASN387     -0.1240
     33  CA       -22.2700  -14.8250  -34.6440 C.3   387  ASN387      0.1653
     34  C        -22.0260  -16.2480  -35.0860 C.2   387  ASN387      0.2266
     35  O        -21.0730  -16.5030  -35.7970 O.2   387  ASN387     -0.2867
     36  CB       -23.2870  -14.2090  -35.6030 C.3   387  ASN387      0.1155
     37  CG       -23.8120  -12.8690  -35.1230 C.2   387  ASN387      0.2627
     38  OD1      -23.7420  -12.5390  -33.9380 O.2   387  ASN387     -0.2716
     39  ND2      -24.3520  -12.0990  -36.0570 N.am  387  ASN387     -0.0877
     40  N        -26.0170  -16.6120  -38.6200 N.3   391  GLY391     -0.1210
     41  CA       -25.8570  -15.2070  -38.9810 C.3   391  GLY391      0.1956
     42  C        -26.4890  -14.2570  -37.9800 C.2   391  GLY391      0.2611
     43  O        -26.4380  -13.0510  -38.1630 O.2   391  GLY391     -0.2717
     44  N        -27.1080  -14.7680  -36.9180 N.am  392  VAL392     -0.1979
     45  CA       -27.8220  -13.8500  -36.0160 C.3   392  VAL392      0.1595
     46  C        -27.6130  -14.0620  -34.5230 C.2   392  VAL392      0.2287
     47  O        -27.8490  -13.1450  -33.7350 O.2   392  VAL392     -0.2864
     48  CB       -29.3590  -13.7630  -36.3150 C.3   392  VAL392      0.0276
     49  CG1      -29.5980  -13.0670  -37.6320 C.3   392  VAL392      0.0022
     50  CG2      -30.0000  -15.1310  -36.2910 C.3   392  VAL392      0.0022
     51  N        -25.1700  -14.6480  -31.3660 N.3   394  PRO394     -0.2116
     52  CA       -23.7740  -14.5730  -30.9220 C.3   394  PRO394      0.1372
     53  C        -23.2510  -15.9500  -30.5330 C.2   394  PRO394      0.2244
     54  O        -23.9620  -16.7280  -29.8620 O.2   394  PRO394     -0.2868
     55  CB       -23.8360  -13.6220  -29.7140 C.3   394  PRO394      0.0268
     56  CG       -25.0080  -12.7260  -30.0210 C.3   394  PRO394      0.0207
     57  CD       -26.0210  -13.6730  -30.6470 C.3   394  PRO394      0.0892
     58  N        -16.4400   -8.9090  -32.5300 N.3   408  ASP408     -0.1239
     59  CA       -16.0970   -8.9520  -33.9340 C.3   408  ASP408      0.1674
     60  C        -15.3250   -7.6720  -34.2590 C.2   408  ASP408      0.2266
     61  O        -15.9090   -6.6840  -34.6240 O.2   408  ASP408     -0.2867
     62  CB       -17.3500   -9.0680  -34.8260 C.3   408  ASP408      0.1410
     63  CG       -17.0310   -8.9170  -36.3040 C.2   408  ASP408      0.3668
     64  OD1      -15.8310   -8.9650  -36.7000 O.co2 408  ASP408     -0.2456
     65  OD2      -17.9740   -8.7180  -37.0780 O.co2 408  ASP408     -0.2456
     66  N        -15.7460   -5.3550  -37.4180 N.3   411  ASN411     -0.1240
     67  CA       -16.8840   -4.4390  -37.5180 C.3   411  ASN411      0.1653
     68  C        -16.4380   -3.1000  -36.9350 C.2   411  ASN411      0.2266
     69  O        -16.1060   -3.0180  -35.7560 O.2   411  ASN411     -0.2867
     70  CB       -18.0740   -5.0450  -36.7400 C.3   411  ASN411      0.1155
     71  CG       -19.3320   -4.1820  -36.7660 C.2   411  ASN411      0.2627
     72  OD1      -19.2830   -3.0140  -37.1070 O.2   411  ASN411     -0.2716
     73  ND2      -20.4740   -4.7760  -36.3960 N.am  411  ASN411     -0.0877
     74  N        -17.9760   -0.5840  -35.9490 N.3   413  ASN413     -0.1240
     75  CA       -18.7950   -0.3390  -34.7580 C.3   413  ASN413      0.1653
     76  C        -18.2330   -1.0110  -33.5190 C.2   413  ASN413      0.2266
     77  O        -18.4460   -0.5540  -32.3900 O.2   413  ASN413     -0.2867
     78  CB       -20.2140   -0.8590  -34.9710 C.3   413  ASN413      0.1155
     79  CG       -21.0270    0.0310  -35.8530 C.2   413  ASN413      0.2627
     80  OD1      -20.7720    1.2310  -35.9420 O.2   413  ASN413     -0.2716
     81  ND2      -22.0260   -0.5400  -36.5060 N.am  413  ASN413     -0.0877
     82  N        -19.4950  -16.2460  -38.1690 N.3   481  VAL481     -0.1231
     83  CA       -19.7220  -15.1600  -39.1070 C.3   481  VAL481      0.1692
     84  C        -19.3010  -13.8000  -38.4790 C.2   481  VAL481      0.2592
     85  O        -19.6100  -13.5100  -37.3160 O.2   481  VAL481     -0.2718
     86  CB       -21.2170  -15.2820  -39.6110 C.3   481  VAL481      0.0266
     87  CG1      -21.9240  -13.9700  -39.7210 C.3   481  VAL481      0.0020
     88  CG2      -21.2440  -16.0790  -40.9120 C.3   481  VAL481      0.0020
     89  N        -18.5060  -13.0330  -39.2390 N.am  482  GLN482     -0.1966
     90  CA       -18.0200  -11.6980  -38.8600 C.3   482  GLN482      0.1733
     91  C        -18.2080  -10.7310  -40.0250 C.2   482  GLN482      0.2616
     92  O        -18.5030  -11.1380  -41.1500 O.2   482  GLN482     -0.2715
     93  CB       -16.5250  -11.7560  -38.5420 C.3   482  GLN482      0.0408
     94  CG       -16.2320  -12.3130  -37.1370 C.3   482  GLN482      0.0908
     95  CD       -14.7240  -12.3700  -36.8000 C.2   482  GLN482      0.2608
     96  OE1      -14.1300  -11.4110  -36.3020 O.2   482  GLN482     -0.2717
     97  NE2      -14.1340  -13.5070  -37.0390 N.am  482  GLN482     -0.0878
     98  N        -18.0070   -9.4580  -39.7570 N.am  483  HIS483     -0.1973
     99  CA       -18.1470   -8.4490  -40.7830 C.3   483  HIS483      0.1656
    100  C        -17.2710   -8.7590  -42.0120 C.2   483  HIS483      0.2291
    101  O        -17.7590   -8.7020  -43.1280 O.2   483  HIS483     -0.2864
    102  CB       -17.8520   -7.0780  -40.1780 C.3   483  HIS483      0.0771
    103  CG       -18.1970   -5.9420  -41.0740 C.ar  483  HIS483      0.0820
    104  ND1      -17.2540   -5.0660  -41.5620 N.ar  483  HIS483     -0.2267
    105  CD2      -19.3820   -5.5430  -41.5860 C.ar  483  HIS483      0.1154
    106  CE1      -17.8440   -4.1680  -42.3310 C.ar  483  HIS483      0.1986
    107  NE2      -19.1360   -4.4350  -42.3630 N.ar  483  HIS483     -0.2212
@<TRIPOS>BOND
     1   101   100    2
     2   107   106   ar
     3   107   105   ar
     4   106   104   ar
     5   100    99    1
     6   105   103   ar
     7   104   103   ar
     8    92    91    2
     9   103   102    1
    10    88    86    1
    11    99   102    1
    12    99    98    1
    13    91    98   am
    14    91    90    1
    15    87    86    1
    16    86    83    1
    17    89    90    1
    18    89    84   am
    19    83    84    1
    20    83    82    1
    21    41    40    1
    22    41    42    1
    23    90    93    1
    24    93    94    1
    25    84    85    2
    26    43    42    2
    27    42    44   am
    28    49    48    1
    29    67    66    1
    30    67    68    1
    31    67    70    1
    32    94    95    1
    33    72    71    2
    34    65    63   ar
    35    97    95   am
    36    68    69    2
    37    44    45    1
    38    95    96    2
    39    71    70    1
    40    71    73   am
    41    64    63   ar
    42    81    79   am
    43    48    50    1
    44    48    45    1
    45    63    62    1
    46    39    37   am
    47    45    46    1
    48    74    75    1
    49    80    79    2
    50    79    78    1
    51    35    34    2
    52    36    37    1
    53    36    33    1
    54    37    38    2
    55    34    33    1
    56    78    75    1
    57    62    59    1
    58    75    76    1
    59    32    33    1
    60    61    60    2
    61    46    47    2
    62    60    59    1
    63    59    58    1
    64    21    20    2
    65    12    11    2
    66    76    77    2
    67    15    16    1
    68    15    14    1
    69    13    14    1
    70    13    10    1
    71    20    19    1
    72     4     3    2
    73    11    10    1
    74    16    17    1
    75    10     9    1
    76    18    19    1
    77    51    52    1
    78    51    57    1
    79    19    22    1
    80     3     9   am
    81     3     2    1
    82    52    53    1
    83    52    55    1
    84    57    56    1
    85     8     7    1
    86    53    54    2
    87    22    23    1
    88     2     5    1
    89     2     1    1
    90     5     6    1
    91    56    55    1
    92     6     7    1
    93    23    24   ar
    94    23    25   ar
    95    24    26   ar
    96    25    28   ar
    97    25    27   ar
    98    28    30   ar
    99    26    27   ar
   100    27    29   ar
   101    30    31   ar
   102    29    31   ar
