@<TRIPOS>MOLECULE
tmp/3l4uA01.pdb
 77 74 0 0 0
SMALL
GASTEIGER

@<TRIPOS>ATOM
      1  N         12.6820   -2.1790   -7.0120 N.3   309  ARG309     -0.1245
      2  CA        13.0610   -0.7700   -6.8350 C.3   309  ARG309      0.1563
      3  C         14.1420   -0.5660   -5.7560 C.2   309  ARG309      0.2260
      4  O         15.0840    0.2340   -5.9300 O.2   309  ARG309     -0.2867
      5  CB        11.8320    0.0940   -6.4940 C.3   309  ARG309      0.0307
      6  CG        10.8270    0.1830   -7.6380 C.3   309  ARG309      0.0489
      7  CD         9.7790    1.2650   -7.4020 C.3   309  ARG309      0.2205
      8  NE        10.4180    2.5610   -7.3670 N.pl3 309  ARG309     -0.0865
      9  CZ        10.5430    3.3190   -6.2810 C.cat 309  ARG309      0.5346
     10  NH1       10.0510    2.9180   -5.1090 N.pl3 309  ARG309      0.1354
     11  NH2       11.1410    4.4970   -6.3780 N.pl3 309  ARG309      0.1354
     12  N          6.8690    7.1790   -9.1930 N.3   351  ASN351     -0.1240
     13  CA         8.2200    6.6190   -9.2480 C.3   351  ASN351      0.1653
     14  C          8.7730    6.5030  -10.6780 C.2   351  ASN351      0.2266
     15  O          9.8250    5.8930  -10.9110 O.2   351  ASN351     -0.2867
     16  CB         8.2460    5.2720   -8.5440 C.3   351  ASN351      0.1155
     17  CG         8.0030    5.3930   -7.0290 C.2   351  ASN351      0.2627
     18  OD1        7.2320    4.6510   -6.4710 O.2   351  ASN351     -0.2716
     19  ND2        8.6670    6.3300   -6.3850 N.am  351  ASN351     -0.0877
     20  N         23.7620    8.5880  -19.8650 N.3   733  GLN733     -0.1231
     21  CA        24.0030    8.0370  -18.5700 C.3   733  GLN733      0.1683
     22  C         22.6990    7.4110  -18.0620 C.2   733  GLN733      0.2434
     23  O         21.6260    8.0520  -18.1380 O.2   733  GLN733     -0.2733
     24  CB        24.4570    9.1620  -17.6210 C.3   733  GLN733      0.0380
     25  CG        24.7460    8.6850  -16.2040 C.3   733  GLN733      0.0905
     26  CD        24.8710    9.8560  -15.2390 C.2   733  GLN733      0.2608
     27  OE1       25.0870   10.9790  -15.6840 O.2   733  GLN733     -0.2717
     28  NE2       24.6970    9.6030  -13.9100 N.am  733  GLN733     -0.0878
     29  N         22.7720    6.1660  -17.5690 N.am  734  PRO734     -0.2718
     30  CA        21.5040    5.4830  -17.2420 C.3   734  PRO734      0.1535
     31  C         20.8960    5.9590  -15.9070 C.2   734  PRO734      0.2599
     32  O         21.5790    6.5570  -15.0770 O.2   734  PRO734     -0.2715
     33  CB        21.9110    4.0210  -17.1690 C.3   734  PRO734      0.0310
     34  CG        23.3430    4.0370  -16.7420 C.3   734  PRO734      0.0237
     35  CD        23.9420    5.3060  -17.3430 C.3   734  PRO734      0.0939
     36  N         19.6050    5.6730  -15.7320 N.am  735  ASN735     -0.1959
     37  CA        18.9450    5.8030  -14.4220 C.3   735  ASN735      0.1819
     38  C         17.9570    4.6370  -14.3750 C.2   735  ASN735      0.2622
     39  O         17.8260    3.8850  -15.3620 O.2   735  ASN735     -0.2715
     40  CB        18.2480    7.1550  -14.3080 C.3   735  ASN735      0.1195
     41  CG        18.0700    7.6290  -12.8380 C.2   735  ASN735      0.2630
     42  OD1       18.1330    6.8360  -11.8960 O.2   735  ASN735     -0.2716
     43  ND2       17.8900    8.9400  -12.6660 N.am  735  ASN735     -0.0877
     44  N         17.2870    4.4400  -13.2420 N.am  736  THR736     -0.1937
     45  CA        16.3870    3.2700  -13.0950 C.3   736  THR736      0.2028
     46  C         15.0750    3.3670  -13.8900 C.2   736  THR736      0.2642
     47  O         14.2900    2.3860  -13.9350 O.2   736  THR736     -0.2714
     48  CB        16.0210    3.0880  -11.6160 C.3   736  THR736      0.1808
     49  OG1       15.3750    4.2900  -11.1880 O.3   736  THR736     -0.2208
     50  CG2       17.2810    2.8400  -10.7690 C.3   736  THR736      0.0379
     51  N         14.7970    4.5320  -14.4710 N.am  737  THR737     -0.1950
     52  CA        13.6450    4.7140  -15.3830 C.3   737  THR737      0.1897
     53  C         14.0750    5.5810  -16.5620 C.2   737  THR737      0.2313
     54  O         14.9850    6.4200  -16.4320 O.2   737  THR737     -0.2863
     55  CB        12.4080    5.4100  -14.7160 C.3   737  THR737      0.1794
     56  OG1       12.7310    6.7770  -14.4120 O.3   737  THR737     -0.2208
     57  CG2       12.0170    4.7030  -13.4300 C.3   737  THR737      0.0378
     58  N         13.5280    9.4640  -16.1010 N.3   740  ALA740     -0.1245
     59  CA        14.6840   10.1570  -15.5820 C.3   740  ALA740      0.1562
     60  C         15.9040   10.0620  -16.5020 C.2   740  ALA740      0.2260
     61  O         16.6310   11.0370  -16.6440 O.2   740  ALA740     -0.2867
     62  CB        15.0380    9.6470  -14.1920 C.3   740  ALA740      0.0290
     63  N         19.4740   12.9620  -18.6650 N.3   744  ASN744     -0.1226
     64  CA        20.9060   12.8670  -18.2550 C.3   744  ASN744      0.1770
     65  C         21.8890   13.2910  -19.3740 C.2   744  ASN744      0.2439
     66  O         21.4940   13.3690  -20.5220 O.2   744  ASN744     -0.2733
     67  CB        21.2870   11.4570  -17.8110 C.3   744  ASN744      0.1168
     68  CG        20.8990   11.1530  -16.3780 C.2   744  ASN744      0.2627
     69  OD1       20.5810   12.0490  -15.5810 O.2   744  ASN744     -0.2716
     70  ND2       20.9040    9.8780  -16.0420 N.am  744  ASN744     -0.0877
     71  N         23.1670   13.5660  -19.0190 N.am  745  PRO745     -0.2729
     72  CA        24.2350   13.8190  -19.9980 C.3   745  PRO745      0.1401
     73  C         24.3140   12.7170  -21.0700 C.2   745  PRO745      0.2269
     74  O         24.2120   11.5250  -20.7570 O.2   745  PRO745     -0.2865
     75  CB        25.4960   13.7330  -19.1490 C.3   745  PRO745      0.0296
     76  CG        25.0780   14.2040  -17.7820 C.3   745  PRO745      0.0237
     77  CD        23.6620   13.6940  -17.6250 C.3   745  PRO745      0.0939
@<TRIPOS>BOND
     1    73    74    2
     2    73    72    1
     3    66    65    2
     4    72    75    1
     5    72    71    1
     6    20    21    1
     7    65    71   am
     8    65    64    1
     9    75    76    1
    10    71    77    1
    11    63    64    1
    12    21    22    1
    13    21    24    1
    14    64    67    1
    15    23    22    2
    16    22    29   am
    17    67    68    1
    18    76    77    1
    19    24    25    1
    20    29    35    1
    21    29    30    1
    22    35    34    1
    23    30    33    1
    24    30    31    1
    25    33    34    1
    26    61    60    2
    27    53    54    2
    28    53    52    1
    29    60    59    1
    30    68    70   am
    31    68    69    2
    32    25    26    1
    33    58    59    1
    34    31    36   am
    35    31    32    2
    36    36    37    1
    37    27    26    2
    38    59    62    1
    39    52    55    1
    40    52    51    1
    41    39    38    2
    42    26    28   am
    43    55    56    1
    44    55    57    1
    45    51    46   am
    46    37    38    1
    47    37    40    1
    48    38    44   am
    49    40    41    1
    50    47    46    2
    51    46    45    1
    52    44    45    1
    53    45    48    1
    54    41    43   am
    55    41    42    2
    56    48    49    1
    57    48    50    1
    58    15    14    2
    59    14    13    1
    60    13    12    1
    61    13    16    1
    62    16    17    1
    63     6     7    1
    64     6     5    1
    65     7     8    1
    66     8     9    2
    67    17    18    2
    68    17    19   am
    69     1     2    1
    70     2     5    1
    71     2     3    1
    72    11     9    1
    73     9    10    1
    74     4     3    2
