@<TRIPOS>MOLECULE
tmp/3l4uA00.pdb
 195 190 0 0 0
SMALL
GASTEIGER

@<TRIPOS>ATOM
      1  N         -2.9350  -20.3750  -33.5620 N.3   196  ARG196     -0.1231
      2  CA        -3.3660  -21.3560  -32.5350 C.3   196  ARG196      0.1694
      3  C         -2.6870  -21.0880  -31.1880 C.2   196  ARG196      0.2592
      4  O         -1.4790  -20.7830  -31.1020 O.2   196  ARG196     -0.2718
      5  CB        -3.0910  -22.7890  -33.0530 C.3   196  ARG196      0.0321
      6  CG        -3.1180  -23.8710  -31.9900 C.3   196  ARG196      0.0489
      7  CD        -4.5610  -24.1470  -31.5110 C.3   196  ARG196      0.2205
      8  NE        -4.5120  -25.0650  -30.3520 N.pl3 196  ARG196     -0.0865
      9  CZ        -4.6520  -26.3840  -30.4410 C.cat 196  ARG196      0.5346
     10  NH1       -4.8480  -26.9660  -31.6360 N.pl3 196  ARG196      0.1354
     11  NH2       -4.6020  -27.1290  -29.3350 N.pl3 196  ARG196      0.1354
     12  N         -3.4940  -21.1520  -30.1280 N.am  197  ASP197     -0.1960
     13  CA        -2.9680  -21.1230  -28.7740 C.3   197  ASP197      0.1840
     14  C         -2.3410  -22.4700  -28.5010 C.2   197  ASP197      0.2623
     15  O         -3.0400  -23.4390  -28.2270 O.2   197  ASP197     -0.2715
     16  CB        -4.1230  -20.8510  -27.8030 C.3   197  ASP197      0.1450
     17  CG        -3.6970  -20.8240  -26.3350 C.2   197  ASP197      0.3671
     18  OD1       -2.5370  -21.1980  -25.9950 O.co2 197  ASP197     -0.2456
     19  OD2       -4.5830  -20.4390  -25.5250 O.co2 197  ASP197     -0.2456
     20  N         -1.0240  -22.5540  -28.6310 N.am  198  THR198     -0.1937
     21  CA        -0.3060  -23.7580  -28.2290 C.3   198  THR198      0.2028
     22  C          1.0750  -23.4120  -27.7260 C.2   198  THR198      0.2642
     23  O          1.5370  -22.3050  -27.9310 O.2   198  THR198     -0.2714
     24  CB        -0.1220  -24.7700  -29.3400 C.3   198  THR198      0.1808
     25  OG1        0.5430  -24.1700  -30.4350 O.3   198  THR198     -0.2208
     26  CG2       -1.4490  -25.3260  -29.8020 C.3   198  THR198      0.0379
     27  N          1.7200  -24.3600  -27.0500 N.am  199  THR199     -0.1950
     28  CA         3.0480  -24.1180  -26.4880 C.3   199  THR199      0.1897
     29  C          4.1210  -24.0660  -27.5660 C.2   199  THR199      0.2313
     30  O          4.2370  -24.9850  -28.3680 O.2   199  THR199     -0.2863
     31  CB         3.4290  -25.2650  -25.5570 C.3   199  THR199      0.1794
     32  OG1        2.3260  -25.5080  -24.6810 O.3   199  THR199     -0.2208
     33  CG2        4.6910  -24.9220  -24.7700 C.3   199  THR199      0.0378
     34  N          1.8610  -14.0470  -13.9600 N.3   293  TYR293     -0.1241
     35  CA         0.4980  -14.4890  -13.8680 C.3   293  TYR293      0.1605
     36  C          0.3250  -14.8570  -12.3800 C.2   293  TYR293      0.2264
     37  O          1.0800  -15.6470  -11.8280 O.2   293  TYR293     -0.2867
     38  CB         0.3650  -15.7160  -14.7890 C.3   293  TYR293      0.0534
     39  CG        -0.9760  -16.4140  -14.8400 C.ar  293  TYR293     -0.0201
     40  CD1       -1.0800  -17.7000  -15.4210 C.ar  293  TYR293     -0.0009
     41  CD2       -2.1390  -15.8170  -14.3500 C.ar  293  TYR293     -0.0009
     42  CE1       -2.2980  -18.3680  -15.4900 C.ar  293  TYR293      0.0417
     43  CE2       -3.3920  -16.4940  -14.4240 C.ar  293  TYR293      0.0417
     44  CZ        -3.4400  -17.7660  -14.9780 C.ar  293  TYR293      0.1957
     45  OH        -4.6350  -18.4440  -15.0580 O.3   293  TYR293     -0.2866
     46  N         -1.5790   -8.9740  -14.7980 N.3   321  ASP321     -0.1225
     47  CA        -2.1790  -10.1250  -15.4860 C.3   321  ASP321      0.1805
     48  C         -3.6390  -10.3200  -14.9760 C.2   321  ASP321      0.2597
     49  O         -4.1680   -9.4500  -14.2450 O.2   321  ASP321     -0.2718
     50  CB        -1.2620  -11.3590  -15.2700 C.3   321  ASP321      0.1424
     51  CG        -1.4280  -12.4400  -16.3460 C.2   321  ASP321      0.3668
     52  OD1       -2.5510  -12.6030  -16.9050 O.co2 321  ASP321     -0.2456
     53  OD2       -0.4260  -13.1570  -16.6280 O.co2 321  ASP321     -0.2456
     54  N         -4.3170  -11.4060  -15.3700 N.am  322  ILE322     -0.1980
     55  CA        -5.7540  -11.4650  -15.1680 C.3   322  ILE322      0.1595
     56  C         -6.1480  -11.4950  -13.6810 C.2   322  ILE322      0.2287
     57  O         -7.3300  -11.3130  -13.3640 O.2   322  ILE322     -0.2864
     58  CB        -6.4490  -12.6680  -15.9310 C.3   322  ILE322      0.0276
     59  CG1       -5.8630  -14.0140  -15.5050 C.3   322  ILE322      0.0022
     60  CG2       -6.3780  -12.4630  -17.4460 C.3   322  ILE322      0.0022
     61  CD1       -6.5130  -15.2500  -16.2320 C.3   322  ILE322      0.0001
     62  N         -3.3560   -6.4150  -18.9020 N.3   358  ILE358     -0.1245
     63  CA        -3.7980   -7.4550  -19.8370 C.3   358  ILE358      0.1561
     64  C         -5.2870   -7.2200  -20.0840 C.2   358  ILE358      0.2260
     65  O         -6.0210   -6.8160  -19.1480 O.2   358  ILE358     -0.2867
     66  CB        -3.5050   -8.9000  -19.3310 C.3   358  ILE358      0.0252
     67  CG1       -3.5680   -9.9070  -20.5040 C.3   358  ILE358      0.0019
     68  CG2       -4.5320   -9.3500  -18.2200 C.3   358  ILE358      0.0019
     69  CD1       -3.0070  -11.2980  -20.1340 C.3   358  ILE358      0.0001
     70  N         -8.3440   -9.3970  -22.4060 N.3   360  ASP360     -0.1239
     71  CA        -8.6450  -10.5390  -23.2690 C.3   360  ASP360      0.1674
     72  C         -9.8030  -10.1630  -24.2030 C.2   360  ASP360      0.2266
     73  O        -10.5770   -9.2610  -23.8890 O.2   360  ASP360     -0.2867
     74  CB        -9.0240  -11.7310  -22.4110 C.3   360  ASP360      0.1410
     75  CG        -7.9100  -12.1550  -21.4820 C.2   360  ASP360      0.3668
     76  OD1       -6.7980  -12.4690  -21.9650 O.co2 360  ASP360     -0.2456
     77  OD2       -8.1600  -12.1820  -20.2530 O.co2 360  ASP360     -0.2456
     78  N        -11.5240  -17.4630  -19.7530 N.3   400  TRP400     -0.1241
     79  CA       -11.2170  -17.2750  -18.3270 C.3   400  TRP400      0.1605
     80  C        -12.4020  -17.0280  -17.3720 C.2   400  TRP400      0.2264
     81  O        -12.4130  -17.5820  -16.2720 O.2   400  TRP400     -0.2867
     82  CB       -10.2030  -16.1600  -18.1370 C.3   400  TRP400      0.0550
     83  CG        -8.8510  -16.3790  -18.8250 C.ar  400  TRP400      0.0003
     84  CD1       -8.2990  -15.6050  -19.8080 C.ar  400  TRP400      0.0946
     85  CD2       -7.9010  -17.4060  -18.5410 C.ar  400  TRP400      0.0152
     86  NE1       -7.0260  -16.0710  -20.1310 N.ar  400  TRP400     -0.2442
     87  CE2       -6.7750  -17.1930  -19.3930 C.ar  400  TRP400      0.0810
     88  CE3       -7.8820  -18.4920  -17.6500 C.ar  400  TRP400      0.0012
     89  CZ2       -5.6580  -18.0360  -19.3920 C.ar  400  TRP400      0.0191
     90  CZ3       -6.7740  -19.3470  -17.6610 C.ar  400  TRP400      0.0001
     91  CH2       -5.6620  -19.0980  -18.5280 C.ar  400  TRP400      0.0015
     92  N         -1.9680   -4.9620  -23.0520 N.3   435  TRP435     -0.1241
     93  CA        -1.4540   -6.2520  -23.4590 C.3   435  TRP435      0.1605
     94  C         -2.6780   -7.0950  -23.8760 C.2   435  TRP435      0.2264
     95  O         -3.5320   -7.4480  -23.0380 O.2   435  TRP435     -0.2867
     96  CB        -0.6490   -6.8070  -22.2810 C.3   435  TRP435      0.0550
     97  CG        -0.2960   -8.2290  -22.2830 C.ar  435  TRP435      0.0003
     98  CD1       -0.1810   -9.0720  -23.3750 C.ar  435  TRP435      0.0946
     99  CD2        0.0470   -9.0060  -21.1310 C.ar  435  TRP435      0.0152
    100  NE1        0.1980  -10.3320  -22.9400 N.ar  435  TRP435     -0.2442
    101  CE2        0.3260  -10.3150  -21.5720 C.ar  435  TRP435      0.0810
    102  CE3        0.1380   -8.7160  -19.7470 C.ar  435  TRP435      0.0012
    103  CZ2        0.7020  -11.3390  -20.6840 C.ar  435  TRP435      0.0191
    104  CZ3        0.4760   -9.7230  -18.8750 C.ar  435  TRP435      0.0001
    105  CH2        0.7590  -11.0240  -19.3470 C.ar  435  TRP435      0.0015
    106  N         -4.1750  -10.4800  -25.2030 N.3   437  ASP437     -0.1225
    107  CA        -3.8080  -11.8700  -25.1350 C.3   437  ASP437      0.1805
    108  C         -4.9570  -12.7760  -25.6390 C.2   437  ASP437      0.2597
    109  O         -6.0740  -12.3010  -25.8540 O.2   437  ASP437     -0.2718
    110  CB        -3.4700  -12.1950  -23.6600 C.3   437  ASP437      0.1424
    111  CG        -2.8530  -13.5260  -23.4890 C.2   437  ASP437      0.3668
    112  OD1       -2.2240  -14.0390  -24.4480 O.co2 437  ASP437     -0.2456
    113  OD2       -3.0190  -14.0790  -22.3840 O.co2 437  ASP437     -0.2456
    114  N         -4.6720  -14.0610  -25.8460 N.am  438  MET438     -0.1979
    115  CA        -5.7210  -15.0640  -26.1630 C.3   438  MET438      0.1605
    116  C         -6.4810  -14.7080  -27.4160 C.2   438  MET438      0.2287
    117  O         -7.6600  -15.0850  -27.5660 O.2   438  MET438     -0.2864
    118  CB        -6.7360  -15.1620  -24.9980 C.3   438  MET438      0.0413
    119  CG        -6.1220  -15.4040  -23.6650 C.3   438  MET438      0.0598
    120  SD        -5.2950  -16.9660  -23.5180 S.3   438  MET438     -0.1393
    121  CE        -6.6870  -18.0940  -23.3090 C.3   438  MET438      0.0692
    122  N        -11.6280  -22.3180  -24.8400 N.3   444  PHE444     -0.1241
    123  CA       -11.3610  -23.4820  -23.9960 C.3   444  PHE444      0.1605
    124  C        -12.2060  -24.6890  -24.4270 C.2   444  PHE444      0.2264
    125  O        -11.9530  -25.8140  -23.9980 O.2   444  PHE444     -0.2867
    126  CB       -11.6110  -23.1520  -22.5110 C.3   444  PHE444      0.0534
    127  CG       -10.6040  -22.1550  -21.9020 C.ar  444  PHE444     -0.0203
    128  CD1      -10.8300  -21.6130  -20.6430 C.ar  444  PHE444     -0.0042
    129  CD2       -9.4290  -21.8080  -22.5760 C.ar  444  PHE444     -0.0042
    130  CE1       -9.9070  -20.7250  -20.0640 C.ar  444  PHE444     -0.0003
    131  CE2       -8.5160  -20.8880  -22.0250 C.ar  444  PHE444     -0.0003
    132  CZ        -8.7540  -20.3790  -20.7410 C.ar  444  PHE444     -0.0000
    133  N         -9.7520  -25.6850  -30.1210 N.3   474  LYS474     -0.1245
    134  CA        -9.4070  -24.5660  -29.1980 C.3   474  LYS474      0.1561
    135  C         -9.5700  -23.1840  -29.8310 C.2   474  LYS474      0.2260
    136  O         -8.8460  -22.2230  -29.4960 O.2   474  LYS474     -0.2867
    137  CB        -7.9980  -24.7210  -28.6100 C.3   474  LYS474      0.0271
    138  CG        -7.7590  -25.9850  -27.7610 C.3   474  LYS474      0.0035
    139  CD        -8.8100  -26.2560  -26.7120 C.3   474  LYS474      0.0206
    140  CE        -8.6420  -27.7360  -26.2030 C.3   474  LYS474      0.1093
    141  NZ        -9.9840  -28.4540  -26.0550 N.3   474  LYS474     -0.1314
    142  N         -0.4330  -11.0890  -28.7990 N.3   520  ARG520     -0.1245
    143  CA         0.0060  -12.4720  -28.9580 C.3   520  ARG520      0.1563
    144  C         -0.1630  -12.8970  -30.4320 C.2   520  ARG520      0.2260
    145  O          0.8100  -13.2500  -31.1220 O.2   520  ARG520     -0.2867
    146  CB        -0.7710  -13.4270  -28.0370 C.3   520  ARG520      0.0307
    147  CG        -0.0590  -14.7950  -27.9180 C.3   520  ARG520      0.0489
    148  CD        -0.4900  -15.5460  -26.6660 C.3   520  ARG520      0.2205
    149  NE        -1.7510  -16.2230  -26.9460 N.pl3 520  ARG520     -0.0865
    150  CZ        -2.3610  -17.0270  -26.0930 C.cat 520  ARG520      0.5346
    151  NH1       -1.8450  -17.1800  -24.8720 N.pl3 520  ARG520      0.1354
    152  NH2       -3.4940  -17.6390  -26.4550 N.pl3 520  ARG520      0.1354
    153  N          5.1660  -10.7280  -28.0770 N.3   533  TRP533     -0.1241
    154  CA         6.0460  -11.6470  -27.3420 C.3   533  TRP533      0.1605
    155  C          5.8410  -13.0920  -27.7990 C.2   533  TRP533      0.2264
    156  O          4.7860  -13.4550  -28.3440 O.2   533  TRP533     -0.2867
    157  CB         5.9520  -11.4840  -25.8070 C.3   533  TRP533      0.0550
    158  CG         4.8850  -12.3480  -25.1260 C.ar  533  TRP533      0.0003
    159  CD1        5.0950  -13.4220  -24.2850 C.ar  533  TRP533      0.0946
    160  CD2        3.4730  -12.2110  -25.2540 C.ar  533  TRP533      0.0152
    161  NE1        3.8710  -13.9340  -23.8570 N.ar  533  TRP533     -0.2442
    162  CE2        2.8700  -13.2010  -24.4340 C.ar  533  TRP533      0.0810
    163  CE3        2.6440  -11.3070  -25.9470 C.ar  533  TRP533      0.0012
    164  CZ2        1.4670  -13.3510  -24.3310 C.ar  533  TRP533      0.0191
    165  CZ3        1.2490  -11.4440  -25.8270 C.ar  533  TRP533      0.0001
    166  CH2        0.6770  -12.4780  -25.0350 C.ar  533  TRP533      0.0015
    167  N          3.9240  -18.6200  -24.4200 N.3   536  ASP536     -0.1239
    168  CA         4.0720  -19.4090  -23.1990 C.3   536  ASP536      0.1674
    169  C          5.2390  -20.3960  -23.2980 C.2   536  ASP536      0.2266
    170  O          5.0520  -21.5950  -23.4210 O.2   536  ASP536     -0.2867
    171  CB         2.7880  -20.2070  -22.9110 C.3   536  ASP536      0.1410
    172  CG         1.5590  -19.3270  -22.7130 C.2   536  ASP536      0.3668
    173  OD1        1.7060  -18.0970  -22.5080 O.co2 536  ASP536     -0.2456
    174  OD2        0.4280  -19.8980  -22.7500 O.co2 536  ASP536     -0.2456
    175  N          8.2890  -18.8480  -18.8690 N.3   569  PHE569     -0.1241
    176  CA         6.9270  -18.8010  -18.3440 C.3   569  PHE569      0.1605
    177  C          6.6260  -20.0210  -17.4680 C.2   569  PHE569      0.2264
    178  O          6.5560  -19.8730  -16.2460 O.2   569  PHE569     -0.2867
    179  CB         5.9230  -18.6560  -19.5030 C.3   569  PHE569      0.0534
    180  CG         4.4660  -18.5920  -19.0760 C.ar  569  PHE569     -0.0203
    181  CD1        3.9470  -17.4670  -18.4540 C.ar  569  PHE569     -0.0042
    182  CD2        3.6130  -19.6640  -19.3300 C.ar  569  PHE569     -0.0042
    183  CE1        2.6130  -17.4090  -18.0930 C.ar  569  PHE569     -0.0003
    184  CE2        2.2640  -19.6190  -18.9320 C.ar  569  PHE569     -0.0003
    185  CZ         1.7770  -18.4970  -18.3190 C.ar  569  PHE569     -0.0000
    186  N          8.6250  -12.5820  -17.3850 N.3   594  HIS594     -0.1241
    187  CA         7.2440  -12.9520  -17.0630 C.3   594  HIS594      0.1621
    188  C          7.2420  -14.4300  -16.6150 C.2   594  HIS594      0.2264
    189  O          8.0920  -15.2130  -17.0350 O.2   594  HIS594     -0.2867
    190  CB         6.3580  -12.6700  -18.2820 C.3   594  HIS594      0.0745
    191  CG         4.9200  -13.0910  -18.1390 C.ar  594  HIS594      0.0817
    192  ND1        4.0980  -12.6300  -17.1430 N.ar  594  HIS594     -0.2268
    193  CD2        4.1530  -13.8840  -18.9210 C.ar  594  HIS594      0.1154
    194  CE1        2.8840  -13.1330  -17.3000 C.ar  594  HIS594      0.1986
    195  NE2        2.8950  -13.9120  -18.3680 N.ar  594  HIS594     -0.2212
@<TRIPOS>BOND
     1     1     2    1
     2     5     2    1
     3     5     6    1
     4     2     3    1
     5     6     7    1
     6    10     9    1
     7     7     8    1
     8     3     4    2
     9     3    12   am
    10   145   144    2
    11     9     8    2
    12     9    11    1
    13    25    24    1
    14   144   143    1
    15    12    13    1
    16   133   134    1
    17   135   136    2
    18   135   134    1
    19    26    24    1
    20    24    21    1
    21   134   137    1
    22   143   142    1
    23   143   146    1
    24    13    14    1
    25    13    16    1
    26    20    14   am
    27    20    21    1
    28   137   138    1
    29    14    15    2
    30    30    29    2
    31   156   155    2
    32    21    22    1
    33   153   154    1
    34   146   147    1
    35    23    22    2
    36   147   148    1
    37    16    17    1
    38   155   154    1
    39   138   139    1
    40    22    27   am
    41    29    28    1
    42   117   116    2
    43   116   115    1
    44   154   157    1
    45    27    28    1
    46   149   148    1
    47   149   150    2
    48   139   140    1
    49    28    31    1
    50   152   150    1
    51    17    18   ar
    52    17    19   ar
    53   140   141    1
    54   115   114    1
    55   115   118    1
    56   150   151    1
    57   163   165   ar
    58   163   160   ar
    59   109   108    2
    60   114   108   am
    61   165   166   ar
    62   157   158    1
    63   108   107    1
    64    31    33    1
    65    31    32    1
    66   160   158   ar
    67   160   162   ar
    68   106   107    1
    69   107   110    1
    70   158   159   ar
    71   166   164   ar
    72   118   119    1
    73   122   123    1
    74   112   111   ar
    75   162   164   ar
    76   162   161   ar
    77   124   125    2
    78   124   123    1
    79   167   168    1
    80   159   161   ar
    81    72    73    2
    82    72    71    1
    83   123   126    1
    84    94    93    1
    85    94    95    2
    86   119   120    1
    87   110   111    1
    88   120   121    1
    89   111   113   ar
    90    93    92    1
    91    93    96    1
    92   170   169    2
    93    98   100   ar
    94    98    97   ar
    95   169   168    1
    96    71    74    1
    97    71    70    1
    98   168   171    1
    99   100   101   ar
   100   171   172    1
   101   174   172   ar
   102   172   173   ar
   103   129   131   ar
   104   129   127   ar
   105   126   127    1
   106    74    75    1
   107    97    96    1
   108    97    99   ar
   109   131   132   ar
   110    76    75   ar
   111   127   128   ar
   112   101    99   ar
   113   101   103   ar
   114    75    77   ar
   115    99   102   ar
   116   132   130   ar
   117   103   105   ar
   118   128   130   ar
   119    67    69    1
   120    67    66    1
   121    86    84   ar
   122    86    87   ar
   123    64    63    1
   124    64    65    2
   125    63    66    1
   126    63    62    1
   127    84    83   ar
   128    78    79    1
   129   102   104   ar
   130   179   180    1
   131   179   176    1
   132    87    89   ar
   133    87    85   ar
   134    89    91   ar
   135   105   104   ar
   136    66    68    1
   137   182   180   ar
   138   182   184   ar
   139   180   181   ar
   140   184   185   ar
   141   193   195   ar
   142   193   191   ar
   143   175   176    1
   144    83    85   ar
   145    83    82    1
   146    85    88   ar
   147    91    90   ar
   148   181   183   ar
   149   195   194   ar
   150   176   177    1
   151    79    82    1
   152    79    80    1
   153   185   183   ar
   154   190   191    1
   155   190   187    1
   156   191   192   ar
   157    90    88   ar
   158   177   178    2
   159    60    58    1
   160   186   187    1
   161    80    81    2
   162   194   192   ar
   163   187   188    1
   164   189   188    2
   165    52    51   ar
   166    53    51   ar
   167    51    50    1
   168    61    59    1
   169    58    59    1
   170    58    55    1
   171    42    40   ar
   172    42    44   ar
   173    47    50    1
   174    47    48    1
   175    47    46    1
   176    40    39   ar
   177    54    55    1
   178    54    48   am
   179    55    56    1
   180    45    44    1
   181    44    43   ar
   182    48    49    2
   183    39    38    1
   184    39    41   ar
   185    38    35    1
   186    43    41   ar
   187    34    35    1
   188    35    36    1
   189    56    57    2
   190    36    37    2
