@<TRIPOS>MOLECULE
tmp/3l4wA00.pdb
 161 157 0 0 0
SMALL
GASTEIGER

@<TRIPOS>ATOM
      1  N         43.6200   87.4790   25.0830 N.3   197  ASP197     -0.1239
      2  CA        44.1250   87.4310   26.4420 C.3   197  ASP197      0.1674
      3  C         44.7510   86.0560   26.7080 C.2   197  ASP197      0.2266
      4  O         44.0460   85.0750   26.9670 O.2   197  ASP197     -0.2867
      5  CB        42.9710   87.6940   27.4160 C.3   197  ASP197      0.1410
      6  CG        43.4330   87.8440   28.8460 C.2   197  ASP197      0.3668
      7  OD1       44.6200   87.5650   29.1420 O.co2 197  ASP197     -0.2456
      8  OD2       42.5950   88.2790   29.6850 O.co2 197  ASP197     -0.2456
      9  N         48.8830   94.2720   41.1580 N.3   293  TYR293     -0.1241
     10  CA        47.5320   93.7630   41.1870 C.3   293  TYR293      0.1605
     11  C         47.2470   93.3780   42.6430 C.2   293  TYR293      0.2264
     12  O         47.9480   92.5450   43.2290 O.2   293  TYR293     -0.2867
     13  CB        47.4290   92.5830   40.2340 C.3   293  TYR293      0.0534
     14  CG        46.0590   91.9400   40.0730 C.ar  293  TYR293     -0.0201
     15  CD1       45.9390   90.7610   39.3730 C.ar  293  TYR293     -0.0009
     16  CD2       44.9000   92.4980   40.6260 C.ar  293  TYR293     -0.0009
     17  CE1       44.7240   90.1310   39.2100 C.ar  293  TYR293      0.0417
     18  CE2       43.6500   91.8540   40.4720 C.ar  293  TYR293      0.0417
     19  CZ        43.5910   90.6710   39.7720 C.ar  293  TYR293      0.1957
     20  OH        42.4000   90.0100   39.5630 O.3   293  TYR293     -0.2866
     21  N         45.5130   99.3980   40.2880 N.3   321  ASP321     -0.1225
     22  CA        44.9050   98.3150   39.5660 C.3   321  ASP321      0.1805
     23  C         43.4560   98.1680   40.0630 C.2   321  ASP321      0.2597
     24  O         42.9610   99.0240   40.8060 O.2   321  ASP321     -0.2718
     25  CB        45.7740   97.0640   39.7800 C.3   321  ASP321      0.1424
     26  CG        45.6400   96.0410   38.6700 C.2   321  ASP321      0.3668
     27  OD1       44.5790   95.9810   38.0280 O.co2 321  ASP321     -0.2456
     28  OD2       46.6060   95.2670   38.4670 O.co2 321  ASP321     -0.2456
     29  N         42.7580   97.1150   39.6430 N.am  322  ILE322     -0.1980
     30  CA        41.3170   97.0330   39.8340 C.3   322  ILE322      0.1595
     31  C         40.8510   96.9900   41.2970 C.2   322  ILE322      0.2287
     32  O         39.6730   97.2580   41.5720 O.2   322  ILE322     -0.2864
     33  CB        40.6550   95.8500   39.0500 C.3   322  ILE322      0.0276
     34  CG1       41.3130   94.5050   39.4000 C.3   322  ILE322      0.0022
     35  CG2       40.6250   96.1170   37.5080 C.3   322  ILE322      0.0022
     36  CD1       40.5560   93.3020   38.7210 C.3   322  ILE322      0.0001
     37  N         43.7460  102.0730   36.3070 N.3   358  ILE358     -0.1245
     38  CA        43.3380  101.1060   35.3350 C.3   358  ILE358      0.1561
     39  C         41.8740  101.3430   35.0400 C.2   358  ILE358      0.2260
     40  O         41.1010  101.7920   35.9220 O.2   358  ILE358     -0.2867
     41  CB        43.5980   99.6470   35.7860 C.3   358  ILE358      0.0252
     42  CG1       43.6300   98.6980   34.5690 C.3   358  ILE358      0.0019
     43  CG2       42.5340   99.1680   36.8100 C.3   358  ILE358      0.0019
     44  CD1       44.0580   97.2520   34.9230 C.3   358  ILE358      0.0001
     45  N         38.7670   99.2650   32.5740 N.3   360  ASP360     -0.1239
     46  CA        38.4490   98.1310   31.7330 C.3   360  ASP360      0.1674
     47  C         37.3570   98.5680   30.7540 C.2   360  ASP360      0.2266
     48  O         36.6040   99.4800   31.0550 O.2   360  ASP360     -0.2867
     49  CB        37.9640   96.9530   32.6020 C.3   360  ASP360      0.1410
     50  CG        39.0720   96.3680   33.4760 C.2   360  ASP360      0.3668
     51  OD1       40.1700   96.1320   32.9740 O.co2 360  ASP360     -0.2456
     52  OD2       38.8470   96.1330   34.6800 O.co2 360  ASP360     -0.2456
     53  N         34.9420   91.2640   35.2880 N.3   400  TRP400     -0.1241
     54  CA        35.2040   91.4120   36.7300 C.3   400  TRP400      0.1605
     55  C         33.9790   91.7580   37.5980 C.2   400  TRP400      0.2264
     56  O         33.8100   91.1910   38.6760 O.2   400  TRP400     -0.2867
     57  CB        36.3610   92.3910   37.0010 C.3   400  TRP400      0.0550
     58  CG        37.6940   91.7990   36.6840 C.ar  400  TRP400      0.0003
     59  CD1       38.6220   92.2670   35.7790 C.ar  400  TRP400      0.0946
     60  CD2       38.2580   90.6080   37.2590 C.ar  400  TRP400      0.0152
     61  NE1       39.7290   91.4380   35.7720 N.ar  400  TRP400     -0.2442
     62  CE2       39.5290   90.4180   36.6700 C.ar  400  TRP400      0.0810
     63  CE3       37.8110   89.6810   38.2220 C.ar  400  TRP400      0.0012
     64  CZ2       40.3570   89.3440   37.0160 C.ar  400  TRP400      0.0191
     65  CZ3       38.6330   88.6090   38.5580 C.ar  400  TRP400      0.0001
     66  CH2       39.8880   88.4490   37.9530 C.ar  400  TRP400      0.0015
     67  N         45.3270  103.5630   32.2180 N.3   435  TRP435     -0.1241
     68  CA        45.7920  102.2470   31.8210 C.3   435  TRP435      0.1605
     69  C         44.5930  101.4110   31.3520 C.2   435  TRP435      0.2264
     70  O         43.7030  101.0520   32.1460 O.2   435  TRP435     -0.2867
     71  CB        46.5130  101.6610   33.0450 C.3   435  TRP435      0.0550
     72  CG        46.8960  100.2230   33.0220 C.ar  435  TRP435      0.0003
     73  CD1       47.0190   99.4210   31.9360 C.ar  435  TRP435      0.0946
     74  CD2       47.2490   99.4210   34.1610 C.ar  435  TRP435      0.0152
     75  NE1       47.4120   98.1540   32.3150 N.ar  435  TRP435     -0.2442
     76  CE2       47.5690   98.1260   33.6760 C.ar  435  TRP435      0.0810
     77  CE3       47.3230   99.6670   35.5380 C.ar  435  TRP435      0.0012
     78  CZ2       47.9450   97.0700   34.5240 C.ar  435  TRP435      0.0191
     79  CZ3       47.7020   98.6050   36.3950 C.ar  435  TRP435      0.0001
     80  CH2       48.0110   97.3330   35.8770 C.ar  435  TRP435      0.0015
     81  N         43.0580   98.1220   30.0850 N.3   437  ASP437     -0.1225
     82  CA        43.3700   96.7050   30.1450 C.3   437  ASP437      0.1805
     83  C         42.2510   95.9220   29.4940 C.2   437  ASP437      0.2597
     84  O         41.2130   96.5000   29.1800 O.2   437  ASP437     -0.2718
     85  CB        43.4310   96.3170   31.6150 C.3   437  ASP437      0.1424
     86  CG        44.0540   94.9540   31.8490 C.2   437  ASP437      0.3668
     87  OD1       44.8270   94.4510   30.9970 O.co2 437  ASP437     -0.2456
     88  OD2       43.7740   94.4040   32.9340 O.co2 437  ASP437     -0.2456
     89  N         42.5000   94.6240   29.2710 N.am  438  MET438     -0.1979
     90  CA        41.4680   93.6550   28.8610 C.3   438  MET438      0.1605
     91  C         40.7210   94.0490   27.5850 C.2   438  MET438      0.2287
     92  O         39.5450   93.6970   27.4040 O.2   438  MET438     -0.2864
     93  CB        40.4760   93.4330   30.0150 C.3   438  MET438      0.0413
     94  CG        41.1130   93.0110   31.3240 C.3   438  MET438      0.0598
     95  SD        41.3980   91.2360   31.4130 S.3   438  MET438     -0.1393
     96  CE        39.7220   90.6200   31.4580 C.3   438  MET438      0.0692
     97  N         35.0420   86.6810   30.1170 N.3   444  PHE444     -0.1241
     98  CA        35.2370   85.4690   30.9310 C.3   444  PHE444      0.1605
     99  C         34.3690   84.3270   30.4130 C.2   444  PHE444      0.2264
    100  O         34.5870   83.1670   30.7520 O.2   444  PHE444     -0.2867
    101  CB        35.0070   85.7130   32.4290 C.3   444  PHE444      0.0534
    102  CG        36.0480   86.6060   33.0830 C.ar  444  PHE444     -0.0203
    103  CD1       37.2690   86.8610   32.4670 C.ar  444  PHE444     -0.0042
    104  CD2       35.8030   87.1670   34.3290 C.ar  444  PHE444     -0.0042
    105  CE1       38.2320   87.6860   33.0780 C.ar  444  PHE444     -0.0003
    106  CE2       36.7550   87.9930   34.9390 C.ar  444  PHE444     -0.0003
    107  CZ        37.9680   88.2500   34.3180 C.ar  444  PHE444     -0.0000
    108  N         46.8680   97.3970   26.4270 N.3   520  ARG520     -0.1245
    109  CA        47.3050   96.0150   26.2560 C.3   520  ARG520      0.1563
    110  C         47.1410   95.5780   24.8190 C.2   520  ARG520      0.2260
    111  O         48.0840   95.1560   24.1820 O.2   520  ARG520     -0.2867
    112  CB        46.5670   95.0440   27.2100 C.3   520  ARG520      0.0307
    113  CG        47.3640   93.7450   27.4600 C.3   520  ARG520      0.0489
    114  CD        46.7870   92.9160   28.6330 C.3   520  ARG520      0.2205
    115  NE        45.4830   92.3510   28.2880 N.pl3 520  ARG520     -0.0865
    116  CZ        44.8650   91.4360   29.0380 C.cat 520  ARG520      0.5346
    117  NH1       45.4550   91.0120   30.1430 N.pl3 520  ARG520      0.1354
    118  NH2       43.6880   90.9390   28.6790 N.pl3 520  ARG520      0.1354
    119  N         52.4940   97.5030   27.3130 N.3   533  TRP533     -0.1241
    120  CA        53.3390   96.6520   28.1470 C.3   533  TRP533      0.1605
    121  C         53.1550   95.2420   27.6830 C.2   533  TRP533      0.2264
    122  O         52.1080   94.9120   27.0970 O.2   533  TRP533     -0.2867
    123  CB        53.0860   96.8510   29.6480 C.3   533  TRP533      0.0550
    124  CG        52.0110   95.9880   30.2410 C.ar  533  TRP533      0.0003
    125  CD1       52.2020   94.8960   31.0200 C.ar  533  TRP533      0.0946
    126  CD2       50.6010   96.1520   30.1140 C.ar  533  TRP533      0.0152
    127  NE1       51.0010   94.3390   31.3780 N.ar  533  TRP533     -0.2442
    128  CE2       49.9910   95.0990   30.8450 C.ar  533  TRP533      0.0810
    129  CE3       49.7850   97.0840   29.4590 C.ar  533  TRP533      0.0012
    130  CZ2       48.5970   94.9520   30.9450 C.ar  533  TRP533      0.0191
    131  CZ3       48.4020   96.9370   29.5460 C.ar  533  TRP533      0.0001
    132  CH2       47.8160   95.8680   30.2930 C.ar  533  TRP533      0.0015
    133  N         51.1090   89.6550   30.8500 N.3   536  ASP536     -0.1239
    134  CA        51.2450   88.8800   32.0770 C.3   536  ASP536      0.1674
    135  C         52.3230   87.8330   31.9200 C.2   536  ASP536      0.2266
    136  O         52.0260   86.6590   31.6810 O.2   536  ASP536     -0.2867
    137  CB        49.9210   88.2010   32.4510 C.3   536  ASP536      0.1410
    138  CG        48.7980   89.1980   32.6510 C.2   536  ASP536      0.3668
    139  OD1       49.1200   90.3960   32.8600 O.co2 536  ASP536     -0.2456
    140  OD2       47.6150   88.7920   32.5590 O.co2 536  ASP536     -0.2456
    141  N         55.2610   89.2340   36.4330 N.3   569  PHE569     -0.1241
    142  CA        53.9180   89.4510   36.9630 C.3   569  PHE569      0.1605
    143  C         53.5220   88.2070   37.7970 C.2   569  PHE569      0.2264
    144  O         53.3530   88.3240   39.0080 O.2   569  PHE569     -0.2867
    145  CB        52.9740   89.7200   35.8090 C.3   569  PHE569      0.0534
    146  CG        51.5260   89.7630   36.1650 C.ar  569  PHE569     -0.0203
    147  CD1       50.9440   90.9290   36.6660 C.ar  569  PHE569     -0.0042
    148  CD2       50.7200   88.6560   35.9210 C.ar  569  PHE569     -0.0042
    149  CE1       49.5880   90.9780   36.9190 C.ar  569  PHE569     -0.0003
    150  CE2       49.3600   88.6890   36.1890 C.ar  569  PHE569     -0.0003
    151  CZ        48.8010   89.8540   36.6740 C.ar  569  PHE569     -0.0000
    152  N         55.5970   95.6910   38.0480 N.3   594  HIS594     -0.1241
    153  CA        54.1950   95.3150   38.2530 C.3   594  HIS594      0.1621
    154  C         54.1910   93.8530   38.7150 C.2   594  HIS594      0.2264
    155  O         55.0860   93.0940   38.3530 O.2   594  HIS594     -0.2867
    156  CB        53.4270   95.4980   36.9480 C.3   594  HIS594      0.0745
    157  CG        51.9670   95.1790   37.0430 C.ar  594  HIS594      0.0817
    158  ND1       51.1650   95.6290   38.0730 N.ar  594  HIS594     -0.2268
    159  CD2       51.1590   94.4760   36.2190 C.ar  594  HIS594      0.1154
    160  CE1       49.9320   95.2010   37.8860 C.ar  594  HIS594      0.1986
    161  NE2       49.8980   94.5090   36.7600 N.ar  594  HIS594     -0.2212
@<TRIPOS>BOND
     1   111   110    2
     2   110   109    1
     3     1     2    1
     4   109   108    1
     5   109   112    1
     6     2     3    1
     7     2     5    1
     8     3     4    2
     9   122   121    2
    10   112   113    1
    11   119   120    1
    12    92    91    2
    13     5     6    1
    14   113   114    1
    15    91    90    1
    16   121   120    1
    17   120   123    1
    18   115   114    1
    19   115   116    2
    20   118   116    1
    21     6     7   ar
    22     6     8   ar
    23    90    89    1
    24    90    93    1
    25   116   117    1
    26    84    83    2
    27    89    83   am
    28   129   131   ar
    29   129   126   ar
    30    83    82    1
    31   131   132   ar
    32   123   124    1
    33    93    94    1
    34    81    82    1
    35   126   124   ar
    36   126   128   ar
    37    97    98    1
    38    82    85    1
    39   124   125   ar
    40   132   130   ar
    41    99   100    2
    42    99    98    1
    43    47    48    2
    44    47    46    1
    45   128   130   ar
    46   128   127   ar
    47   133   134    1
    48    98   101    1
    49    87    86   ar
    50   125   127   ar
    51    94    95    1
    52    69    68    1
    53    69    70    2
    54    95    96    1
    55    85    86    1
    56   136   135    2
    57    46    45    1
    58    46    49    1
    59    68    67    1
    60    68    71    1
    61    86    88   ar
    62   135   134    1
    63    73    75   ar
    64    73    72   ar
    65   134   137    1
    66    75    76   ar
    67   101   102    1
    68   137   138    1
    69   103   105   ar
    70   103   102   ar
    71   140   138   ar
    72    49    50    1
    73   138   139   ar
    74    51    50   ar
    75    72    71    1
    76    72    74   ar
    77   105   107   ar
    78   102   104   ar
    79    50    52   ar
    80    76    74   ar
    81    76    78   ar
    82    74    77   ar
    83   107   106   ar
    84   104   106   ar
    85    78    80   ar
    86    42    44    1
    87    42    41    1
    88    39    38    1
    89    39    40    2
    90    53    54    1
    91    38    41    1
    92    38    37    1
    93    77    79   ar
    94    61    59   ar
    95    61    62   ar
    96    59    58   ar
    97    41    43    1
    98   145   146    1
    99   145   142    1
   100    80    79   ar
   101   148   146   ar
   102   148   150   ar
   103   146   147   ar
   104   150   151   ar
   105   159   161   ar
   106   159   157   ar
   107   141   142    1
   108   147   149   ar
   109    62    64   ar
   110    62    60   ar
   111   151   149   ar
   112    58    57    1
   113    58    60   ar
   114    54    57    1
   115    54    55    1
   116   161   160   ar
   117   156   157    1
   118   156   153    1
   119   142   143    1
   120    64    66   ar
   121   157   158   ar
   122    60    63   ar
   123    35    33    1
   124    55    56    2
   125   143   144    2
   126   160   158   ar
   127    66    65   ar
   128    27    26   ar
   129   152   153    1
   130    63    65   ar
   131   153   154    1
   132   155   154    2
   133    28    26   ar
   134    26    25    1
   135    36    34    1
   136    33    34    1
   137    33    30    1
   138    17    15   ar
   139    17    19   ar
   140    15    14   ar
   141    20    19    1
   142    22    25    1
   143    22    23    1
   144    22    21    1
   145    29    30    1
   146    29    23   am
   147    19    18   ar
   148    30    31    1
   149    23    24    2
   150    14    13    1
   151    14    16   ar
   152    13    10    1
   153    18    16   ar
   154     9    10    1
   155    10    11    1
   156    31    32    2
   157    11    12    2
