@<TRIPOS>MOLECULE
tmp/3l4xA00.pdb
 185 180 0 0 0
SMALL
GASTEIGER

@<TRIPOS>ATOM
      1  N          3.6530  -20.8420   29.8150 N.3   197  ASP197     -0.1225
      2  CA         3.1340  -20.8830   28.4620 C.3   197  ASP197      0.1805
      3  C          2.5120  -22.2510   28.1860 C.2   197  ASP197      0.2598
      4  O          3.2130  -23.2370   27.9120 O.2   197  ASP197     -0.2718
      5  CB         4.2660  -20.5620   27.4780 C.3   197  ASP197      0.1424
      6  CG         3.8200  -20.5410   26.0400 C.2   197  ASP197      0.3668
      7  OD1        2.6430  -20.8850   25.7340 O.co2 197  ASP197     -0.2456
      8  OD2        4.6680  -20.1540   25.2050 O.co2 197  ASP197     -0.2456
      9  N          1.1920  -22.3320   28.3170 N.am  198  THR198     -0.1939
     10  CA         0.4930  -23.5770   28.0440 C.3   198  THR198      0.2028
     11  C         -0.8810  -23.2580   27.5210 C.2   198  THR198      0.2642
     12  O         -1.3860  -22.1560   27.7440 O.2   198  THR198     -0.2714
     13  CB         0.3410  -24.4760   29.2640 C.3   198  THR198      0.1808
     14  OG1        0.0750  -23.7020   30.4220 O.3   198  THR198     -0.2208
     15  CG2        1.5970  -25.2670   29.5220 C.3   198  THR198      0.0379
     16  N         -1.4940  -24.2200   26.8400 N.am  199  THR199     -0.1950
     17  CA        -2.7890  -23.9710   26.2250 C.3   199  THR199      0.1897
     18  C         -3.8790  -23.8850   27.2990 C.2   199  THR199      0.2313
     19  O         -4.0200  -24.7920   28.1220 O.2   199  THR199     -0.2863
     20  CB        -3.1410  -25.0870   25.2270 C.3   199  THR199      0.1794
     21  OG1       -2.0320  -25.2870   24.3380 O.3   199  THR199     -0.2208
     22  CG2       -4.3690  -24.7030   24.4290 C.3   199  THR199      0.0378
     23  N         -1.6400  -13.8110   13.8240 N.3   293  TYR293     -0.1241
     24  CA        -0.2750  -14.2690   13.7720 C.3   293  TYR293      0.1605
     25  C         -0.0560  -14.6320   12.2930 C.2   293  TYR293      0.2264
     26  O         -0.8020  -15.4300   11.7160 O.2   293  TYR293     -0.2867
     27  CB        -0.1320  -15.4460   14.7380 C.3   293  TYR293      0.0534
     28  CG         1.2240  -16.1300   14.7900 C.ar  293  TYR293     -0.0201
     29  CD1        1.3510  -17.3790   15.4110 C.ar  293  TYR293     -0.0009
     30  CD2        2.3540  -15.5500   14.2360 C.ar  293  TYR293     -0.0009
     31  CE1        2.5860  -18.0410   15.4790 C.ar  293  TYR293      0.0417
     32  CE2        3.6150  -16.2110   14.2980 C.ar  293  TYR293      0.0417
     33  CZ         3.7010  -17.4590   14.9150 C.ar  293  TYR293      0.1957
     34  OH         4.9070  -18.1450   14.9990 O.3   293  TYR293     -0.2866
     35  N          1.7950   -8.7020   14.6900 N.3   321  ASP321     -0.1225
     36  CA         2.4200   -9.8220   15.4230 C.3   321  ASP321      0.1805
     37  C          3.8470   -9.9970   14.8800 C.2   321  ASP321      0.2597
     38  O          4.3360   -9.1380   14.1390 O.2   321  ASP321     -0.2718
     39  CB         1.5890  -11.0890   15.1730 C.3   321  ASP321      0.1424
     40  CG         1.7300  -12.1320   16.2590 C.2   321  ASP321      0.3668
     41  OD1        2.7990  -12.2560   16.9070 O.co2 321  ASP321     -0.2456
     42  OD2        0.7480  -12.8720   16.4350 O.co2 321  ASP321     -0.2456
     43  N          4.5290  -11.0830   15.2370 N.am  322  ILE322     -0.1980
     44  CA         5.9760  -11.1510   14.9730 C.3   322  ILE322      0.1595
     45  C          6.3580  -11.1890   13.5110 C.2   322  ILE322      0.2287
     46  O          7.5410  -10.9750   13.1870 O.2   322  ILE322     -0.2864
     47  CB         6.6660  -12.3300   15.7240 C.3   322  ILE322      0.0276
     48  CG1        5.9990  -13.6780   15.3570 C.3   322  ILE322      0.0022
     49  CG2        6.6530  -12.0410   17.2070 C.3   322  ILE322      0.0022
     50  CD1        6.6630  -14.9100   16.0590 C.3   322  ILE322      0.0001
     51  N          3.5820   -6.1730   18.8150 N.3   358  ILE358     -0.1245
     52  CA         4.0340   -7.1740   19.7560 C.3   358  ILE358      0.1561
     53  C          5.5170   -6.9180   19.9510 C.2   358  ILE358      0.2260
     54  O          6.1950   -6.5830   18.9760 O.2   358  ILE358     -0.2867
     55  CB         3.7710   -8.6220   19.2470 C.3   358  ILE358      0.0252
     56  CG1        3.8930   -9.6380   20.4020 C.3   358  ILE358      0.0019
     57  CG2        4.7300   -9.0410   18.0820 C.3   358  ILE358      0.0019
     58  CD1        3.2340  -10.9920   20.0880 C.3   358  ILE358      0.0001
     59  N         11.6540  -17.0430   19.5060 N.3   400  TRP400     -0.1241
     60  CA        11.3320  -16.8920   18.0970 C.3   400  TRP400      0.1605
     61  C         12.5420  -16.6270   17.1680 C.2   400  TRP400      0.2264
     62  O         12.6180  -17.2300   16.1140 O.2   400  TRP400     -0.2867
     63  CB        10.3420  -15.7560   17.9240 C.3   400  TRP400      0.0550
     64  CG         9.0110  -16.0080   18.6090 C.ar  400  TRP400      0.0003
     65  CD1        8.4180  -15.2190   19.5590 C.ar  400  TRP400      0.0946
     66  CD2        8.1270  -17.1080   18.3930 C.ar  400  TRP400      0.0152
     67  NE1        7.1940  -15.7560   19.9390 N.ar  400  TRP400     -0.2442
     68  CE2        6.9830  -16.9030   19.2270 C.ar  400  TRP400      0.0810
     69  CE3        8.1610  -18.2340   17.5550 C.ar  400  TRP400      0.0012
     70  CZ2        5.9290  -17.8040   19.2820 C.ar  400  TRP400      0.0191
     71  CZ3        7.0760  -19.1340   17.5920 C.ar  400  TRP400      0.0001
     72  CH2        5.9780  -18.9010   18.4550 C.ar  400  TRP400      0.0015
     73  N          2.2070   -4.7220   22.9270 N.3   435  TRP435     -0.1241
     74  CA         1.6600   -5.9860   23.3460 C.3   435  TRP435      0.1605
     75  C          2.8580   -6.8640   23.7620 C.2   435  TRP435      0.2264
     76  O          3.6530   -7.2280   22.9220 O.2   435  TRP435     -0.2867
     77  CB         0.8200   -6.5260   22.1840 C.3   435  TRP435      0.0550
     78  CG         0.5420   -7.9940   22.1520 C.ar  435  TRP435      0.0003
     79  CD1        0.5250   -8.8570   23.2100 C.ar  435  TRP435      0.0946
     80  CD2        0.2220   -8.7590   20.9970 C.ar  435  TRP435      0.0152
     81  NE1        0.2120  -10.1320   22.7780 N.ar  435  TRP435     -0.2442
     82  CE2        0.0260  -10.0960   21.4200 C.ar  435  TRP435      0.0810
     83  CE3        0.0560   -8.4430   19.6290 C.ar  435  TRP435      0.0012
     84  CZ2       -0.3310  -11.1060   20.5360 C.ar  435  TRP435      0.0191
     85  CZ3       -0.2630   -9.4520   18.7570 C.ar  435  TRP435      0.0001
     86  CH2       -0.4400  -10.7730   19.2100 C.ar  435  TRP435      0.0015
     87  N          4.4200  -10.2260   25.1590 N.3   437  ASP437     -0.1225
     88  CA         4.0010  -11.6080   25.0740 C.3   437  ASP437      0.1805
     89  C          5.1760  -12.5110   25.4780 C.2   437  ASP437      0.2597
     90  O          6.2760  -12.0180   25.6720 O.2   437  ASP437     -0.2718
     91  CB         3.5900  -11.8630   23.6260 C.3   437  ASP437      0.1424
     92  CG         2.9930  -13.2050   23.4030 C.2   437  ASP437      0.3668
     93  OD1        2.3420  -13.7370   24.3090 O.co2 437  ASP437     -0.2456
     94  OD2        3.1960  -13.7360   22.2920 O.co2 437  ASP437     -0.2456
     95  N          4.9000  -13.8030   25.6470 N.am  438  MET438     -0.1979
     96  CA         5.9440  -14.8150   25.9130 C.3   438  MET438      0.1605
     97  C          6.6970  -14.4750   27.1890 C.2   438  MET438      0.2287
     98  O          7.8820  -14.8280   27.3480 O.2   438  MET438     -0.2864
     99  CB         6.9410  -14.8290   24.7390 C.3   438  MET438      0.0413
    100  CG         6.3310  -15.1270   23.3950 C.3   438  MET438      0.0598
    101  SD         5.5110  -16.7020   23.2920 S.3   438  MET438     -0.1393
    102  CE         6.9360  -17.7990   23.1520 C.3   438  MET438      0.0692
    103  N         11.8780  -22.0110   24.5820 N.3   444  PHE444     -0.1241
    104  CA        11.6250  -23.1440   23.6920 C.3   444  PHE444      0.1605
    105  C         12.5120  -24.3280   24.0490 C.2   444  PHE444      0.2264
    106  O         12.2850  -25.4390   23.5800 O.2   444  PHE444     -0.2867
    107  CB        11.7930  -22.7760   22.2010 C.3   444  PHE444      0.0534
    108  CG        10.7360  -21.8170   21.6750 C.ar  444  PHE444     -0.0203
    109  CD1        9.5870  -21.5450   22.4170 C.ar  444  PHE444     -0.0042
    110  CD2       10.8740  -21.2300   20.4210 C.ar  444  PHE444     -0.0042
    111  CE1        8.6050  -20.6850   21.9470 C.ar  444  PHE444     -0.0003
    112  CE2        9.8860  -20.3530   19.9390 C.ar  444  PHE444     -0.0003
    113  CZ         8.7510  -20.0920   20.7120 C.ar  444  PHE444     -0.0000
    114  N          9.9030  -25.3820   29.7570 N.3   474  LYS474     -0.1245
    115  CA         9.5460  -24.2390   28.9010 C.3   474  LYS474      0.1561
    116  C          9.7600  -22.8690   29.5470 C.2   474  LYS474      0.2260
    117  O          9.0310  -21.9050   29.2630 O.2   474  LYS474     -0.2867
    118  CB         8.0990  -24.3900   28.3660 C.3   474  LYS474      0.0271
    119  CG         7.8600  -25.6580   27.5290 C.3   474  LYS474      0.0035
    120  CD         8.9190  -25.8990   26.4410 C.3   474  LYS474      0.0206
    121  CE         8.7720  -27.3090   25.8460 C.3   474  LYS474      0.1093
    122  NZ        10.1030  -27.8820   25.4300 N.3   474  LYS474     -0.1314
    123  N          0.6900  -10.9070   28.5850 N.3   520  ARG520     -0.1245
    124  CA         0.2940  -12.3050   28.7890 C.3   520  ARG520      0.1563
    125  C          0.4320  -12.6900   30.2550 C.2   520  ARG520      0.2260
    126  O         -0.5730  -12.9630   30.9220 O.2   520  ARG520     -0.2867
    127  CB         1.0770  -13.2810   27.8840 C.3   520  ARG520      0.0307
    128  CG         0.2810  -14.6120   27.7200 C.3   520  ARG520      0.0489
    129  CD         0.7140  -15.3480   26.5160 C.3   520  ARG520      0.2205
    130  NE         1.9300  -16.0890   26.7860 N.pl3 520  ARG520     -0.0865
    131  CZ         2.6350  -16.7440   25.8720 C.cat 520  ARG520      0.5346
    132  NH1        2.2980  -16.6840   24.5870 N.pl3 520  ARG520      0.1354
    133  NH2        3.7180  -17.4130   26.2470 N.pl3 520  ARG520      0.1354
    134  N         -4.9320  -10.6440   27.9020 N.3   533  TRP533     -0.1241
    135  CA        -5.7870  -11.5450   27.1390 C.3   533  TRP533      0.1605
    136  C         -5.5860  -12.9840   27.5890 C.2   533  TRP533      0.2264
    137  O         -4.5240  -13.3540   28.1120 O.2   533  TRP533     -0.2867
    138  CB        -5.6690  -11.3720   25.5940 C.3   533  TRP533      0.0550
    139  CG        -4.5870  -12.2170   24.9340 C.ar  533  TRP533      0.0003
    140  CD1       -4.7710  -13.2840   24.0910 C.ar  533  TRP533      0.0946
    141  CD2       -3.1760  -12.0330   25.0470 C.ar  533  TRP533      0.0152
    142  NE1       -3.5550  -13.7730   23.6730 N.ar  533  TRP533     -0.2442
    143  CE2       -2.5570  -13.0280   24.2450 C.ar  533  TRP533      0.0810
    144  CE3       -2.3770  -11.1030   25.7200 C.ar  533  TRP533      0.0012
    145  CZ2       -1.1690  -13.1410   24.1200 C.ar  533  TRP533      0.0191
    146  CZ3       -0.9790  -11.2300   25.6160 C.ar  533  TRP533      0.0001
    147  CH2       -0.4030  -12.2490   24.8220 C.ar  533  TRP533      0.0015
    148  N         -3.6550  -18.4340   24.2380 N.3   536  ASP536     -0.1239
    149  CA        -3.7670  -19.2020   22.9910 C.3   536  ASP536      0.1674
    150  C         -4.9090  -20.2090   23.0510 C.2   536  ASP536      0.2266
    151  O         -4.6820  -21.4130   23.1580 O.2   536  ASP536     -0.2867
    152  CB        -2.4510  -19.9520   22.6920 C.3   536  ASP536      0.1410
    153  CG        -1.2700  -19.0180   22.5480 C.2   536  ASP536      0.3668
    154  OD1       -1.4800  -17.8060   22.2700 O.co2 536  ASP536     -0.2456
    155  OD2       -0.1160  -19.5210   22.6720 O.co2 536  ASP536     -0.2456
    156  N         -7.8900  -18.7000   18.6950 N.3   569  PHE569     -0.1241
    157  CA        -6.5300  -18.5670   18.1480 C.3   569  PHE569      0.1605
    158  C         -6.2060  -19.8120   17.3040 C.2   569  PHE569      0.2264
    159  O         -6.1310  -19.7020   16.0810 O.2   569  PHE569     -0.2867
    160  CB        -5.5470  -18.3600   19.2930 C.3   569  PHE569      0.0534
    161  CG        -4.0880  -18.3470   18.8910 C.ar  569  PHE569     -0.0203
    162  CD1       -3.5000  -17.1970   18.3290 C.ar  569  PHE569     -0.0042
    163  CD2       -3.2990  -19.4570   19.1350 C.ar  569  PHE569     -0.0042
    164  CE1       -2.1220  -17.1780   18.0010 C.ar  569  PHE569     -0.0003
    165  CE2       -1.9160  -19.4580   18.7860 C.ar  569  PHE569     -0.0003
    166  CZ        -1.3320  -18.3070   18.2510 C.ar  569  PHE569     -0.0000
    167  N         -8.3040  -12.4130   17.1330 N.3   594  HIS594     -0.1241
    168  CA        -6.9050  -12.7770   16.8490 C.3   594  HIS594      0.1621
    169  C         -6.8630  -14.2510   16.4110 C.2   594  HIS594      0.2264
    170  O         -7.7140  -15.0540   16.8160 O.2   594  HIS594     -0.2867
    171  CB        -6.0610  -12.5100   18.0830 C.3   594  HIS594      0.0745
    172  CG        -4.6180  -12.8960   17.9460 C.ar  594  HIS594      0.0817
    173  ND1       -3.8190  -12.4370   16.9220 N.ar  594  HIS594     -0.2268
    174  CD2       -3.8180  -13.6390   18.7450 C.ar  594  HIS594      0.1154
    175  CE1       -2.5880  -12.9020   17.0780 C.ar  594  HIS594      0.1986
    176  NE2       -2.5590  -13.6340   18.1780 N.ar  594  HIS594     -0.2212
    177  N         -1.2130  -18.9520   13.3810 N.3   597  GLN597     -0.1245
    178  CA        -0.4980  -19.0240   12.1220 C.3   597  GLN597      0.1566
    179  C         -1.1050  -20.0940   11.2410 C.2   597  GLN597      0.2260
    180  O         -1.3610  -21.2030   11.7070 O.2   597  GLN597     -0.2867
    181  CB         0.9610  -19.3840   12.4250 C.3   597  GLN597      0.0367
    182  CG         1.9020  -19.3680   11.2320 C.3   597  GLN597      0.0905
    183  CD         3.3210  -19.8180   11.6230 C.2   597  GLN597      0.2608
    184  OE1        3.5090  -20.6970   12.4740 O.2   597  GLN597     -0.2717
    185  NE2        4.3170  -19.2240   10.9880 N.am  597  GLN597     -0.0878
@<TRIPOS>BOND
     1   185   183   am
     2   182   183    1
     3   182   181    1
     4   179   180    2
     5   179   178    1
     6   183   184    2
     7    26    25    2
     8   178   181    1
     9   178   177    1
    10    25    24    1
    11    46    45    2
    12    45    44    1
    13    24    23    1
    14    24    27    1
    15    38    37    2
    16    30    32   ar
    17    30    28   ar
    18    32    33   ar
    19    35    36    1
    20    27    28    1
    21    28    29   ar
    22    37    43   am
    23    37    36    1
    24    33    34    1
    25    33    31   ar
    26    44    43    1
    27    44    47    1
    28    39    36    1
    29    39    40    1
    30    48    47    1
    31    48    50    1
    32    29    31   ar
    33    47    49    1
    34   159   158    2
    35    62    61    2
    36    40    42   ar
    37    40    41   ar
    38   169   170    2
    39   169   168    1
    40   168   167    1
    41   168   171    1
    42   173   175   ar
    43   173   172   ar
    44   175   176   ar
    45    61    60    1
    46   158   157    1
    47    69    71   ar
    48    69    66   ar
    49    71    72   ar
    50    63    60    1
    51    63    64    1
    52   172   171    1
    53   172   174   ar
    54   164   166   ar
    55   164   162   ar
    56    57    55    1
    57    60    59    1
    58   157   156    1
    59   157   160    1
    60   176   174   ar
    61   166   165   ar
    62   162   161   ar
    63    66    64   ar
    64    66    68   ar
    65    72    70   ar
    66    64    65   ar
    67    85    86   ar
    68    85    83   ar
    69   165   163   ar
    70    51    52    1
    71   161   163   ar
    72   161   160    1
    73    54    53    2
    74    86    84   ar
    75    68    70   ar
    76    68    67   ar
    77    55    52    1
    78    55    56    1
    79    65    67   ar
    80    83    80   ar
    81    52    53    1
    82   112   110   ar
    83   112   113   ar
    84    58    56    1
    85   110   108   ar
    86    84    82   ar
    87   113   111   ar
    88    80    82   ar
    89    80    78   ar
    90    82    81   ar
    91   108   107    1
    92   108   109   ar
    93   111   109   ar
    94    78    77    1
    95    78    79   ar
    96    77    74    1
    97   107   104    1
    98   154   153   ar
    99    94    92   ar
   100   153   155   ar
   101   153   152    1
   102   152   149    1
   103    81    79   ar
   104    76    75    2
   105    73    74    1
   106   149   150    1
   107   149   148    1
   108   150   151    2
   109   102   101    1
   110   101   100    1
   111    74    75    1
   112   100    99    1
   113    92    91    1
   114    92    93   ar
   115   106   105    2
   116    91    88    1
   117   142   140   ar
   118   142   143   ar
   119   104   105    1
   120   104   103    1
   121   140   139   ar
   122   145   143   ar
   123   145   147   ar
   124   143   141   ar
   125    21    20    1
   126    22    20    1
   127   132   131    1
   128    99    96    1
   129   147   146   ar
   130   139   141   ar
   131   139   138    1
   132   141   144   ar
   133    88    87    1
   134    88    89    1
   135     8     6   ar
   136    20    17    1
   137   122   121    1
   138    89    95   am
   139    89    90    2
   140   138   135    1
   141   146   144   ar
   142    95    96    1
   143     7     6   ar
   144   121   120    1
   145   131   133    1
   146   131   130    2
   147    96    97    1
   148     6     5    1
   149    17    16    1
   150    17    18    1
   151   120   119    1
   152   129   130    1
   153   129   128    1
   154    16    11   am
   155   135   136    1
   156   135   134    1
   157    97    98    2
   158    18    19    2
   159     5     2    1
   160    11    12    2
   161    11    10    1
   162   119   118    1
   163   136   137    2
   164   128   127    1
   165   127   124    1
   166     4     3    2
   167    10     9    1
   168    10    13    1
   169     3     9   am
   170     3     2    1
   171   118   115    1
   172     2     1    1
   173   123   124    1
   174   124   125    1
   175   115   116    1
   176   115   114    1
   177   117   116    2
   178    13    15    1
   179    13    14    1
   180   125   126    2
