@<TRIPOS>MOLECULE
tmp/3l54A00.pdb
 192 180 0 0 0
SMALL
GASTEIGER

@<TRIPOS>ATOM
      1  N         20.3890   16.5890   12.5220 N.3   556  MET556     -0.1245
      2  CA        20.7670   17.5540   13.5410 C.3   556  MET556      0.1570
      3  C         21.6560   18.6220   12.9280 C.2   556  MET556      0.2261
      4  O         22.3880   18.3560   11.9770 O.2   556  MET556     -0.2867
      5  CB        21.4930   16.8560   14.6880 C.3   556  MET556      0.0387
      6  CG        20.7540   15.6470   15.2400 C.3   556  MET556      0.0595
      7  SD        21.5950   14.9430   16.6680 S.3   556  MET556     -0.1393
      8  CE        21.4400   16.2790   17.8440 C.3   556  MET556      0.0692
      9  N         24.8030   14.5770   12.1000 N.3   562  PRO562     -0.2116
     10  CA        24.3070   13.3490   12.7310 C.3   562  PRO562      0.1372
     11  C         22.8290   13.1270   12.4490 C.2   562  PRO562      0.2244
     12  O         22.0580   14.0870   12.4390 O.2   562  PRO562     -0.2868
     13  CB        24.4910   13.6230   14.2300 C.3   562  PRO562      0.0268
     14  CG        25.4440   14.7670   14.3130 C.3   562  PRO562      0.0207
     15  CD        25.1900   15.5870   13.0970 C.3   562  PRO562      0.0892
     16  N         19.2880   12.1690   13.6570 N.3   564  TRP564     -0.1241
     17  CA        18.4200   12.0030   14.8100 C.3   564  TRP564      0.1605
     18  C         17.2790   11.0980   14.3700 C.2   564  TRP564      0.2264
     19  O         16.4580   11.4840   13.5390 O.2   564  TRP564     -0.2867
     20  CB        17.8910   13.3690   15.2470 C.3   564  TRP564      0.0550
     21  CG        16.7830   13.3520   16.2660 C.ar  564  TRP564      0.0003
     22  CD1       15.4990   12.9320   16.0780 C.ar  564  TRP564      0.0946
     23  CD2       16.8540   13.8340   17.6130 C.ar  564  TRP564      0.0152
     24  NE1       14.7720   13.1010   17.2320 N.ar  564  TRP564     -0.2442
     25  CE2       15.5820   13.6530   18.1890 C.ar  564  TRP564      0.0810
     26  CE3       17.8760   14.3880   18.3940 C.ar  564  TRP564      0.0012
     27  CZ2       15.3030   14.0050   19.5080 C.ar  564  TRP564      0.0191
     28  CZ3       17.5980   14.7410   19.6990 C.ar  564  TRP564      0.0001
     29  CH2       16.3200   14.5460   20.2460 C.ar  564  TRP564      0.0015
     30  N         20.6700    8.5870   18.0140 N.3   583  ILE583     -0.1245
     31  CA        21.5200    9.4220   17.1800 C.3   583  ILE583      0.1561
     32  C         22.4510    8.5050   16.3920 C.2   583  ILE583      0.2260
     33  O         23.0550    7.5900   16.9510 O.2   583  ILE583     -0.2867
     34  CB        22.3620   10.4030   18.0200 C.3   583  ILE583      0.0252
     35  CG1       21.4700   11.4280   18.7110 C.3   583  ILE583      0.0019
     36  CG2       23.3670   11.1340   17.1540 C.3   583  ILE583      0.0019
     37  CD1       22.2520   12.4860   19.4470 C.3   583  ILE583      0.0001
     38  N         25.7600    8.7000   13.9640 N.3   585  LYS585     -0.1245
     39  CA        26.7940    9.6800   13.6370 C.3   585  LYS585      0.1561
     40  C         28.0390    9.0860   12.9790 C.2   585  LYS585      0.2260
     41  O         28.5520    8.0470   13.4060 O.2   585  LYS585     -0.2867
     42  CB        27.1990   10.4600   14.8940 C.3   585  LYS585      0.0271
     43  CG        28.1480   11.6180   14.6230 C.3   585  LYS585      0.0035
     44  CD        28.6610   12.2450   15.9070 C.3   585  LYS585      0.0206
     45  CE        29.4820   13.4920   15.6080 C.3   585  LYS585      0.1093
     46  NZ        30.1910   14.0350   16.8030 N.3   585  LYS585     -0.1314
     47  N         33.3410   10.4730   14.0830 N.3   588  ASP588     -0.1239
     48  CA        34.0330   10.3260   15.3560 C.3   588  ASP588      0.1674
     49  C         34.4100    8.8720   15.5980 C.2   588  ASP588      0.2266
     50  O         33.7050    7.9580   15.1680 O.2   588  ASP588     -0.2867
     51  CB        33.1730   10.8430   16.5030 C.3   588  ASP588      0.1410
     52  CG        33.1180   12.3570   16.5520 C.2   588  ASP588      0.3668
     53  OD1       33.7980   13.0070   15.7260 O.co2 588  ASP588     -0.2456
     54  OD2       32.4010   12.9000   17.4180 O.co2 588  ASP588     -0.2456
     55  N         33.9420    6.6990   18.0260 N.3   590  LEU590     -0.1245
     56  CA        33.1010    6.5890   19.2110 C.3   590  LEU590      0.1561
     57  C         33.6290    5.6080   20.2540 C.2   590  LEU590      0.2260
     58  O         33.1150    5.5530   21.3670 O.2   590  LEU590     -0.2867
     59  CB        31.6720    6.2240   18.8100 C.3   590  LEU590      0.0270
     60  CG        30.9650    7.2940   17.9830 C.3   590  LEU590      0.0019
     61  CD1       29.5990    6.8100   17.5240 C.3   590  LEU590      0.0001
     62  CD2       30.8500    8.5950   18.7820 C.3   590  LEU590      0.0001
     63  N         34.5500    7.5900   23.3520 N.3   593  ASP593     -0.1239
     64  CA        33.3370    7.8560   24.1070 C.3   593  ASP593      0.1674
     65  C         32.9030    6.6270   24.8980 C.2   593  ASP593      0.2266
     66  O         32.6180    6.7150   26.0910 O.2   593  ASP593     -0.2867
     67  CB        32.2180    8.2770   23.1530 C.3   593  ASP593      0.1410
     68  CG        32.5620    9.5370   22.3720 C.2   593  ASP593      0.3668
     69  OD1       33.5220    9.5150   21.5780 O.co2 593  ASP593     -0.2456
     70  OD2       31.8750   10.5540   22.5650 O.co2 593  ASP593     -0.2456
     71  N         24.8260    7.5380   29.0810 N.3   619  TYR619     -0.1241
     72  CA        23.9860    7.1090   27.9680 C.3   619  TYR619      0.1605
     73  C         24.6440    6.0290   27.1120 C.2   619  TYR619      0.2264
     74  O         25.8720    5.9080   27.0550 O.2   619  TYR619     -0.2867
     75  CB        23.6140    8.3050   27.0950 C.3   619  TYR619      0.0534
     76  CG        24.7960    9.1640   26.7120 C.ar  619  TYR619     -0.0201
     77  CD1       25.4990    8.9310   25.5410 C.ar  619  TYR619     -0.0009
     78  CD2       25.2130   10.2030   27.5290 C.ar  619  TYR619     -0.0009
     79  CE1       26.5850    9.7180   25.1920 C.ar  619  TYR619      0.0417
     80  CE2       26.2950   10.9890   27.1930 C.ar  619  TYR619      0.0417
     81  CZ        26.9760   10.7490   26.0220 C.ar  619  TYR619      0.1957
     82  OH        28.0500   11.5410   25.6890 O.3   619  TYR619     -0.2866
     83  N         24.2640    6.4690   19.3160 N.3   631  ILE631     -0.1231
     84  CA        24.2560    7.0800   20.6320 C.3   631  ILE631      0.1692
     85  C         22.8190    7.1320   21.1190 C.2   631  ILE631      0.2592
     86  O         21.9120    7.4330   20.3440 O.2   631  ILE631     -0.2718
     87  CB        24.8260    8.5070   20.5700 C.3   631  ILE631      0.0266
     88  CG1       26.2480    8.4830   19.9920 C.3   631  ILE631      0.0019
     89  CG2       24.7960    9.1570   21.9450 C.3   631  ILE631      0.0020
     90  CD1       26.7860    9.8370   19.6170 C.3   631  ILE631      0.0001
     91  N         22.6110    6.8200   22.3940 N.am  632  GLU632     -0.1966
     92  CA        21.2750    6.8630   22.9840 C.3   632  GLU632      0.1733
     93  C         20.7900    8.2980   23.1500 C.2   632  GLU632      0.2616
     94  O         21.4970    9.1420   23.7050 O.2   632  GLU632     -0.2715
     95  CB        21.2560    6.1630   24.3450 C.3   632  GLU632      0.0429
     96  CG        19.9690    6.3790   25.1340 C.3   632  GLU632      0.1163
     97  CD        20.0370    5.8410   26.5550 C.2   632  GLU632      0.3649
     98  OE1       19.0320    5.9700   27.2800 O.co2 632  GLU632     -0.2457
     99  OE2       21.0880    5.2950   26.9560 O.co2 632  GLU632     -0.2457
    100  N         19.5860    8.5720   22.6600 N.am  633  ILE633     -0.1963
    101  CA        18.9390    9.8460   22.9210 C.3   633  ILE633      0.1727
    102  C         18.2540    9.7910   24.2780 C.2   633  ILE633      0.2616
    103  O         17.3610    8.9750   24.4950 O.2   633  ILE633     -0.2715
    104  CB        17.8910   10.1820   21.8480 C.3   633  ILE633      0.0290
    105  CG1       18.5740   10.5090   20.5210 C.3   633  ILE633      0.0022
    106  CG2       17.0210   11.3530   22.2930 C.3   633  ILE633      0.0023
    107  CD1       17.6170   10.5510   19.3640 C.3   633  ILE633      0.0001
    108  N         18.6870   10.6470   25.1950 N.am  634  VAL634     -0.1977
    109  CA        18.0620   10.7310   26.5060 C.3   634  VAL634      0.1596
    110  C         16.8110   11.5990   26.4420 C.2   634  VAL634      0.2287
    111  O         16.8420   12.7110   25.9100 O.2   634  VAL634     -0.2864
    112  CB        19.0240   11.3040   27.5570 C.3   634  VAL634      0.0276
    113  CG1       18.3030   11.4920   28.8870 C.3   634  VAL634      0.0022
    114  CG2       20.2300   10.3960   27.7150 C.3   634  VAL634      0.0022
    115  N         15.5580   16.1260   27.4440 N.3   637  ALA637     -0.1245
    116  CA        16.8490   16.7590   27.6770 C.3   637  ALA637      0.1562
    117  C         17.1280   17.9250   26.7330 C.2   637  ALA637      0.2260
    118  O         16.8620   17.8550   25.5330 O.2   637  ALA637     -0.2867
    119  CB        17.9720   15.7180   27.5960 C.3   637  ALA637      0.0290
    120  N         20.2260   21.2360   26.0580 N.3   639  THR639     -0.1218
    121  CA        21.5890   21.6570   26.3270 C.3   639  THR639      0.1862
    122  C         21.6140   22.9280   27.1700 C.2   639  THR639      0.2287
    123  O         20.7970   23.8280   26.9750 O.2   639  THR639     -0.2866
    124  CB        22.3390   21.8980   25.0080 C.3   639  THR639      0.1770
    125  OG1       22.7180   20.6360   24.4470 O.3   639  THR639     -0.2211
    126  CG2       23.5790   22.7340   25.2360 C.3   639  THR639      0.0375
    127  N         21.5350   25.9630   25.0460 N.3   642  LYS642     -0.1245
    128  CA        20.2340   26.2870   24.4740 C.3   642  LYS642      0.1561
    129  C         19.2960   26.8710   25.5260 C.2   642  LYS642      0.2260
    130  O         18.5830   27.8440   25.2680 O.2   642  LYS642     -0.2867
    131  CB        19.6200   25.0570   23.8020 C.3   642  LYS642      0.0271
    132  CG        20.5170   24.4790   22.7150 C.3   642  LYS642      0.0035
    133  CD        19.8660   23.3370   21.9540 C.3   642  LYS642      0.0206
    134  CE        20.8080   22.8080   20.8790 C.3   642  LYS642      0.1093
    135  NZ        20.2220   21.6820   20.0970 N.3   642  LYS642     -0.1314
    136  N         27.6700   24.0000   25.7220 N.3   702  ASP702     -0.1239
    137  CA        26.9000   23.3830   24.6530 C.3   702  ASP702      0.1674
    138  C         27.0510   21.8650   24.7080 C.2   702  ASP702      0.2266
    139  O         26.2290   21.1340   24.1570 O.2   702  ASP702     -0.2867
    140  CB        27.3290   23.9190   23.2890 C.3   702  ASP702      0.1410
    141  CG        26.3180   23.6110   22.1960 C.2   702  ASP702      0.3668
    142  OD1       25.1200   23.4480   22.5200 O.co2 702  ASP702     -0.2456
    143  OD2       26.7240   23.5380   21.0140 O.co2 702  ASP702     -0.2456
    144  N         24.3890   18.8470   29.1130 N.3   705  MET705     -0.1245
    145  CA        22.9420   18.8190   29.0170 C.3   705  MET705      0.1570
    146  C         22.2890   18.7050   30.3770 C.2   705  MET705      0.2261
    147  O         22.9530   18.4850   31.3900 O.2   705  MET705     -0.2867
    148  CB        22.4890   17.6660   28.1350 C.3   705  MET705      0.0387
    149  CG        23.0830   17.6930   26.7470 C.3   705  MET705      0.0595
    150  SD        22.2750   16.4720   25.7180 S.3   705  MET705     -0.1393
    151  CE        20.7840   17.3650   25.2960 C.3   705  MET705      0.0692
    152  N         24.2560   16.1240   32.8400 N.3   713  PHE713     -0.1241
    153  CA        25.1940   15.1480   32.2850 C.3   713  PHE713      0.1605
    154  C         26.0260   15.7180   31.1400 C.2   713  PHE713      0.2264
    155  O         25.5390   16.5150   30.3340 O.2   713  PHE713     -0.2867
    156  CB        24.4790   13.8540   31.8540 C.3   713  PHE713      0.0534
    157  CG        23.4740   14.0390   30.7410 C.ar  713  PHE713     -0.0203
    158  CD1       23.7530   13.5980   29.4550 C.ar  713  PHE713     -0.0042
    159  CD2       22.2430   14.6210   30.9860 C.ar  713  PHE713     -0.0042
    160  CE1       22.8320   13.7540   28.4280 C.ar  713  PHE713     -0.0003
    161  CE2       21.3140   14.7830   29.9640 C.ar  713  PHE713     -0.0003
    162  CZ        21.6110   14.3510   28.6830 C.ar  713  PHE713     -0.0000
    163  N         28.1560   15.4220   27.5880 N.3   715  ILE715     -0.1231
    164  CA        28.0360   14.6820   26.3340 C.3   715  ILE715      0.1692
    165  C         29.2140   15.0440   25.4360 C.2   715  ILE715      0.2592
    166  O         30.0640   15.8390   25.8300 O.2   715  ILE715     -0.2718
    167  CB        26.7230   15.0200   25.5980 C.3   715  ILE715      0.0266
    168  CG1       26.7210   16.4870   25.1480 C.3   715  ILE715      0.0019
    169  CG2       25.5220   14.7120   26.4790 C.3   715  ILE715      0.0020
    170  CD1       25.4540   16.9220   24.4320 C.3   715  ILE715      0.0001
    171  N         29.2660   14.4660   24.2370 N.am  716  ASP716     -0.1974
    172  CA        30.2620   14.8540   23.2360 C.3   716  ASP716      0.1709
    173  C         31.6880   14.6700   23.7420 C.2   716  ASP716      0.2293
    174  O         32.4820   15.6100   23.7210 O.2   716  ASP716     -0.2864
    175  CB        30.0800   16.3250   22.8380 C.3   716  ASP716      0.1436
    176  CG        28.7630   16.5910   22.1370 C.2   716  ASP716      0.3671
    177  OD1       28.1800   17.6780   22.3560 O.co2 716  ASP716     -0.2456
    178  OD2       28.3100   15.7180   21.3700 O.co2 716  ASP716     -0.2456
    179  N         33.9850   12.7070   22.4720 N.3   718  GLY718     -0.1210
    180  CA        34.8730   12.6100   21.3310 C.3   718  GLY718      0.1956
    181  C         35.4960   13.9450   20.9690 C.2   718  GLY718      0.2611
    182  O         36.6930   14.0220   20.6800 O.2   718  GLY718     -0.2717
    183  N         34.6920   15.0040   20.9930 N.am  719  HIS719     -0.1975
    184  CA        35.1820   16.3190   20.6020 C.3   719  HIS719      0.1656
    185  C         36.3470   16.7870   21.4730 C.2   719  HIS719      0.2291
    186  O         37.3960   17.1730   20.9570 O.2   719  HIS719     -0.2864
    187  CB        34.0610   17.3610   20.6100 C.3   719  HIS719      0.0771
    188  CG        34.4510   18.6610   19.9780 C.ar  719  HIS719      0.0820
    189  ND1       34.8340   19.7620   20.7130 N.ar  719  HIS719     -0.2267
    190  CD2       34.5370   19.0280   18.6760 C.ar  719  HIS719      0.1154
    191  CE1       35.1310   20.7560   19.8930 C.ar  719  HIS719      0.1986
    192  NE2       34.9590   20.3360   18.6530 N.ar  719  HIS719     -0.2212
@<TRIPOS>BOND
     1     4     3    2
     2     9    10    1
     3     9    15    1
     4    12    11    2
     5    11    10    1
     6     1     2    1
     7    10    13    1
     8     3     2    1
     9    40    41    2
    10    40    39    1
    11    15    14    1
    12    19    18    2
    13     2     5    1
    14    39    38    1
    15    39    42    1
    16    16    17    1
    17    47    48    1
    18    13    14    1
    19    18    17    1
    20    43    42    1
    21    43    44    1
    22     5     6    1
    23    17    20    1
    24    50    49    2
    25     6     7    1
    26    20    21    1
    27    48    49    1
    28    48    51    1
    29    45    44    1
    30    45    46    1
    31    53    52   ar
    32    22    21   ar
    33    22    24   ar
    34    21    23   ar
    35    32    33    2
    36    32    31    1
    37    51    52    1
    38    52    54   ar
    39     7     8    1
    40    36    34    1
    41    31    30    1
    42    31    34    1
    43    24    25   ar
    44    61    60    1
    45    23    25   ar
    46    23    26   ar
    47    60    62    1
    48    60    59    1
    49    34    35    1
    50    55    56    1
    51    25    27   ar
    52    26    28   ar
    53   192   190   ar
    54   192   191   ar
    55   190   188   ar
    56    35    37    1
    57    59    56    1
    58    56    57    1
    59    83    84    1
    60   107   105    1
    61    27    29   ar
    62    90    88    1
    63    28    29   ar
    64   191   189   ar
    65   188   187    1
    66   188   189   ar
    67    88    87    1
    68   135   134    1
    69    57    58    2
    70    86    85    2
    71   105   104    1
    72    87    84    1
    73    87    89    1
    74   184   187    1
    75   184   183    1
    76   184   185    1
    77    84    85    1
    78   182   181    2
    79   134   133    1
    80   186   185    2
    81   181   183   am
    82   181   180    1
    83   143   141   ar
    84    85    91   am
    85   180   179    1
    86   178   176   ar
    87    69    68   ar
    88   104   106    1
    89   104   101    1
    90   133   132    1
    91   176   177   ar
    92   176   175    1
    93   141   142   ar
    94   141   140    1
    95    68    70   ar
    96    68    67    1
    97    91    92    1
    98   100   101    1
    99   100    93   am
   100   132   131    1
   101   175   172    1
   102   101   102    1
   103    92    93    1
   104    92    95    1
   105    93    94    2
   106    67    64    1
   107   172   173    1
   108   172   171    1
   109   140   137    1
   110    63    64    1
   111   174   173    2
   112   131   128    1
   113    64    65    1
   114   139   138    2
   115   171   165   am
   116   102   103    2
   117   102   108   am
   118    95    96    1
   119   170   168    1
   120   125   124    1
   121   128   127    1
   122   128   129    1
   123   137   138    1
   124   137   136    1
   125    65    66    2
   126   124   126    1
   127   124   121    1
   128    96    97    1
   129   168   167    1
   130    79    77   ar
   131    79    81   ar
   132   108   109    1
   133   130   129    2
   134   151   150    1
   135   165   166    2
   136   165   164    1
   137   118   117    2
   138    77    76   ar
   139   167   164    1
   140   167   169    1
   141    82    81    1
   142   150   149    1
   143   111   110    2
   144    81    80   ar
   145   120   121    1
   146   121   122    1
   147   164   163    1
   148   110   109    1
   149   109   112    1
   150    97    99   ar
   151    97    98   ar
   152    76    75    1
   153    76    78   ar
   154   117   116    1
   155   149   148    1
   156   123   122    2
   157    74    73    2
   158    75    72    1
   159    73    72    1
   160    80    78   ar
   161   115   116    1
   162   112   114    1
   163   112   113    1
   164   119   116    1
   165    72    71    1
   166   148   145    1
   167   160   162   ar
   168   160   158   ar
   169   162   161   ar
   170   145   144    1
   171   145   146    1
   172   158   157   ar
   173   161   159   ar
   174   155   154    2
   175   146   147    2
   176   157   159   ar
   177   157   156    1
   178   154   153    1
   179   156   153    1
   180   153   152    1
