@<TRIPOS>MOLECULE
tmp/3l59A01.pdb
 169 157 0 0 0
SMALL
GASTEIGER

@<TRIPOS>ATOM
      1  N         33.6450   10.7270   20.0810 N.3    16  GLN16      -0.1245
      2  CA        32.8240   10.4770   18.8980 C.3    16  GLN16       0.1566
      3  C         31.9230    9.2560   19.0380 C.2    16  GLN16       0.2260
      4  O         31.1260    8.9580   18.1480 O.2    16  GLN16      -0.2867
      5  CB        33.7150   10.3390   17.6610 C.3    16  GLN16       0.0367
      6  CG        34.5610   11.5780   17.3980 C.3    16  GLN16       0.0905
      7  CD        35.2480   11.5540   16.0450 C.2    16  GLN16       0.2608
      8  OE1       35.9790   10.6160   15.7210 O.2    16  GLN16      -0.2717
      9  NE2       35.0190   12.5930   15.2490 N.am   16  GLN16      -0.0878
     10  N         26.5350    2.9910   16.4780 N.3    34  LEU34      -0.1245
     11  CA        26.8590    3.5580   17.7830 C.3    34  LEU34       0.1561
     12  C         26.1130    2.8770   18.9250 C.2    34  LEU34       0.2260
     13  O         24.8920    2.7330   18.8740 O.2    34  LEU34      -0.2867
     14  CB        26.5200    5.0430   17.7960 C.3    34  LEU34       0.0270
     15  CG        26.6840    5.7530   19.1390 C.3    34  LEU34       0.0019
     16  CD1       28.1550    6.0720   19.4210 C.3    34  LEU34       0.0001
     17  CD2       25.8630    7.0240   19.0840 C.3    34  LEU34       0.0001
     18  N         24.4580    3.0590   22.2610 N.3    36  ASP36      -0.1239
     19  CA        23.9250    4.1000   23.1320 C.3    36  ASP36       0.1674
     20  C         22.9240    3.6150   24.1870 C.2    36  ASP36       0.2266
     21  O         21.7730    3.2970   23.8780 O.2    36  ASP36      -0.2867
     22  CB        23.2800    5.1840   22.2610 C.3    36  ASP36       0.1410
     23  CG        22.7350    6.3370   23.0720 C.2    36  ASP36       0.3668
     24  OD1       23.1780    6.5130   24.2050 O.co2  36  ASP36      -0.2456
     25  OD2       21.8820    7.0630   22.5610 O.co2  36  ASP36      -0.2456
     26  N         21.6770    5.4340   26.3150 N.3    38  GLY38      -0.1210
     27  CA        20.8700    6.5900   26.6760 C.3    38  GLY38       0.1956
     28  C         19.6890    6.8610   25.7540 C.2    38  GLY38       0.2612
     29  O         19.0620    7.9200   25.8340 O.2    38  GLY38      -0.2717
     30  N         19.3860    5.9100   24.8730 N.am   39  SER39      -0.1952
     31  CA        18.2680    6.0430   23.9410 C.3    39  SER39       0.1924
     32  C         17.7010    4.6520   23.6550 C.2    39  SER39       0.2314
     33  O         18.3090    3.6460   24.0220 O.2    39  SER39      -0.2863
     34  CB        18.7110    6.7350   22.6450 C.3    39  SER39       0.2116
     35  OG        19.6530    5.9580   21.9330 O.3    39  SER39      -0.2180
     36  N         16.8560   16.6100   19.2350 N.3    75  TYR75      -0.1241
     37  CA        17.7450   16.6470   20.3980 C.3    75  TYR75       0.1605
     38  C         18.0520   18.1110   20.7010 C.2    75  TYR75       0.2264
     39  O         17.4140   19.0000   20.1430 O.2    75  TYR75      -0.2867
     40  CB        19.0540   15.9130   20.1100 C.3    75  TYR75       0.0534
     41  CG        18.8630   14.4730   19.7250 C.ar   75  TYR75      -0.0201
     42  CD1       18.2660   13.5730   20.6050 C.ar   75  TYR75      -0.0009
     43  CD2       19.2570   14.0120   18.4710 C.ar   75  TYR75      -0.0009
     44  CE1       18.0630   12.2500   20.2470 C.ar   75  TYR75       0.0417
     45  CE2       19.0580   12.6910   18.1010 C.ar   75  TYR75       0.0417
     46  CZ        18.4600   11.8150   18.9950 C.ar   75  TYR75       0.1957
     47  OH        18.2480   10.5050   18.6390 O.3    75  TYR75      -0.2866
     48  N         21.1590   18.0610   18.0810 N.3    78  GLY78      -0.1225
     49  CA        20.9050   17.2200   16.9300 C.3    78  GLY78       0.1811
     50  C         19.4420   17.0110   16.6110 C.2    78  GLY78       0.2280
     51  O         18.5570   17.3400   17.4030 O.2    78  GLY78      -0.2866
     52  N         23.0470   17.9240   12.4820 N.3   111  LYS111     -0.1231
     53  CA        24.0160   17.7750   13.5630 C.3   111  LYS111      0.1693
     54  C         23.9960   16.4070   14.2470 C.2   111  LYS111      0.2592
     55  O         24.4070   16.2860   15.4020 O.2   111  LYS111     -0.2718
     56  CB        23.8100   18.8660   14.6170 C.3   111  LYS111      0.0285
     57  CG        23.9540   20.2930   14.1030 C.3   111  LYS111      0.0035
     58  CD        23.7660   21.2860   15.2430 C.3   111  LYS111      0.0206
     59  CE        23.7250   22.7240   14.7610 C.3   111  LYS111      0.1093
     60  NZ        23.5010   23.6560   15.9050 N.3   111  LYS111     -0.1314
     61  N         23.5050   15.3840   13.5530 N.am  112  PHE112     -0.1976
     62  CA        23.4610   14.0360   14.1200 C.3   112  PHE112      0.1639
     63  C         24.7410   13.2760   13.7700 C.2   112  PHE112      0.2290
     64  O         25.5290   12.9280   14.6520 O.2   112  PHE112     -0.2864
     65  CB        22.2370   13.2710   13.5920 C.3   112  PHE112      0.0560
     66  CG        22.0820   11.8880   14.1740 C.ar  112  PHE112     -0.0200
     67  CD1       21.8950   11.7080   15.5390 C.ar  112  PHE112     -0.0042
     68  CD2       22.1280   10.7640   13.3520 C.ar  112  PHE112     -0.0042
     69  CE1       21.7550   10.4260   16.0810 C.ar  112  PHE112     -0.0003
     70  CE2       21.9890    9.4790   13.8830 C.ar  112  PHE112     -0.0003
     71  CZ        21.8030    9.3110   15.2500 C.ar  112  PHE112     -0.0000
     72  N         28.4090   12.4700   12.7840 N.3   114  ILE114     -0.1245
     73  CA        29.7020   13.1020   13.0420 C.3   114  ILE114      0.1561
     74  C         30.7470   12.7240   11.9940 C.2   114  ILE114      0.2260
     75  O         30.9760   11.5430   11.7240 O.2   114  ILE114     -0.2867
     76  CB        30.2400   12.7020   14.4310 C.3   114  ILE114      0.0252
     77  CG1       29.2500   13.1280   15.5170 C.3   114  ILE114      0.0019
     78  CG2       31.5970   13.3520   14.6700 C.3   114  ILE114      0.0019
     79  CD1       29.6140   12.6380   16.9100 C.3   114  ILE114      0.0001
     80  N         30.6770    5.7130   12.0970 N.3   119  TRP119     -0.1241
     81  CA        29.4210    5.0140   12.3520 C.3   119  TRP119      0.1605
     82  C         28.2980    5.6160   11.5150 C.2   119  TRP119      0.2264
     83  O         28.2730    6.8220   11.2540 O.2   119  TRP119     -0.2867
     84  CB        29.0420    4.9680   13.8440 C.3   119  TRP119      0.0550
     85  CG        29.0350    6.2560   14.6060 C.ar  119  TRP119      0.0003
     86  CD1       30.0310    6.7330   15.4090 C.ar  119  TRP119      0.0946
     87  CD2       27.9530    7.1900   14.7140 C.ar  119  TRP119      0.0152
     88  NE1       29.6350    7.8990   16.0170 N.ar  119  TRP119     -0.2442
     89  CE2       28.3640    8.2050   15.6070 C.ar  119  TRP119      0.0810
     90  CE3       26.6750    7.2660   14.1450 C.ar  119  TRP119      0.0012
     91  CZ2       27.5420    9.2870   15.9460 C.ar  119  TRP119      0.0191
     92  CZ3       25.8550    8.3420   14.4820 C.ar  119  TRP119      0.0001
     93  CH2       26.2940    9.3380   15.3750 C.ar  119  TRP119      0.0015
     94  N         22.6250    4.2640   14.9850 N.3   122  ILE122     -0.1245
     95  CA        22.6310    4.2500   16.4410 C.3   122  ILE122      0.1561
     96  C         21.8010    3.0970   16.9950 C.2   122  ILE122      0.2260
     97  O         20.7070    2.8170   16.5040 O.2   122  ILE122     -0.2867
     98  CB        22.0830    5.5910   16.9930 C.3   122  ILE122      0.0252
     99  CG1       22.1120    5.5990   18.5200 C.3   122  ILE122      0.0019
    100  CG2       20.6570    5.8010   16.5060 C.3   122  ILE122      0.0019
    101  CD1       21.7700    6.9630   19.1280 C.3   122  ILE122      0.0001
    102  N         10.8700    6.4290   20.5580 N.3   132  ARG132     -0.1245
    103  CA        10.0650    7.3370   19.7470 C.3   132  ARG132      0.1563
    104  C          9.5130    6.5910   18.5350 C.2   132  ARG132      0.2260
    105  O         10.1770    5.7050   17.9930 O.2   132  ARG132     -0.2867
    106  CB        10.9080    8.5380   19.3150 C.3   132  ARG132      0.0307
    107  CG        11.1990    9.4890   20.4670 C.3   132  ARG132      0.0489
    108  CD        12.6250   10.0040   20.4490 C.3   132  ARG132      0.2205
    109  NE        12.9060   10.8150   21.6330 N.pl3 132  ARG132     -0.0865
    110  CZ        14.1140   11.2400   21.9880 C.cat 132  ARG132      0.5346
    111  NH1       15.1740   10.9340   21.2540 N.pl3 132  ARG132      0.1354
    112  NH2       14.2610   11.9770   23.0800 N.pl3 132  ARG132      0.1354
    113  N         15.2830    5.1100   31.1920 N.3   202  TYR202     -0.1241
    114  CA        16.7030    5.3450   30.9460 C.3   202  TYR202      0.1605
    115  C         17.2690    4.3070   31.9120 C.2   202  TYR202      0.2264
    116  O         16.5090    3.7150   32.6780 O.2   202  TYR202     -0.2867
    117  CB        17.1390    6.7250   31.4470 C.3   202  TYR202      0.0534
    118  CG        16.7350    7.8860   30.5760 C.ar  202  TYR202     -0.0201
    119  CD1       17.4520    8.1980   29.4260 C.ar  202  TYR202     -0.0009
    120  CD2       15.6370    8.6770   30.9060 C.ar  202  TYR202     -0.0009
    121  CE1       17.0880    9.2730   28.6230 C.ar  202  TYR202      0.0417
    122  CE2       15.2630    9.7530   30.1100 C.ar  202  TYR202      0.0417
    123  CZ        15.9940   10.0450   28.9730 C.ar  202  TYR202      0.1957
    124  OH        15.6420   11.1200   28.1990 O.3   202  TYR202     -0.2866
    125  N         21.5830    8.8740   35.2600 N.3   230  ILE230     -0.1245
    126  CA        21.5830    7.7760   34.2980 C.3   230  ILE230      0.1561
    127  C         22.9850    7.3830   33.8220 C.2   230  ILE230      0.2260
    128  O         23.9410    8.1540   33.9500 O.2   230  ILE230     -0.2867
    129  CB        20.7500    8.1230   33.0380 C.3   230  ILE230      0.0252
    130  CG1       21.3880    9.2980   32.2950 C.3   230  ILE230      0.0019
    131  CG2       19.3290    8.5020   33.4380 C.3   230  ILE230      0.0019
    132  CD1       20.7610    9.5830   30.9340 C.3   230  ILE230      0.0001
    133  N         24.8870    6.5330   30.5290 N.3   232  ASP232     -0.1239
    134  CA        24.6780    6.7690   29.1040 C.3   232  ASP232      0.1674
    135  C         25.9520    6.7680   28.2560 C.2   232  ASP232      0.2266
    136  O         26.7240    7.7290   28.2660 O.2   232  ASP232     -0.2867
    137  CB        23.9460    8.1130   28.9710 C.3   232  ASP232      0.1410
    138  CG        23.7510    8.5500   27.5350 C.2   232  ASP232      0.3668
    139  OD1       23.8280    7.7160   26.6350 O.co2 232  ASP232     -0.2456
    140  OD2       23.5020    9.7380   27.3320 O.co2 232  ASP232     -0.2456
    141  N         26.1080    7.1350   25.2530 N.3   234  GLY234     -0.1210
    142  CA        25.9310    8.0510   24.1390 C.3   234  GLY234      0.1956
    143  C         26.3760    9.4660   24.4660 C.2   234  GLY234      0.2612
    144  O         26.3750   10.3460   23.6050 O.2   234  GLY234     -0.2717
    145  N         26.7490    9.6810   25.7220 N.am  235  THR235     -0.1952
    146  CA        27.2270   10.9750   26.1980 C.3   235  THR235      0.1897
    147  C         28.7120   10.8590   26.5280 C.2   235  THR235      0.2313
    148  O         29.1380    9.9070   27.1720 O.2   235  THR235     -0.2863
    149  CB        26.4480   11.4420   27.4470 C.3   235  THR235      0.1794
    150  OG1       25.0780   11.6660   27.0920 O.3   235  THR235     -0.2208
    151  CG2       27.0450   12.7190   28.0170 C.3   235  THR235      0.0378
    152  N         28.2710   14.2960   33.3560 N.3   239  ARG239     -0.1245
    153  CA        27.4710   15.5050   33.4780 C.3   239  ARG239      0.1563
    154  C         26.8020   15.5300   34.8450 C.2   239  ARG239      0.2260
    155  O         26.2310   14.5330   35.2960 O.2   239  ARG239     -0.2867
    156  CB        26.4540   15.5850   32.3320 C.3   239  ARG239      0.0307
    157  CG        27.1210   15.4890   30.9500 C.3   239  ARG239      0.0489
    158  CD        26.1660   15.8190   29.8140 C.3   239  ARG239      0.2205
    159  NE        25.8530   17.2450   29.7610 N.pl3 239  ARG239     -0.0865
    160  CZ        24.6250   17.7310   29.6030 C.cat 239  ARG239      0.5346
    161  NH1       24.4240   19.0420   29.5630 N.pl3 239  ARG239      0.1354
    162  NH2       23.5920   16.9050   29.4990 N.pl3 239  ARG239      0.1354
    163  N         24.6050   12.5100   34.4200 N.3   336  VAL336     -0.1245
    164  CA        24.8170   11.6000   33.3050 C.3   336  VAL336      0.1561
    165  C         26.2060   10.9740   33.3990 C.2   336  VAL336      0.2260
    166  O         27.2230   11.6670   33.2940 O.2   336  VAL336     -0.2867
    167  CB        24.7160   12.3240   31.9460 C.3   336  VAL336      0.0252
    168  CG1       24.9020   11.3170   30.8160 C.3   336  VAL336      0.0019
    169  CG2       23.3810   13.0410   31.8190 C.3   336  VAL336      0.0019
@<TRIPOS>BOND
     1    83    82    2
     2    82    81    1
     3    75    74    2
     4    74    73    1
     5    80    81    1
     6    81    84    1
     7    52    53    1
     8    72    73    1
     9    73    76    1
    10    68    70   ar
    11    68    66   ar
    12    61    62    1
    13    61    54   am
    14    53    54    1
    15    53    56    1
    16    65    62    1
    17    65    66    1
    18    63    62    1
    19    63    64    2
    20    84    85    1
    21    70    71   ar
    22    57    56    1
    23    57    58    1
    24    90    92   ar
    25    90    87   ar
    26    66    67   ar
    27    54    55    2
    28    76    78    1
    29    76    77    1
    30    92    93   ar
    31    85    87   ar
    32    85    86   ar
    33    87    89   ar
    34    59    58    1
    35    59    60    1
    36    94    95    1
    37     9     7   am
    38    71    69   ar
    39    93    91   ar
    40    86    88   ar
    41    77    79    1
    42    67    69   ar
    43    89    91   ar
    44    89    88   ar
    45     8     7    2
    46     7     6    1
    47    95    98    1
    48    95    96    1
    49    10    11    1
    50    97    96    2
    51   100    98    1
    52    50    49    1
    53    50    51    2
    54    49    48    1
    55    98    99    1
    56     6     5    1
    57     5     2    1
    58    11    14    1
    59    11    12    1
    60    14    15    1
    61   105   104    2
    62    45    43   ar
    63    45    46   ar
    64     4     3    2
    65    43    41   ar
    66    99   101    1
    67   104   103    1
    68    47    46    1
    69    13    12    2
    70     2     3    1
    71     2     1    1
    72    46    44   ar
    73    17    15    1
    74    15    16    1
    75    36    37    1
    76   106   103    1
    77   106   107    1
    78    41    40    1
    79    41    42   ar
    80   103   102    1
    81    40    37    1
    82    39    38    2
    83    44    42   ar
    84    37    38    1
    85   108   107    1
    86   108   109    1
    87   111   110    1
    88   109   110    2
    89    35    34    1
    90   110   112    1
    91    22    23    1
    92    22    19    1
    93    18    19    1
    94    25    23   ar
    95    34    31    1
    96    23    24   ar
    97    19    20    1
    98   144   143    2
    99    32    31    1
   100    32    33    2
   101    21    20    2
   102    31    30    1
   103   142   143    1
   104   142   141    1
   105   143   145   am
   106    30    28   am
   107   145   146    1
   108    28    29    2
   109    28    27    1
   110   146   147    1
   111   146   149    1
   112    26    27    1
   113   147   148    2
   114   139   138   ar
   115   150   149    1
   116   140   138   ar
   117   149   151    1
   118   138   137    1
   119   124   123    1
   120   135   136    2
   121   135   134    1
   122   121   123   ar
   123   121   119   ar
   124   137   134    1
   125   123   122   ar
   126   134   133    1
   127   119   118   ar
   128   162   160    1
   129   161   160    1
   130   160   159    2
   131   159   158    1
   132   158   157    1
   133   122   120   ar
   134   118   120   ar
   135   118   117    1
   136   168   167    1
   137   132   130    1
   138   114   113    1
   139   114   117    1
   140   114   115    1
   141   157   156    1
   142   169   167    1
   143   115   116    2
   144   167   164    1
   145   130   129    1
   146   156   153    1
   147   129   131    1
   148   129   126    1
   149   166   165    2
   150   164   165    1
   151   164   163    1
   152   152   153    1
   153   153   154    1
   154   127   128    2
   155   127   126    1
   156   126   125    1
   157   154   155    2
