@<TRIPOS>MOLECULE
tmp/3l5aA00.pdb
 87 83 0 0 0
SMALL
GASTEIGER

@<TRIPOS>ATOM
      1  N         50.4110   90.5710   22.6000 N.3     7  LEU7       -0.1245
      2  CA        49.8090   90.9560   21.3270 C.3     7  LEU7        0.1561
      3  C         50.8180   91.4880   20.3230 C.2     7  LEU7        0.2260
      4  O         50.4590   91.8140   19.1880 O.2     7  LEU7       -0.2867
      5  CB        48.7350   92.0100   21.5930 C.3     7  LEU7        0.0270
      6  CG        47.6840   91.5310   22.5820 C.3     7  LEU7        0.0019
      7  CD1       46.8960   92.7090   23.1500 C.3     7  LEU7        0.0001
      8  CD2       46.7810   90.4940   21.9190 C.3     7  LEU7        0.0001
      9  N         51.3620   87.4140   14.0770 N.3    19  SER19      -0.1202
     10  CA        50.8360   88.6940   14.5340 C.3    19  SER19       0.2020
     11  C         50.6200   88.7980   16.0410 C.2    19  SER19       0.2618
     12  O         50.3020   89.8710   16.5510 O.2    19  SER19      -0.2717
     13  CB        49.5670   89.1060   13.7620 C.3    19  SER19       0.2103
     14  OG        48.4560   88.3990   14.2320 O.3    19  SER19      -0.2182
     15  N         50.7870   87.6880   16.7570 N.am   20  ASN20      -0.1974
     16  CA        50.7490   87.7320   18.2150 C.3    20  ASN20       0.1688
     17  C         51.6210   86.6160   18.7960 C.2    20  ASN20       0.2292
     18  O         52.2050   85.8340   18.0480 O.2    20  ASN20      -0.2864
     19  CB        49.3110   87.6550   18.7550 C.3    20  ASN20       0.1181
     20  CG        48.5720   86.4070   18.3020 C.2    20  ASN20       0.2629
     21  OD1       48.9160   85.2870   18.6790 O.2    20  ASN20      -0.2716
     22  ND2       47.5350   86.5970   17.4900 N.am   20  ASN20      -0.0877
     23  N         40.7930   81.1130   13.8720 N.3    50  ASN50      -0.1225
     24  CA        41.0930   82.5120   14.1080 C.3    50  ASN50       0.1785
     25  C         41.5150   82.7380   15.5710 C.2    50  ASN50       0.2598
     26  O         41.4320   83.8540   16.0690 O.2    50  ASN50      -0.2718
     27  CB        39.8760   83.3900   13.7440 C.3    50  ASN50       0.1169
     28  CG        40.2490   84.8390   13.4670 C.2    50  ASN50       0.2627
     29  OD1       39.3880   85.7260   13.5070 O.2    50  ASN50      -0.2716
     30  ND2       41.5190   85.0990   13.2020 N.am   50  ASN50      -0.0877
     31  N         41.9660   81.6780   16.2440 N.am   51  SER51      -0.1938
     32  CA        42.2470   81.7240   17.6990 C.3    51  SER51       0.2055
     33  C         43.6480   82.2250   18.0820 C.2    51  SER51       0.2643
     34  O         43.8140   82.8920   19.1070 O.2    51  SER51      -0.2714
     35  CB        42.0120   80.3510   18.3370 C.3    51  SER51       0.2130
     36  OG        40.6490   79.9400   18.2330 O.3    51  SER51      -0.2179
     37  N         44.6540   81.9050   17.2730 N.am   52  ALA52      -0.1963
     38  CA        46.0520   82.1580   17.6570 C.3    52  ALA52       0.1728
     39  C         46.9060   82.5150   16.4420 C.2    52  ALA52       0.2616
     40  O         46.5090   82.2490   15.3160 O.2    52  ALA52      -0.2715
     41  CB        46.6210   80.9290   18.3750 C.3    52  ALA52       0.0334
     42  N         48.0680   83.1280   16.6780 N.am   53  GLY53      -0.1955
     43  CA        49.0010   83.4590   15.5990 C.3    53  GLY53       0.1869
     44  C         49.4700   82.2130   14.8510 C.2    53  GLY53       0.2309
     45  O         49.6510   82.2450   13.6320 O.2    53  GLY53      -0.2863
     46  N         41.9670   82.0690    8.1420 N.3    91  HIS91      -0.1226
     47  CA        42.0830   83.4170    8.6930 C.3    91  HIS91       0.1752
     48  C         43.5280   83.9090    8.7600 C.2    91  HIS91       0.2597
     49  O         43.8090   84.9480    9.3640 O.2    91  HIS91      -0.2718
     50  CB        41.4170   83.4930   10.0760 C.3    91  HIS91       0.0759
     51  CG        39.9260   83.3870   10.0280 C.ar   91  HIS91       0.0818
     52  ND1       39.1190   84.4420    9.6590 N.ar   91  HIS91      -0.2268
     53  CD2       39.0950   82.3480   10.2790 C.ar   91  HIS91       0.1154
     54  CE1       37.8540   84.0590    9.6920 C.ar   91  HIS91       0.1986
     55  NE2       37.8120   82.7920   10.0610 N.ar   91  HIS91      -0.2212
     56  N         44.4430   83.1660    8.1370 N.am   92  GLY92      -0.1942
     57  CA        45.8470   83.5530    8.0800 C.3    92  GLY92       0.2014
     58  C         46.6590   83.1430    9.3000 C.2    92  GLY92       0.2639
     59  O         47.7980   83.5960    9.4810 O.2    92  GLY92      -0.2714
     60  N         46.0790   82.3010   10.1460 N.am   93  SER93      -0.1949
     61  CA        46.8460   81.6970   11.2330 C.3    93  SER93       0.1924
     62  C         47.7300   80.6210   10.6150 C.2    93  SER93       0.2314
     63  O         47.3100   79.9230    9.6890 O.2    93  SER93      -0.2863
     64  CB        45.9010   81.0870   12.2640 C.3    93  SER93       0.2116
     65  OG        46.6310   80.5040   13.3290 O.3    93  SER93      -0.2180
     66  N         42.1410   85.0010   22.7230 N.3   325  VAL325     -0.1231
     67  CA        43.0910   86.0300   22.3030 C.3   325  VAL325      0.1692
     68  C         42.4050   87.2840   21.7640 C.2   325  VAL325      0.2592
     69  O         42.9330   88.3940   21.8620 O.2   325  VAL325     -0.2718
     70  CB        44.1460   85.4660   21.3000 C.3   325  VAL325      0.0266
     71  CG1       45.1800   86.5110   20.9390 C.3   325  VAL325      0.0020
     72  CG2       44.8120   84.2180   21.9050 C.3   325  VAL325      0.0020
     73  N         41.2180   87.1030   21.1940 N.am  326  HIS326     -0.1976
     74  CA        40.4310   88.2410   20.7470 C.3   326  HIS326      0.1656
     75  C         39.9730   89.0850   21.9420 C.2   326  HIS326      0.2291
     76  O         40.1070   90.3050   21.9160 O.2   326  HIS326     -0.2864
     77  CB        39.2530   87.7540   19.9090 C.3   326  HIS326      0.0771
     78  CG        39.6610   87.2600   18.5580 C.ar  326  HIS326      0.0820
     79  ND1       40.0920   88.1070   17.5610 N.ar  326  HIS326     -0.2267
     80  CD2       39.7300   86.0090   18.0450 C.ar  326  HIS326      0.1154
     81  CE1       40.3980   87.4020   16.4860 C.ar  326  HIS326      0.1986
     82  NE2       40.1930   86.1260   16.7570 N.ar  326  HIS326     -0.2212
     83  N         43.0310   90.9490   23.0370 N.3   329  ALA329     -0.1245
     84  CA        43.3590   92.0150   22.0890 C.3   329  ALA329      0.1562
     85  C         42.4220   93.2050   22.2090 C.2   329  ALA329      0.2260
     86  O         42.8430   94.3550   22.0740 O.2   329  ALA329     -0.2867
     87  CB        43.3380   91.4760   20.6480 C.3   329  ALA329      0.0290
@<TRIPOS>BOND
     1    57    56    1
     2    57    58    1
     3    56    48   am
     4    46    47    1
     5    47    48    1
     6    47    50    1
     7    48    49    2
     8    58    59    2
     9    58    60   am
    10    52    54   ar
    11    52    51   ar
    12    63    62    2
    13    54    55   ar
    14    51    50    1
    15    51    53   ar
    16    55    53   ar
    17    60    61    1
    18    62    61    1
    19    61    64    1
    20    64    65    1
    21    30    28   am
    22    28    29    2
    23    28    27    1
    24    45    44    2
    25    27    24    1
    26    13    14    1
    27    13    10    1
    28    23    24    1
    29     9    10    1
    30    24    25    1
    31    10    11    1
    32    44    43    1
    33    40    39    2
    34    25    26    2
    35    25    31   am
    36    43    42    1
    37    11    12    2
    38    11    15   am
    39    31    32    1
    40    39    42   am
    41    39    38    1
    42    81    82   ar
    43    81    79   ar
    44    15    16    1
    45    82    80   ar
    46    37    38    1
    47    37    33   am
    48    22    20   am
    49    79    78   ar
    50    38    41    1
    51    32    33    1
    52    32    35    1
    53    80    78   ar
    54    18    17    2
    55    33    34    2
    56    16    19    1
    57    16    17    1
    58    36    35    1
    59    20    21    2
    60    20    19    1
    61    78    77    1
    62     4     3    2
    63    77    74    1
    64     3     2    1
    65    87    84    1
    66    74    73    1
    67    74    75    1
    68    71    70    1
    69    73    68   am
    70    70    72    1
    71    70    67    1
    72     2     5    1
    73     2     1    1
    74     5     6    1
    75    68    69    2
    76    68    67    1
    77    76    75    2
    78     8     6    1
    79    86    85    2
    80    84    85    1
    81    84    83    1
    82    67    66    1
    83     6     7    1
