@<TRIPOS>MOLECULE
tmp/3l5bB02.pdb
 161 150 0 0 0
SMALL
GASTEIGER

@<TRIPOS>ATOM
      1  N         16.5590   42.1550   51.0860 N.3    34  LEU34      -0.1245
      2  CA        16.2590   41.5930   52.4130 C.3    34  LEU34       0.1561
      3  C         16.9540   42.3660   53.5350 C.2    34  LEU34       0.2260
      4  O         18.1690   42.5260   53.4950 O.2    34  LEU34      -0.2867
      5  CB        16.7170   40.1360   52.4860 C.3    34  LEU34       0.0270
      6  CG        16.5110   39.3760   53.7980 C.3    34  LEU34       0.0019
      7  CD1       15.0140   39.2780   54.1650 C.3    34  LEU34       0.0001
      8  CD2       17.1400   37.9990   53.6970 C.3    34  LEU34       0.0001
      9  N         18.5750   42.3400   56.8130 N.3    36  ASP36      -0.1239
     10  CA        19.1370   41.2670   57.6290 C.3    36  ASP36       0.1674
     11  C         20.1130   41.7130   58.7170 C.2    36  ASP36       0.2266
     12  O         21.2760   41.9870   58.4360 O.2    36  ASP36      -0.2867
     13  CB        19.7960   40.2440   56.6880 C.3    36  ASP36       0.1410
     14  CG        20.3910   39.0470   57.4130 C.2    36  ASP36       0.3668
     15  OD1       20.0360   38.7940   58.5760 O.co2  36  ASP36      -0.2456
     16  OD2       21.2030   38.3400   56.7900 O.co2  36  ASP36      -0.2456
     17  N         21.3300   39.8770   60.8670 N.3    38  GLY38      -0.1210
     18  CA        22.1500   38.7370   61.2300 C.3    38  GLY38       0.1956
     19  C         23.3450   38.4650   60.3230 C.2    38  GLY38       0.2612
     20  O         23.9700   37.4070   60.4170 O.2    38  GLY38      -0.2717
     21  N         23.6670   39.4060   59.4400 N.am   39  SER39      -0.1952
     22  CA        24.8150   39.2450   58.5400 C.3    39  SER39       0.1924
     23  C         25.3740   40.6310   58.2460 C.2    39  SER39       0.2314
     24  O         24.7590   41.6340   58.6170 O.2    39  SER39      -0.2863
     25  CB        24.4630   38.5110   57.2530 C.3    39  SER39       0.2116
     26  OG        23.5230   39.2350   56.5010 O.3    39  SER39      -0.2180
     27  N         26.5870   28.1920   53.9640 N.3    75  TYR75      -0.1241
     28  CA        25.7340   28.1150   55.1480 C.3    75  TYR75       0.1605
     29  C         25.4200   26.6580   55.4850 C.2    75  TYR75       0.2264
     30  O         25.4530   25.7910   54.6130 O.2    75  TYR75      -0.2867
     31  CB        24.4410   28.8860   54.9040 C.3    75  TYR75       0.0534
     32  CG        24.5610   30.3970   54.8640 C.ar   75  TYR75      -0.0201
     33  CD1       25.0030   31.1210   55.9790 C.ar   75  TYR75      -0.0009
     34  CD2       24.2140   31.1130   53.7190 C.ar   75  TYR75      -0.0009
     35  CE1       25.0730   32.5120   55.9540 C.ar   75  TYR75       0.0417
     36  CE2       24.2730   32.5000   53.6850 C.ar   75  TYR75       0.0417
     37  CZ        24.6910   33.2000   54.8070 C.ar   75  TYR75       0.1957
     38  OH        24.6890   34.5650   54.7490 O.3    75  TYR75      -0.2866
     39  N         20.0640   27.2210   47.4910 N.3   108  LYS108     -0.1231
     40  CA        19.1000   27.3760   48.5770 C.3   108  LYS108      0.1693
     41  C         19.1540   28.7780   49.1940 C.2   108  LYS108      0.2592
     42  O         18.8870   28.9500   50.3810 O.2   108  LYS108     -0.2718
     43  CB        19.3020   26.2970   49.6450 C.3   108  LYS108      0.0285
     44  CG        19.1990   24.8720   49.1160 C.3   108  LYS108      0.0035
     45  CD        17.9350   24.6560   48.2980 C.3   108  LYS108      0.0206
     46  CE        17.9390   23.2820   47.6380 C.3   108  LYS108      0.1093
     47  NZ        16.7610   23.0640   46.7440 N.3   108  LYS108     -0.1314
     48  N         19.5180   29.7720   48.3890 N.am  109  PHE109     -0.1976
     49  CA        19.6120   31.1480   48.8670 C.3   109  PHE109      0.1639
     50  C         18.3620   31.9250   48.4440 C.2   109  PHE109      0.2290
     51  O         17.6040   32.4140   49.2830 O.2   109  PHE109     -0.2864
     52  CB        20.8890   31.8210   48.3520 C.3   109  PHE109      0.0560
     53  CG        21.0710   33.2330   48.8360 C.ar  109  PHE109     -0.0200
     54  CD1       21.3880   33.4860   50.1590 C.ar  109  PHE109     -0.0042
     55  CD2       20.9340   34.3050   47.9670 C.ar  109  PHE109     -0.0042
     56  CE1       21.5700   34.7800   50.6090 C.ar  109  PHE109     -0.0003
     57  CE2       21.1140   35.6010   48.4110 C.ar  109  PHE109     -0.0003
     58  CZ        21.4330   35.8380   49.7320 C.ar  109  PHE109     -0.0000
     59  N         14.7050   32.4930   47.4360 N.3   111  ILE111     -0.1245
     60  CA        13.4420   31.8300   47.7440 C.3   111  ILE111      0.1561
     61  C         12.3950   32.1340   46.6890 C.2   111  ILE111      0.2260
     62  O         12.0700   33.2910   46.4450 O.2   111  ILE111     -0.2867
     63  CB        12.9030   32.3090   49.1010 C.3   111  ILE111      0.0252
     64  CG1       13.9190   31.9970   50.2010 C.3   111  ILE111      0.0019
     65  CG2       11.5630   31.6450   49.3950 C.3   111  ILE111      0.0019
     66  CD1       13.4850   32.4650   51.5830 C.3   111  ILE111      0.0001
     67  N         12.4490   39.3280   46.7000 N.3   116  TRP116     -0.1241
     68  CA        13.7220   40.0150   46.9460 C.3   116  TRP116      0.1605
     69  C         14.8600   39.4530   46.1080 C.2   116  TRP116      0.2264
     70  O         14.9160   38.2540   45.8370 O.2   116  TRP116     -0.2867
     71  CB        14.0960   40.1650   48.4370 C.3   116  TRP116      0.0550
     72  CG        14.1670   38.9190   49.2800 C.ar  116  TRP116      0.0003
     73  CD1       13.2110   38.4850   50.1610 C.ar  116  TRP116      0.0946
     74  CD2       15.2690   38.0050   49.4080 C.ar  116  TRP116      0.0152
     75  NE1       13.6520   37.3720   50.8310 N.ar  116  TRP116     -0.2442
     76  CE2       14.9090   37.0540   50.3890 C.ar  116  TRP116      0.0810
     77  CE3       16.5230   37.8990   48.7950 C.ar  116  TRP116      0.0012
     78  CZ2       15.7560   36.0140   50.7680 C.ar  116  TRP116      0.0191
     79  CZ3       17.3620   36.8670   49.1730 C.ar  116  TRP116      0.0001
     80  CH2       16.9760   35.9370   50.1510 C.ar  116  TRP116      0.0015
     81  N         20.4690   40.8650   49.6270 N.3   119  ILE119     -0.1245
     82  CA        20.3950   40.9140   51.0780 C.3   119  ILE119      0.1561
     83  C         21.2220   42.0810   51.6060 C.2   119  ILE119      0.2260
     84  O         22.3020   42.3520   51.0860 O.2   119  ILE119     -0.2867
     85  CB        20.9150   39.5820   51.6460 C.3   119  ILE119      0.0252
     86  CG1       20.7740   39.5300   53.1530 C.3   119  ILE119      0.0019
     87  CG2       22.3870   39.4210   51.2810 C.3   119  ILE119      0.0019
     88  CD1       21.2600   38.1960   53.7240 C.3   119  ILE119      0.0001
     89  N         27.6210   40.2600   65.7590 N.3   199  TYR199     -0.1241
     90  CA        26.1930   40.1000   65.4830 C.3   199  TYR199      0.1605
     91  C         25.6190   41.1330   66.4510 C.2   199  TYR199      0.2264
     92  O         26.3790   41.7590   67.2000 O.2   199  TYR199     -0.2867
     93  CB        25.6520   38.7340   65.9210 C.3   199  TYR199      0.0534
     94  CG        26.1860   37.5600   65.1680 C.ar  199  TYR199     -0.0201
     95  CD1       25.5910   37.1720   63.9740 C.ar  199  TYR199     -0.0009
     96  CD2       27.2890   36.8540   65.6130 C.ar  199  TYR199     -0.0009
     97  CE1       26.0770   36.1190   63.2460 C.ar  199  TYR199      0.0417
     98  CE2       27.7900   35.7840   64.8810 C.ar  199  TYR199      0.0417
     99  CZ        27.1770   35.4260   63.7010 C.ar  199  TYR199      0.1957
    100  OH        27.6420   34.3660   62.9620 O.3   199  TYR199     -0.2866
    101  N         25.7020   32.2720   72.2960 N.3   225  LYS225     -0.1245
    102  CA        25.4490   33.7030   72.1170 C.3   225  LYS225      0.1561
    103  C         23.9460   33.8670   71.8780 C.2   225  LYS225      0.2260
    104  O         23.2680   32.9060   71.5450 O.2   225  LYS225     -0.2867
    105  CB        26.2060   34.2830   70.9140 C.3   225  LYS225      0.0271
    106  CG        25.8110   33.6430   69.5830 C.3   225  LYS225      0.0035
    107  CD        26.5850   34.2480   68.4170 C.3   225  LYS225      0.0206
    108  CE        26.3200   33.4860   67.1310 C.3   225  LYS225      0.1093
    109  NZ        26.7850   32.0670   67.2260 N.3   225  LYS225     -0.1314
    110  N         21.3780   36.5040   69.7400 N.3   227  ILE227     -0.1245
    111  CA        21.3990   37.6260   68.8040 C.3   227  ILE227      0.1561
    112  C         19.9960   38.0030   68.3510 C.2   227  ILE227      0.2260
    113  O         19.0620   37.2250   68.4990 O.2   227  ILE227     -0.2867
    114  CB        22.2170   37.3090   67.5250 C.3   227  ILE227      0.0252
    115  CG1       21.5650   36.1780   66.7410 C.3   227  ILE227      0.0019
    116  CG2       23.6190   36.8230   67.9070 C.3   227  ILE227      0.0019
    117  CD1       22.3100   35.8630   65.4370 C.3   227  ILE227      0.0001
    118  N         18.0530   38.7970   65.0880 N.3   229  ASP229     -0.1239
    119  CA        18.2560   38.5560   63.6650 C.3   229  ASP229      0.1674
    120  C         17.0000   38.6010   62.8060 C.2   229  ASP229      0.2266
    121  O         16.2090   37.6580   62.7900 O.2   229  ASP229     -0.2867
    122  CB        18.9830   37.2220   63.4940 C.3   229  ASP229      0.1410
    123  CG        19.2430   36.8640   62.0420 C.2   229  ASP229      0.3668
    124  OD1       19.1760   37.7590   61.1790 O.co2 229  ASP229     -0.2456
    125  OD2       19.5230   35.6810   61.7820 O.co2 229  ASP229     -0.2456
    126  N         16.8990   38.2930   59.8240 N.3   231  GLY231     -0.1210
    127  CA        17.0970   37.3660   58.7160 C.3   231  GLY231      0.1956
    128  C         16.7140   35.9290   59.0050 C.2   231  GLY231      0.2612
    129  O         16.8110   35.0550   58.1330 O.2   231  GLY231     -0.2717
    130  N         16.2980   35.6880   60.2430 N.am  232  THR232     -0.1952
    131  CA        15.8520   34.3750   60.6990 C.3   232  THR232      0.1897
    132  C         14.3590   34.4460   60.9950 C.2   232  THR232      0.2313
    133  O         13.8840   35.4150   61.5870 O.2   232  THR232     -0.2863
    134  CB        16.5800   33.9360   61.9870 C.3   232  THR232      0.1794
    135  OG1       17.9640   33.7180   61.6960 O.3   232  THR232     -0.2208
    136  CG2       15.9530   32.6690   62.5600 C.3   232  THR232      0.0378
    137  N         14.8160   30.8960   67.8350 N.3   236  ARG236     -0.1245
    138  CA        15.6280   29.6860   67.8790 C.3   236  ARG236      0.1563
    139  C         16.2870   29.6380   69.2540 C.2   236  ARG236      0.2260
    140  O         16.8340   30.6340   69.7110 O.2   236  ARG236     -0.2867
    141  CB        16.6410   29.6680   66.7280 C.3   236  ARG236      0.0307
    142  CG        15.9600   29.7610   65.3570 C.3   236  ARG236      0.0489
    143  CD        16.9390   29.5110   64.2190 C.3   236  ARG236      0.2205
    144  NE        17.3670   28.1190   64.1850 N.pl3 236  ARG236     -0.0865
    145  CZ        18.6250   27.7330   63.9990 C.cat 236  ARG236      0.5346
    146  NH1       18.9280   26.4410   63.9820 N.pl3 236  ARG236      0.1354
    147  NH2       19.5820   28.6420   63.8440 N.pl3 236  ARG236      0.1354
    148  N         23.6670   27.0830   67.5180 N.3   330  THR330     -0.1218
    149  CA        24.4800   28.2970   67.4540 C.3   330  THR330      0.1862
    150  C         23.9950   29.4250   68.3530 C.2   330  THR330      0.2287
    151  O         24.2420   30.6080   68.0770 O.2   330  THR330     -0.2866
    152  CB        24.5950   28.8310   66.0120 C.3   330  THR330      0.1770
    153  OG1       23.2900   29.1310   65.4990 O.3   330  THR330     -0.2211
    154  CG2       25.2760   27.7990   65.1210 C.3   330  THR330      0.0375
    155  N         18.3950   32.7340   68.8490 N.3   333  VAL333     -0.1245
    156  CA        18.2040   33.6690   67.7560 C.3   333  VAL333      0.1561
    157  C         16.8190   34.2830   67.8800 C.2   333  VAL333      0.2260
    158  O         15.8090   33.5820   67.7740 O.2   333  VAL333     -0.2867
    159  CB        18.3220   32.9930   66.3680 C.3   333  VAL333      0.0252
    160  CG1       18.1100   34.0440   65.2730 C.3   333  VAL333      0.0019
    161  CG2       19.6770   32.3010   66.2460 C.3   333  VAL333      0.0019
@<TRIPOS>BOND
     1    70    69    2
     2    69    68    1
     3    62    61    2
     4    61    60    1
     5    67    68    1
     6    47    46    1
     7    68    71    1
     8    59    60    1
     9    39    40    1
    10    46    45    1
    11    60    63    1
    12    55    57   ar
    13    55    53   ar
    14    45    44    1
    15    52    53    1
    16    52    49    1
    17    48    49    1
    18    48    41   am
    19    57    58   ar
    20    71    72    1
    21    50    49    1
    22    50    51    2
    23    40    41    1
    24    40    43    1
    25    77    79   ar
    26    77    74   ar
    27    53    54   ar
    28    63    65    1
    29    63    64    1
    30    44    43    1
    31    79    80   ar
    32    41    42    2
    33    72    74   ar
    34    72    73   ar
    35    74    76   ar
    36    81    82    1
    37    58    56   ar
    38    80    78   ar
    39    54    56   ar
    40    73    75   ar
    41    64    66    1
    42    76    78   ar
    43    76    75   ar
    44    82    83    1
    45    82    85    1
    46    84    83    2
    47     1     2    1
    48    87    85    1
    49    85    86    1
    50     2     5    1
    51     2     3    1
    52     5     6    1
    53    86    88    1
    54     4     3    2
    55    36    34   ar
    56    36    37   ar
    57     8     6    1
    58    34    32   ar
    59     6     7    1
    60    27    28    1
    61    30    29    2
    62    38    37    1
    63    37    35   ar
    64    32    31    1
    65    32    33   ar
    66    31    28    1
    67    28    29    1
    68    35    33   ar
    69    26    25    1
    70    13    14    1
    71    13    10    1
    72    16    14   ar
    73     9    10    1
    74    25    22    1
    75    14    15   ar
    76    10    11    1
    77   129   128    2
    78    23    22    1
    79    23    24    2
    80    12    11    2
    81    22    21    1
    82   127   128    1
    83   127   126    1
    84   128   130   am
    85    21    19   am
    86   130   131    1
    87    19    20    2
    88    19    18    1
    89   131   132    1
    90   131   134    1
    91    17    18    1
    92   132   133    2
    93   124   123   ar
    94   135   134    1
    95   125   123   ar
    96   134   136    1
    97   123   122    1
    98   121   120    2
    99   120   119    1
   100   100    99    1
   101    97    99   ar
   102    97    95   ar
   103   122   119    1
   104   119   118    1
   105    99    98   ar
   106   147   145    1
   107    95    94   ar
   108   146   145    1
   109   145   144    2
   110   144   143    1
   111   143   142    1
   112    98    96   ar
   113   154   152    1
   114    94    96   ar
   115    94    93    1
   116   160   159    1
   117   142   141    1
   118   117   115    1
   119    90    89    1
   120    90    93    1
   121    90    91    1
   122   153   152    1
   123   152   149    1
   124   161   159    1
   125   159   156    1
   126    91    92    2
   127   141   138    1
   128   115   114    1
   129   108   109    1
   130   108   107    1
   131   149   148    1
   132   149   150    1
   133   114   116    1
   134   114   111    1
   135   156   157    1
   136   156   155    1
   137   158   157    2
   138   137   138    1
   139   138   139    1
   140   151   150    2
   141   112   113    2
   142   112   111    1
   143   107   106    1
   144   111   110    1
   145   139   140    2
   146   106   105    1
   147   105   102    1
   148   104   103    2
   149   103   102    1
   150   102   101    1
