@<TRIPOS>MOLECULE
tmp/3l5cB01.pdb
 188 178 0 0 0
SMALL
GASTEIGER

@<TRIPOS>ATOM
      1  N         16.5770   42.0550   51.1370 N.3    34  LEU34      -0.1245
      2  CA        16.2840   41.4580   52.4440 C.3    34  LEU34       0.1561
      3  C         16.9800   42.2230   53.5740 C.2    34  LEU34       0.2260
      4  O         18.1950   42.4000   53.5330 O.2    34  LEU34      -0.2867
      5  CB        16.7610   40.0080   52.4830 C.3    34  LEU34       0.0270
      6  CG        16.5350   39.2000   53.7670 C.3    34  LEU34       0.0019
      7  CD1       15.0360   39.0670   54.0640 C.3    34  LEU34       0.0001
      8  CD2       17.1890   37.8280   53.6630 C.3    34  LEU34       0.0001
      9  N         18.6040   42.1820   56.8940 N.3    36  ASP36      -0.1239
     10  CA        19.1490   41.1310   57.7580 C.3    36  ASP36       0.1674
     11  C         20.1220   41.5960   58.8470 C.2    36  ASP36       0.2266
     12  O         21.2770   41.9150   58.5620 O.2    36  ASP36      -0.2867
     13  CB        19.8050   40.0280   56.8980 C.3    36  ASP36       0.1410
     14  CG        20.3400   38.8720   57.7370 C.2    36  ASP36       0.3668
     15  OD1       19.8470   38.7120   58.8690 O.co2  36  ASP36      -0.2456
     16  OD2       21.2210   38.1140   57.2640 O.co2  36  ASP36      -0.2456
     17  N         21.3420   39.7280   61.0510 N.3    38  GLY38      -0.1210
     18  CA        22.1870   38.6140   61.4380 C.3    38  GLY38       0.1956
     19  C         23.3520   38.3710   60.4880 C.2    38  GLY38       0.2612
     20  O         23.9720   37.3070   60.5260 O.2    38  GLY38      -0.2717
     21  N         23.6490   39.3430   59.6300 N.am   39  SER39      -0.1952
     22  CA        24.7740   39.2060   58.6850 C.3    39  SER39       0.1924
     23  C         25.3390   40.5820   58.3860 C.2    39  SER39       0.2314
     24  O         24.7300   41.5910   58.7530 O.2    39  SER39      -0.2863
     25  CB        24.4030   38.4780   57.4000 C.3    39  SER39       0.2116
     26  OG        23.4370   39.1840   56.6610 O.3    39  SER39      -0.2180
     27  N         26.3960   28.8580   54.1900 N.3    75  TYR75      -0.1227
     28  CA        25.5470   28.7650   55.3760 C.3    75  TYR75       0.1736
     29  C         25.0720   27.3320   55.5590 C.2    75  TYR75       0.2596
     30  O         25.3570   26.4690   54.7310 O.2    75  TYR75      -0.2718
     31  CB        24.3510   29.7240   55.3190 C.3    75  TYR75       0.0548
     32  CG        24.6970   31.1950   55.3300 C.ar   75  TYR75      -0.0200
     33  CD1       25.3360   31.7600   56.4280 C.ar   75  TYR75      -0.0009
     34  CD2       24.3450   32.0280   54.2760 C.ar   75  TYR75      -0.0009
     35  CE1       25.6140   33.1080   56.4800 C.ar   75  TYR75       0.0417
     36  CE2       24.6200   33.3890   54.3210 C.ar   75  TYR75       0.0417
     37  CZ        25.2540   33.9180   55.4280 C.ar   75  TYR75       0.1957
     38  OH        25.5400   35.2620   55.4980 O.3    75  TYR75      -0.2866
     39  N         24.3490   27.0790   56.6460 N.am   76  THR76      -0.1953
     40  CA        23.8360   25.7420   56.9130 C.3    76  THR76       0.1897
     41  C         22.5650   25.4970   56.1080 C.2    76  THR76       0.2313
     42  O         22.5670   24.7300   55.1470 O.2    76  THR76      -0.2863
     43  CB        23.5130   25.5520   58.4090 C.3    76  THR76       0.1794
     44  OG1       24.7000   25.7590   59.1830 O.3    76  THR76      -0.2208
     45  CG2       22.9920   24.1360   58.6650 C.3    76  THR76       0.0378
     46  N         23.6610   29.3650   50.8480 N.3    77  LYS77      -0.1245
     47  CA        25.0200   29.4260   50.3180 C.3    77  LYS77       0.1561
     48  C         25.0900   30.2620   49.0500 C.2    77  LYS77       0.2260
     49  O         24.3170   30.0530   48.1230 O.2    77  LYS77      -0.2867
     50  CB        25.5820   28.0290   50.0700 C.3    77  LYS77       0.0271
     51  CG        25.6390   27.1700   51.3220 C.3    77  LYS77       0.0035
     52  CD        26.2460   25.8110   51.0390 C.3    77  LYS77       0.0206
     53  CE        26.2560   24.9510   52.2950 C.3    77  LYS77       0.1093
     54  NZ        26.9120   23.6360   52.0590 N.3    77  LYS77      -0.1314
     55  N         20.2250   27.2220   47.4160 N.3   109  LYS109     -0.1231
     56  CA        19.1890   27.4070   48.4260 C.3   109  LYS109      0.1693
     57  C         19.1910   28.7800   49.1040 C.2   109  LYS109      0.2592
     58  O         18.6470   28.9350   50.1950 O.2   109  LYS109     -0.2718
     59  CB        19.2230   26.2760   49.4600 C.3   109  LYS109      0.0285
     60  CG        18.9900   24.8910   48.8610 C.3   109  LYS109      0.0035
     61  CD        18.8480   23.8300   49.9420 C.3   109  LYS109      0.0206
     62  CE        20.1190   23.6870   50.7650 C.3   109  LYS109      0.1093
     63  NZ        21.2600   23.1900   49.9410 N.3   109  LYS109     -0.1314
     64  N         19.8130   29.7700   48.4710 N.am  110  PHE110     -0.1962
     65  CA        19.8590   31.1150   49.0430 C.3   110  PHE110      0.1771
     66  C         18.5830   31.8770   48.7050 C.2   110  PHE110      0.2620
     67  O         17.8300   32.2870   49.5950 O.2   110  PHE110     -0.2715
     68  CB        21.0910   31.8920   48.5750 C.3   110  PHE110      0.0574
     69  CG        21.1740   33.2870   49.1420 C.ar  110  PHE110     -0.0200
     70  CD1       21.3340   33.4860   50.5050 C.ar  110  PHE110     -0.0042
     71  CD2       21.0980   34.3960   48.3100 C.ar  110  PHE110     -0.0042
     72  CE1       21.4230   34.7650   51.0270 C.ar  110  PHE110     -0.0003
     73  CE2       21.1850   35.6740   48.8230 C.ar  110  PHE110     -0.0003
     74  CZ        21.3490   35.8630   50.1770 C.ar  110  PHE110     -0.0000
     75  N         18.3450   32.0800   47.4140 N.am  111  PHE111     -0.1960
     76  CA        17.1420   32.7710   46.9870 C.3   111  PHE111      0.1771
     77  C         15.9110   31.9350   47.3090 C.2   111  PHE111      0.2619
     78  O         15.9540   30.7020   47.2660 O.2   111  PHE111     -0.2715
     79  CB        17.2050   33.1580   45.5140 C.3   111  PHE111      0.0574
     80  CG        18.3300   34.0940   45.1970 C.ar  111  PHE111     -0.0200
     81  CD1       19.3660   33.7090   44.3670 C.ar  111  PHE111     -0.0042
     82  CD2       18.3660   35.3560   45.7640 C.ar  111  PHE111     -0.0042
     83  CE1       20.4200   34.5690   44.1110 C.ar  111  PHE111     -0.0003
     84  CE2       19.4170   36.2160   45.5120 C.ar  111  PHE111     -0.0003
     85  CZ        20.4440   35.8190   44.6830 C.ar  111  PHE111     -0.0000
     86  N         14.8250   32.6140   47.6540 N.am  112  ILE112     -0.1977
     87  CA        13.5760   31.9450   48.0070 C.3   112  ILE112      0.1596
     88  C         12.5160   32.2380   46.9580 C.2   112  ILE112      0.2287
     89  O         12.2020   33.3910   46.6820 O.2   112  ILE112     -0.2864
     90  CB        13.0750   32.4210   49.3820 C.3   112  ILE112      0.0276
     91  CG1       14.1320   32.1160   50.4490 C.3   112  ILE112      0.0022
     92  CG2       11.7520   31.7290   49.7280 C.3   112  ILE112      0.0022
     93  CD1       13.7350   32.5570   51.8530 C.3   112  ILE112      0.0001
     94  N         12.4670   39.3990   46.7270 N.3   117  TRP117     -0.1241
     95  CA        13.7360   40.0830   46.9970 C.3   117  TRP117      0.1605
     96  C         14.8740   39.5090   46.1600 C.2   117  TRP117      0.2264
     97  O         14.8840   38.3200   45.8380 O.2   117  TRP117     -0.2867
     98  CB        14.0880   40.2130   48.5000 C.3   117  TRP117      0.0550
     99  CG        14.1580   38.9470   49.3190 C.ar  117  TRP117      0.0003
    100  CD1       13.1980   38.4910   50.1780 C.ar  117  TRP117      0.0946
    101  CD2       15.2520   38.0210   49.4160 C.ar  117  TRP117      0.0152
    102  NE1       13.6250   37.3470   50.8070 N.ar  117  TRP117     -0.2442
    103  CE2       14.8820   37.0360   50.3550 C.ar  117  TRP117      0.0810
    104  CE3       16.5090   37.9290   48.8010 C.ar  117  TRP117      0.0012
    105  CZ2       15.7180   35.9770   50.6950 C.ar  117  TRP117      0.0191
    106  CZ3       17.3370   36.8780   49.1400 C.ar  117  TRP117      0.0001
    107  CH2       16.9420   35.9150   50.0770 C.ar  117  TRP117      0.0015
    108  N         20.5200   40.9150   49.7030 N.3   120  ILE120     -0.1245
    109  CA        20.4640   40.9280   51.1520 C.3   120  ILE120      0.1561
    110  C         21.2800   42.0990   51.6860 C.2   120  ILE120      0.2260
    111  O         22.3510   42.4090   51.1580 O.2   120  ILE120     -0.2867
    112  CB        20.9940   39.5740   51.7070 C.3   120  ILE120      0.0252
    113  CG1       20.8790   39.5240   53.2280 C.3   120  ILE120      0.0019
    114  CG2       22.4590   39.3810   51.2920 C.3   120  ILE120      0.0019
    115  CD1       21.3100   38.1910   53.8070 C.3   120  ILE120      0.0001
    116  N         27.6080   40.1550   65.9490 N.3   200  TYR200     -0.1241
    117  CA        26.1910   39.9810   65.6490 C.3   200  TYR200      0.1605
    118  C         25.6020   41.0110   66.6110 C.2   200  TYR200      0.2264
    119  O         26.3450   41.6410   67.3620 O.2   200  TYR200     -0.2867
    120  CB        25.6620   38.6030   66.0640 C.3   200  TYR200      0.0534
    121  CG        26.2170   37.4320   65.3100 C.ar  200  TYR200     -0.0201
    122  CD1       25.6470   37.0540   64.1060 C.ar  200  TYR200     -0.0009
    123  CD2       27.3030   36.7070   65.7840 C.ar  200  TYR200     -0.0009
    124  CE1       26.1330   35.9890   63.3870 C.ar  200  TYR200      0.0417
    125  CE2       27.8040   35.6260   65.0630 C.ar  200  TYR200      0.0417
    126  CZ        27.2080   35.2770   63.8670 C.ar  200  TYR200      0.1957
    127  OH        27.6640   34.2020   63.1420 O.3   200  TYR200     -0.2866
    128  N         25.5780   31.9230   72.3340 N.3   226  LYS226     -0.1245
    129  CA        25.3360   33.3540   72.1910 C.3   226  LYS226      0.1561
    130  C         23.8410   33.5600   71.9570 C.2   226  LYS226      0.2260
    131  O         23.1290   32.6160   71.6260 O.2   226  LYS226     -0.2867
    132  CB        26.1220   33.9700   71.0290 C.3   226  LYS226      0.0271
    133  CG        25.7550   33.3940   69.6670 C.3   226  LYS226      0.0035
    134  CD        26.5810   34.0070   68.5530 C.3   226  LYS226      0.0206
    135  CE        26.3840   33.2310   67.2590 C.3   226  LYS226      0.1093
    136  NZ        26.7600   31.7890   67.4310 N.3   226  LYS226     -0.1314
    137  N         21.3640   36.3120   69.8450 N.3   228  ILE228     -0.1245
    138  CA        21.3920   37.4310   68.9110 C.3   228  ILE228      0.1561
    139  C         19.9990   37.8140   68.4360 C.2   228  ILE228      0.2260
    140  O         19.0460   37.0490   68.5890 O.2   228  ILE228     -0.2867
    141  CB        22.2220   37.1000   67.6370 C.3   228  ILE228      0.0252
    142  CG1       21.5600   35.9720   66.8480 C.3   228  ILE228      0.0019
    143  CG2       23.6240   36.6320   68.0410 C.3   228  ILE228      0.0019
    144  CD1       22.2980   35.6150   65.5530 C.3   228  ILE228      0.0001
    145  N         18.1290   38.5290   65.1330 N.3   230  ASP230     -0.1239
    146  CA        18.3430   38.2390   63.7130 C.3   230  ASP230      0.1674
    147  C         17.0880   38.3010   62.8360 C.2   230  ASP230      0.2266
    148  O         16.2910   37.3690   62.8130 O.2   230  ASP230     -0.2867
    149  CB        19.0140   36.8640   63.6430 C.3   230  ASP230      0.1410
    150  CG        19.3050   36.3960   62.2350 C.2   230  ASP230      0.3668
    151  OD1       19.2360   37.1940   61.2870 O.co2 230  ASP230     -0.2456
    152  OD2       19.6150   35.1980   62.0980 O.co2 230  ASP230     -0.2456
    153  N         16.9820   38.0410   59.7770 N.3   232  GLY232     -0.1210
    154  CA        17.1730   37.1750   58.6300 C.3   232  GLY232      0.1956
    155  C         16.7520   35.7370   58.8440 C.2   232  GLY232      0.2612
    156  O         16.8490   34.9130   57.9330 O.2   232  GLY232     -0.2717
    157  N         16.2860   35.4210   60.0450 N.am  233  THR233     -0.1952
    158  CA        15.8420   34.0690   60.3250 C.3   233  THR233      0.1897
    159  C         14.3800   34.1690   60.7940 C.2   233  THR233      0.2313
    160  O         13.9840   35.1450   61.4450 O.2   233  THR233     -0.2863
    161  CB        16.7250   33.3950   61.3910 C.3   233  THR233      0.1794
    162  OG1       16.3290   32.0270   61.5330 O.3   233  THR233     -0.2208
    163  CG2       16.5540   34.0870   62.7370 C.3   233  THR233      0.0378
    164  N         14.7600   30.6380   67.9000 N.3   237  ARG237     -0.1245
    165  CA        15.5610   29.4320   67.9760 C.3   237  ARG237      0.1563
    166  C         16.2310   29.4000   69.3350 C.2   237  ARG237      0.2260
    167  O         16.7950   30.3960   69.7880 O.2   237  ARG237     -0.2867
    168  CB        16.5250   29.3410   66.7890 C.3   237  ARG237      0.0307
    169  CG        15.7660   29.2950   65.4600 C.3   237  ARG237      0.0489
    170  CD        16.6810   29.3770   64.2420 C.3   237  ARG237      0.2205
    171  NE        17.7340   28.3620   64.2280 N.pl3 237  ARG237     -0.0865
    172  CZ        17.5370   27.0480   64.1280 C.cat 237  ARG237      0.5346
    173  NH1       18.5730   26.2160   64.1320 N.pl3 237  ARG237      0.1354
    174  NH2       16.3140   26.5550   64.0180 N.pl3 237  ARG237      0.1354
    175  N         23.5180   26.9240   67.5350 N.3   331  THR331     -0.1218
    176  CA        24.3380   28.1300   67.4740 C.3   331  THR331      0.1862
    177  C         23.8900   29.2300   68.4290 C.2   331  THR331      0.2287
    178  O         24.1320   30.4150   68.1770 O.2   331  THR331     -0.2866
    179  CB        24.3830   28.7170   66.0430 C.3   331  THR331      0.1770
    180  OG1       23.0630   29.0890   65.6250 O.3   331  THR331     -0.2211
    181  CG2       24.9490   27.6840   65.0650 C.3   331  THR331      0.0375
    182  N         18.3520   32.5770   69.0120 N.3   334  VAL334     -0.1245
    183  CA        18.1720   33.5090   67.9190 C.3   334  VAL334      0.1561
    184  C         16.7750   34.1120   67.9830 C.2   334  VAL334      0.2260
    185  O         15.7750   33.4000   67.8530 O.2   334  VAL334     -0.2867
    186  CB        18.3420   32.8240   66.5490 C.3   334  VAL334      0.0252
    187  CG1       18.1880   33.8650   65.4390 C.3   334  VAL334      0.0019
    188  CG2       19.6880   32.0960   66.4850 C.3   334  VAL334      0.0019
@<TRIPOS>BOND
     1    83    81   ar
     2    83    85   ar
     3    81    80   ar
     4    85    84   ar
     5    80    79    1
     6    80    82   ar
     7    84    82   ar
     8    79    76    1
     9    97    96    2
    10    96    95    1
    11    89    88    2
    12    94    95    1
    13    88    87    1
    14    76    77    1
    15    76    75    1
    16    95    98    1
    17    78    77    2
    18    77    86   am
    19    75    66   am
    20    55    56    1
    21    86    87    1
    22    87    90    1
    23    49    48    2
    24    71    73   ar
    25    71    69   ar
    26    56    57    1
    27    56    59    1
    28    64    65    1
    29    64    57   am
    30    98    99    1
    31    68    65    1
    32    68    69    1
    33    66    65    1
    34    66    67    2
    35   104   106   ar
    36   104   101   ar
    37    73    74   ar
    38    60    59    1
    39    60    61    1
    40    48    47    1
    41    57    58    2
    42   106   107   ar
    43    69    70   ar
    44    99   101   ar
    45    99   100   ar
    46    90    92    1
    47    90    91    1
    48   101   103   ar
    49   108   109    1
    50    63    62    1
    51    61    62    1
    52    50    47    1
    53    50    51    1
    54   107   105   ar
    55    74    72   ar
    56   100   102   ar
    57    47    46    1
    58   103   105   ar
    59   103   102   ar
    60    91    93    1
    61    70    72   ar
    62    52    51    1
    63    52    53    1
    64     1     2    1
    65   109   110    1
    66   109   112    1
    67   111   110    2
    68   114   112    1
    69   112   113    1
    70    54    53    1
    71     2     5    1
    72     2     3    1
    73     5     6    1
    74   113   115    1
    75     4     3    2
    76     8     6    1
    77     6     7    1
    78    27    28    1
    79    34    36   ar
    80    34    32   ar
    81    36    37   ar
    82    30    29    2
    83    42    41    2
    84    31    32    1
    85    31    28    1
    86    32    33   ar
    87    28    29    1
    88    37    38    1
    89    37    35   ar
    90    29    39   am
    91    41    40    1
    92    33    35   ar
    93    39    40    1
    94    26    25    1
    95     9    10    1
    96    13    14    1
    97    13    10    1
    98    40    43    1
    99    16    14   ar
   100    25    22    1
   101    14    15   ar
   102    10    11    1
   103   156   155    2
   104    23    22    1
   105    23    24    2
   106    43    45    1
   107    43    44    1
   108    12    11    2
   109   154   155    1
   110   154   153    1
   111    22    21    1
   112   155   157   am
   113    21    19   am
   114   157   158    1
   115   158   159    1
   116   158   161    1
   117    19    20    2
   118    19    18    1
   119   159   160    2
   120    17    18    1
   121   151   150   ar
   122   161   162    1
   123   161   163    1
   124   152   150   ar
   125   150   149    1
   126   148   147    2
   127   147   146    1
   128   127   126    1
   129   124   126   ar
   130   124   122   ar
   131   149   146    1
   132   146   145    1
   133   126   125   ar
   134   174   172    1
   135   122   121   ar
   136   172   173    1
   137   172   171    2
   138   171   170    1
   139   170   169    1
   140   125   123   ar
   141   181   179    1
   142   121   123   ar
   143   121   120    1
   144   187   186    1
   145   169   168    1
   146   144   142    1
   147   180   179    1
   148   117   116    1
   149   117   120    1
   150   117   118    1
   151   179   176    1
   152   188   186    1
   153   186   183    1
   154   118   119    2
   155   168   165    1
   156   142   141    1
   157   135   136    1
   158   135   134    1
   159   176   175    1
   160   176   177    1
   161   141   143    1
   162   141   138    1
   163   185   184    2
   164   164   165    1
   165   183   184    1
   166   183   182    1
   167   165   166    1
   168   178   177    2
   169   139   140    2
   170   139   138    1
   171   134   133    1
   172   138   137    1
   173   166   167    2
   174   133   132    1
   175   132   129    1
   176   131   130    2
   177   130   129    1
   178   129   128    1
