@<TRIPOS>MOLECULE
tmp/3l5dB02.pdb
 183 176 0 0 0
SMALL
GASTEIGER

@<TRIPOS>ATOM
      1  N          7.3950   36.9110   57.6430 N.3    14  SER14      -0.1202
      2  CA         8.4110   36.1680   58.3970 C.3    14  SER14       0.2020
      3  C          9.0300   34.9580   57.7150 C.2    14  SER14       0.2619
      4  O         10.2370   34.7070   57.8490 O.2    14  SER14      -0.2717
      5  CB         7.8720   35.7430   59.7660 C.3    14  SER14       0.2103
      6  OG         6.7500   34.8830   59.6210 O.3    14  SER14      -0.2182
      7  N          8.2080   34.2230   56.9730 N.am   15  GLY15      -0.1942
      8  CA         8.6790   33.0180   56.3180 C.3    15  GLY15       0.2014
      9  C          9.6210   33.2250   55.1540 C.2    15  GLY15       0.2639
     10  O         10.4580   32.3640   54.8790 O.2    15  GLY15      -0.2714
     11  N          9.4950   34.3540   54.4690 N.am   16  GLN16      -0.1963
     12  CA        10.3640   34.6150   53.3280 C.3    16  GLN16       0.1733
     13  C         11.2400   35.8540   53.4550 C.2    16  GLN16       0.2616
     14  O         12.0630   36.1310   52.5820 O.2    16  GLN16      -0.2715
     15  CB         9.5810   34.6110   52.0190 C.3    16  GLN16       0.0408
     16  CG         8.8900   33.2860   51.7530 C.3    16  GLN16       0.0908
     17  CD         8.1420   33.2580   50.4330 C.2    16  GLN16       0.2608
     18  OE1        7.4090   34.1900   50.0900 O.2    16  GLN16      -0.2717
     19  NE2        8.3290   32.1780   49.6810 N.am   16  GLN16      -0.0878
     20  N         11.0580   36.5800   54.5540 N.am   17  GLY17      -0.1955
     21  CA        11.8370   37.7700   54.8280 C.3    17  GLY17       0.1869
     22  C         11.1870   39.0920   54.4650 C.2    17  GLY17       0.2309
     23  O         10.3020   39.1480   53.6090 O.2    17  GLY17      -0.2863
     24  N         16.5740   42.1060   50.9930 N.3    34  LEU34      -0.1245
     25  CA        16.2680   41.5310   52.3050 C.3    34  LEU34       0.1561
     26  C         16.9450   42.3140   53.4340 C.2    34  LEU34       0.2260
     27  O         18.1550   42.5250   53.3930 O.2    34  LEU34      -0.2867
     28  CB        16.7550   40.0870   52.3820 C.3    34  LEU34       0.0270
     29  CG        16.5250   39.2980   53.6800 C.3    34  LEU34       0.0019
     30  CD1       15.0310   39.1420   53.9850 C.3    34  LEU34       0.0001
     31  CD2       17.1930   37.9210   53.6290 C.3    34  LEU34       0.0001
     32  N         18.5640   42.2130   56.6920 N.3    36  ASP36      -0.1239
     33  CA        19.1460   41.1320   57.4930 C.3    36  ASP36       0.1674
     34  C         20.1010   41.5830   58.5970 C.2    36  ASP36       0.2266
     35  O         21.2690   41.8730   58.3320 O.2    36  ASP36      -0.2867
     36  CB        19.8390   40.1300   56.5490 C.3    36  ASP36       0.1410
     37  CG        20.4360   38.9270   57.2790 C.2    36  ASP36       0.3668
     38  OD1       20.0340   38.6670   58.4260 O.co2  36  ASP36      -0.2456
     39  OD2       21.2940   38.2340   56.6870 O.co2  36  ASP36      -0.2456
     40  N         21.3040   39.7430   60.8040 N.3    38  GLY38      -0.1210
     41  CA        22.1540   38.6240   61.1710 C.3    38  GLY38       0.1956
     42  C         23.3670   38.3970   60.2800 C.2    38  GLY38       0.2612
     43  O         24.0290   37.3620   60.3840 O.2    38  GLY38      -0.2717
     44  N         23.6620   39.3470   59.4020 N.am   39  SER39      -0.1952
     45  CA        24.8200   39.2250   58.5050 C.3    39  SER39       0.1924
     46  C         25.3660   40.6230   58.2150 C.2    39  SER39       0.2314
     47  O         24.7390   41.6250   58.5650 O.2    39  SER39      -0.2863
     48  CB        24.4820   38.5120   57.2080 C.3    39  SER39       0.2116
     49  OG        23.5390   39.2500   56.4790 O.3    39  SER39      -0.2180
     50  N         30.3990   32.4970   50.6030 N.3    73  VAL73      -0.1245
     51  CA        29.6560   32.4250   51.8460 C.3    73  VAL73       0.1561
     52  C         28.8280   31.1540   51.9420 C.2    73  VAL73       0.2260
     53  O         27.6790   31.1100   51.5220 O.2    73  VAL73      -0.2867
     54  CB        28.7270   33.6390   52.0040 C.3    73  VAL73       0.0252
     55  CG1       27.9650   33.5390   53.3250 C.3    73  VAL73       0.0019
     56  CG2       29.5500   34.9240   51.9110 C.3    73  VAL73       0.0019
     57  N         26.9310   27.9970   54.0000 N.3    75  TYR75      -0.1241
     58  CA        26.0940   27.7970   55.1760 C.3    75  TYR75       0.1605
     59  C         25.3360   26.4810   55.0590 C.2    75  TYR75       0.2264
     60  O         24.7970   26.1740   54.0000 O.2    75  TYR75      -0.2867
     61  CB        25.1590   28.9860   55.4020 C.3    75  TYR75       0.0534
     62  CG        24.2620   29.2990   54.2300 C.ar   75  TYR75      -0.0201
     63  CD1       24.5070   30.4080   53.4250 C.ar   75  TYR75      -0.0009
     64  CD2       23.1830   28.4810   53.9110 C.ar   75  TYR75      -0.0009
     65  CE1       23.7080   30.6930   52.3410 C.ar   75  TYR75       0.0417
     66  CE2       22.3780   28.7590   52.8220 C.ar   75  TYR75       0.0417
     67  CZ        22.6470   29.8680   52.0410 C.ar   75  TYR75       0.1957
     68  OH        21.8540   30.1500   50.9520 O.3    75  TYR75      -0.2866
     69  N         26.1290   31.2680   48.8530 N.3    80  TRP80      -0.1241
     70  CA        26.0210   32.3100   47.8410 C.3    80  TRP80       0.1605
     71  C         27.5100   32.5800   47.5890 C.2    80  TRP80       0.2264
     72  O         28.3220   32.6040   48.5200 O.2    80  TRP80      -0.2867
     73  CB        25.1980   33.5620   48.1890 C.3    80  TRP80       0.0550
     74  CG        25.6600   34.4670   49.2570 C.ar   80  TRP80       0.0003
     75  CD1       25.1430   34.5870   50.5110 C.ar   80  TRP80       0.0946
     76  CD2       26.6570   35.4860   49.1340 C.ar   80  TRP80       0.0152
     77  NE1       25.7530   35.6230   51.1750 N.ar   80  TRP80      -0.2442
     78  CE2       26.6870   36.1920   50.3500 C.ar   80  TRP80       0.0810
     79  CE3       27.5260   35.8740   48.1080 C.ar   80  TRP80       0.0012
     80  CZ2       27.5500   37.2640   50.5720 C.ar   80  TRP80       0.0191
     81  CZ3       28.3820   36.9380   48.3320 C.ar   80  TRP80       0.0001
     82  CH2       28.3890   37.6210   49.5520 C.ar   80  TRP80       0.0015
     83  N         20.2650   27.1550   47.4450 N.3   111  LYS111     -0.1231
     84  CA        19.2860   27.2670   48.5220 C.3   111  LYS111      0.1693
     85  C         19.3500   28.6520   49.1730 C.2   111  LYS111      0.2592
     86  O         19.1330   28.8010   50.3750 O.2   111  LYS111     -0.2718
     87  CB        19.4570   26.1430   49.5510 C.3   111  LYS111      0.0285
     88  CG        19.3780   24.7550   48.9170 C.3   111  LYS111      0.0035
     89  CD        18.0500   24.5330   48.2010 C.3   111  LYS111      0.0206
     90  CE        17.9910   23.1470   47.5560 C.3   111  LYS111      0.1093
     91  NZ        16.7010   22.9070   46.8310 N.3   111  LYS111     -0.1314
     92  N         19.6710   29.6610   48.3720 N.am  112  PHE112     -0.1976
     93  CA        19.7670   31.0260   48.8700 C.3   112  PHE112      0.1639
     94  C         18.5160   31.8040   48.4860 C.2   112  PHE112      0.2290
     95  O         17.7600   32.2640   49.3460 O.2   112  PHE112     -0.2864
     96  CB        21.0220   31.7150   48.3470 C.3   112  PHE112      0.0560
     97  CG        21.1780   33.1280   48.8290 C.ar  112  PHE112     -0.0200
     98  CD1       21.4610   33.3940   50.1600 C.ar  112  PHE112     -0.0042
     99  CD2       21.0670   34.1890   47.9460 C.ar  112  PHE112     -0.0042
    100  CE1       21.6390   34.6970   50.6000 C.ar  112  PHE112     -0.0003
    101  CE2       21.2420   35.4920   48.3770 C.ar  112  PHE112     -0.0003
    102  CZ        21.5310   35.7450   49.7090 C.ar  112  PHE112     -0.0000
    103  N         14.7910   32.5250   47.2920 N.3   114  ILE114     -0.1245
    104  CA        13.5140   31.8950   47.6210 C.3   114  ILE114      0.1561
    105  C         12.4750   32.2290   46.5670 C.2   114  ILE114      0.2260
    106  O         12.1880   33.3910   46.3210 O.2   114  ILE114     -0.2867
    107  CB        13.0070   32.3910   48.9930 C.3   114  ILE114      0.0252
    108  CG1       14.0310   32.0340   50.0730 C.3   114  ILE114      0.0019
    109  CG2       11.6150   31.8160   49.2840 C.3   114  ILE114      0.0019
    110  CD1       13.6500   32.5010   51.4640 C.3   114  ILE114      0.0001
    111  N         12.5090   39.3890   46.5700 N.3   119  TRP119     -0.1241
    112  CA        13.7830   40.0760   46.8370 C.3   119  TRP119      0.1605
    113  C         14.9210   39.5070   45.9930 C.2   119  TRP119      0.2264
    114  O         14.9210   38.3130   45.6810 O.2   119  TRP119     -0.2867
    115  CB        14.1430   40.1890   48.3380 C.3   119  TRP119      0.0550
    116  CG        14.2060   38.9170   49.1550 C.ar  119  TRP119      0.0003
    117  CD1       13.2380   38.4600   50.0150 C.ar  119  TRP119      0.0946
    118  CD2       15.3010   37.9940   49.2670 C.ar  119  TRP119      0.0152
    119  NE1       13.6660   37.3250   50.6560 N.ar  119  TRP119     -0.2442
    120  CE2       14.9270   37.0150   50.2160 C.ar  119  TRP119      0.0810
    121  CE3       16.5570   37.8960   48.6620 C.ar  119  TRP119      0.0012
    122  CZ2       15.7640   35.9610   50.5710 C.ar  119  TRP119      0.0191
    123  CZ3       17.3820   36.8560   49.0150 C.ar  119  TRP119      0.0001
    124  CH2       16.9860   35.8970   49.9620 C.ar  119  TRP119      0.0015
    125  N         20.5210   40.8560   49.5620 N.3   122  ILE122     -0.1245
    126  CA        20.4360   40.8910   51.0080 C.3   122  ILE122      0.1561
    127  C         21.2660   42.0600   51.5260 C.2   122  ILE122      0.2260
    128  O         22.3360   42.3540   50.9860 O.2   122  ILE122     -0.2867
    129  CB        20.9530   39.5510   51.5860 C.3   122  ILE122      0.0252
    130  CG1       20.7880   39.5080   53.0930 C.3   122  ILE122      0.0019
    131  CG2       22.4160   39.3500   51.1850 C.3   122  ILE122      0.0019
    132  CD1       21.2650   38.1790   53.6820 C.3   122  ILE122      0.0001
    133  N         18.0800   38.5410   64.9220 N.3   232  ASP232     -0.1225
    134  CA        18.2880   38.3020   63.4970 C.3   232  ASP232      0.1805
    135  C         17.0270   38.3550   62.6410 C.2   232  ASP232      0.2598
    136  O         16.2310   37.4250   62.6370 O.2   232  ASP232     -0.2718
    137  CB        19.0010   36.9590   63.3330 C.3   232  ASP232      0.1424
    138  CG        19.2630   36.5970   61.8840 C.2   232  ASP232      0.3668
    139  OD1       19.1490   37.4750   61.0120 O.co2 232  ASP232     -0.2456
    140  OD2       19.5940   35.4230   61.6290 O.co2 232  ASP232     -0.2456
    141  N         16.8580   39.4400   61.8950 N.am  233  SER233     -0.1938
    142  CA        15.6770   39.5870   61.0520 C.3   233  SER233      0.2055
    143  C         15.7210   38.6540   59.8420 C.2   233  SER233      0.2644
    144  O         14.7160   38.4840   59.1560 O.2   233  SER233     -0.2714
    145  CB        15.5120   41.0340   60.6020 C.3   233  SER233      0.2130
    146  OG        16.6470   41.4330   59.8540 O.3   233  SER233     -0.2179
    147  N         16.8820   38.0490   59.5980 N.am  234  GLY234     -0.1939
    148  CA        17.0540   37.1400   58.4770 C.3   234  GLY234      0.2014
    149  C         16.6400   35.7020   58.7450 C.2   234  GLY234      0.2640
    150  O         16.6630   34.8630   57.8460 O.2   234  GLY234     -0.2714
    151  N         16.2740   35.4250   59.9930 N.am  235  THR235     -0.1936
    152  CA        15.8120   34.1110   60.4350 C.3   235  THR235      0.2028
    153  C         14.3220   34.2070   60.7620 C.2   235  THR235      0.2643
    154  O         13.8870   35.1690   61.3830 O.2   235  THR235     -0.2714
    155  CB        16.5780   33.6400   61.6980 C.3   235  THR235      0.1808
    156  OG1       17.9410   33.3790   61.3540 O.3   235  THR235     -0.2208
    157  CG2       15.9290   32.4030   62.3150 C.3   235  THR235      0.0379
    158  N         13.5400   33.2170   60.3390 N.am  236  THR236     -0.1936
    159  CA        12.1010   33.2510   60.5980 C.3   236  THR236      0.2028
    160  C         11.7190   33.0000   62.0560 C.2   236  THR236      0.2642
    161  O         11.0350   33.8000   62.6890 O.2   236  THR236     -0.2714
    162  CB        11.3570   32.1830   59.7710 C.3   236  THR236      0.1808
    163  OG1       11.5640   32.4200   58.3720 O.3   236  THR236     -0.2208
    164  CG2        9.8560   32.2400   60.0760 C.3   236  THR236      0.0379
    165  N         12.1840   31.8710   62.5730 N.am  237  ASN237     -0.1971
    166  CA        11.8550   31.4110   63.9170 C.3   237  ASN237      0.1688
    167  C         12.6090   31.9490   65.1150 C.2   237  ASN237      0.2292
    168  O         13.6450   32.6050   65.0060 O.2   237  ASN237     -0.2864
    169  CB        11.9770   29.8820   64.0080 C.3   237  ASN237      0.1181
    170  CG        11.0380   29.1340   63.0730 C.2   237  ASN237      0.2629
    171  OD1       10.1360   29.7050   62.4640 O.2   237  ASN237     -0.2716
    172  ND2       11.2480   27.8250   62.9750 N.am  237  ASN237     -0.0877
    173  N         14.8020   30.6560   67.5970 N.3   239  ARG239     -0.1245
    174  CA        15.5900   29.4300   67.6660 C.3   239  ARG239      0.1563
    175  C         16.2370   29.3700   69.0490 C.2   239  ARG239      0.2260
    176  O         16.7480   30.3700   69.5550 O.2   239  ARG239     -0.2867
    177  CB        16.6170   29.3150   66.5270 C.3   239  ARG239      0.0307
    178  CG        15.9780   29.4640   65.1370 C.3   239  ARG239      0.0489
    179  CD        16.9770   29.2860   63.9930 C.3   239  ARG239      0.2205
    180  NE        17.5410   27.9350   64.0080 N.pl3 239  ARG239     -0.0865
    181  CZ        18.8390   27.6360   64.0210 C.cat 239  ARG239      0.5346
    182  NH1       19.2130   26.3610   64.0280 N.pl3 239  ARG239      0.1354
    183  NH2       19.7610   28.5940   64.0410 N.pl3 239  ARG239      0.1354
@<TRIPOS>BOND
     1   114   113    2
     2   113   112    1
     3   106   105    2
     4   105   104    1
     5   111   112    1
     6    91    90    1
     7   112   115    1
     8   103   104    1
     9    83    84    1
    10    90    89    1
    11    71    70    1
    12    71    72    2
    13   104   107    1
    14    70    73    1
    15    70    69    1
    16    99   101   ar
    17    99    97   ar
    18    79    81   ar
    19    79    76   ar
    20    73    74    1
    21    89    88    1
    22    81    82   ar
    23   115   116    1
    24    96    97    1
    25    96    93    1
    26    92    93    1
    27    92    85   am
    28   101   102   ar
    29    94    93    1
    30    94    95    2
    31    84    85    1
    32    84    87    1
    33   121   123   ar
    34   121   118   ar
    35    97    98   ar
    36    88    87    1
    37   107   109    1
    38   107   108    1
    39   123   124   ar
    40    76    74   ar
    41    76    78   ar
    42   116   118   ar
    43   116   117   ar
    44    85    86    2
    45    74    75   ar
    46   118   120   ar
    47    82    80   ar
    48   125   126    1
    49    19    17   am
    50   102   100   ar
    51   124   122   ar
    52   117   119   ar
    53   108   110    1
    54    18    17    2
    55    98   100   ar
    56   120   122   ar
    57   120   119   ar
    58    78    80   ar
    59    78    77   ar
    60    17    16    1
    61    75    77   ar
    62    50    51    1
    63    68    67    1
    64   128   127    2
    65    24    25    1
    66   126   127    1
    67   126   129    1
    68   131   129    1
    69    53    52    2
    70   129   130    1
    71    16    15    1
    72    51    52    1
    73    51    54    1
    74    56    54    1
    75    54    55    1
    76    15    12    1
    77    67    65   ar
    78    67    66   ar
    79    25    28    1
    80    25    26    1
    81    65    63   ar
    82    28    29    1
    83    14    13    2
    84    66    64   ar
    85   130   132    1
    86    12    13    1
    87    12    11    1
    88    27    26    2
    89    63    62   ar
    90    13    20   am
    91    23    22    2
    92    31    29    1
    93    29    30    1
    94    64    62   ar
    95    60    59    2
    96    57    58    1
    97    62    61    1
    98    22    21    1
    99    11     9   am
   100    20    21    1
   101    10     9    2
   102    59    58    1
   103     9     8    1
   104    58    61    1
   105     8     7    1
   106    49    48    1
   107    36    37    1
   108    36    33    1
   109    39    37   ar
   110    32    33    1
   111     7     3   am
   112    48    45    1
   113    37    38   ar
   114    33    34    1
   115     1     2    1
   116     3     4    2
   117     3     2    1
   118   150   149    2
   119    46    45    1
   120    46    47    2
   121    35    34    2
   122   163   162    1
   123     2     5    1
   124   148   149    1
   125   148   147    1
   126    45    44    1
   127   149   151   am
   128   144   143    2
   129    44    42   am
   130   147   143   am
   131     6     5    1
   132   162   164    1
   133   162   159    1
   134   143   142    1
   135   146   145    1
   136   151   152    1
   137    42    43    2
   138    42    41    1
   139   158   159    1
   140   158   153   am
   141   152   153    1
   142   152   155    1
   143   159   160    1
   144   145   142    1
   145   153   154    2
   146    40    41    1
   147   139   138   ar
   148   142   141    1
   149   156   155    1
   150   140   138   ar
   151   155   157    1
   152   138   137    1
   153   141   135   am
   154   160   165   am
   155   160   161    2
   156   171   170    2
   157   165   166    1
   158   136   135    2
   159   135   134    1
   160   172   170   am
   161   170   169    1
   162   137   134    1
   163   134   133    1
   164   166   169    1
   165   166   167    1
   166   179   180    1
   167   179   178    1
   168   180   181    2
   169   181   182    1
   170   181   183    1
   171   168   167    2
   172   178   177    1
   173   177   174    1
   174   173   174    1
   175   174   175    1
   176   175   176    2
