@<TRIPOS>MOLECULE
tmp/3l5fB01.pdb
 192 184 0 0 0
SMALL
GASTEIGER

@<TRIPOS>ATOM
      1  N         16.6080   42.1080   50.9410 N.3    34  LEU34      -0.1245
      2  CA        16.3000   41.5460   52.2630 C.3    34  LEU34       0.1561
      3  C         16.9990   42.3000   53.4030 C.2    34  LEU34       0.2260
      4  O         18.2150   42.4710   53.3580 O.2    34  LEU34      -0.2867
      5  CB        16.7440   40.0860   52.3230 C.3    34  LEU34       0.0270
      6  CG        16.5090   39.3690   53.6540 C.3    34  LEU34       0.0019
      7  CD1       15.0270   39.2410   53.9310 C.3    34  LEU34       0.0001
      8  CD2       17.1250   37.9750   53.6420 C.3    34  LEU34       0.0001
      9  N         18.6990   42.2370   56.6680 N.3    36  ASP36      -0.1239
     10  CA        19.2860   41.1480   57.4490 C.3    36  ASP36       0.1674
     11  C         20.2270   41.6200   58.5600 C.2    36  ASP36       0.2266
     12  O         21.3930   41.9250   58.3110 O.2    36  ASP36      -0.2867
     13  CB        20.0040   40.1890   56.4770 C.3    36  ASP36       0.1410
     14  CG        20.5990   38.9650   57.1600 C.2    36  ASP36       0.3668
     15  OD1       20.2520   38.6900   58.3070 O.co2  36  ASP36      -0.2456
     16  OD2       21.3880   38.2640   56.5120 O.co2  36  ASP36      -0.2456
     17  N         21.4240   39.8240   60.7460 N.3    38  GLY38      -0.1210
     18  CA        22.2520   38.6960   61.1210 C.3    38  GLY38       0.1956
     19  C         23.4510   38.4310   60.2130 C.2    38  GLY38       0.2612
     20  O         24.0450   37.3580   60.2910 O.2    38  GLY38      -0.2717
     21  N         23.7990   39.3830   59.3440 N.am   39  SER39      -0.1952
     22  CA        24.9660   39.2190   58.4630 C.3    39  SER39       0.1924
     23  C         25.5050   40.6170   58.1760 C.2    39  SER39       0.2314
     24  O         24.8830   41.6060   58.5690 O.2    39  SER39      -0.2863
     25  CB        24.6500   38.5050   57.1560 C.3    39  SER39       0.2116
     26  OG        23.7660   39.2700   56.3730 O.3    39  SER39      -0.2180
     27  N         27.2520   41.5550   54.8480 N.3    41  ASN41      -0.1240
     28  CA        27.5180   41.8030   53.4290 C.3    41  ASN41       0.1653
     29  C         26.3220   42.2920   52.6370 C.2    41  ASN41       0.2266
     30  O         25.2120   41.8340   52.8490 O.2    41  ASN41      -0.2867
     31  CB        28.0680   40.5860   52.6800 C.3    41  ASN41       0.1155
     32  CG        29.4510   40.2070   53.1010 C.2    41  ASN41       0.2627
     33  OD1       29.6700   39.6570   54.1710 O.2    41  ASN41      -0.2716
     34  ND2       30.4150   40.5180   52.2390 N.am   41  ASN41      -0.0877
     35  N         30.6140   32.2650   50.6720 N.3    73  VAL73      -0.1231
     36  CA        29.9770   32.2300   51.9730 C.3    73  VAL73       0.1678
     37  C         29.0370   31.0620   52.2160 C.2    73  VAL73       0.2434
     38  O         27.8560   31.1070   51.8900 O.2    73  VAL73      -0.2733
     39  CB        29.1890   33.5300   52.2220 C.3    73  VAL73       0.0265
     40  CG1       28.5480   33.5120   53.6240 C.3    73  VAL73       0.0020
     41  CG2       30.1090   34.7200   52.0680 C.3    73  VAL73       0.0020
     42  N         29.5670   29.9870   52.7970 N.am   74  PRO74      -0.2718
     43  CA        28.7570   28.8180   53.1060 C.3    74  PRO74       0.1535
     44  C         28.1110   29.1280   54.4640 C.2    74  PRO74       0.2599
     45  O         28.7760   29.6320   55.3730 O.2    74  PRO74      -0.2715
     46  CB        29.7920   27.7050   53.0820 C.3    74  PRO74       0.0310
     47  CG        30.8900   28.3420   53.8700 C.3    74  PRO74       0.0237
     48  CD        30.9810   29.7130   53.1270 C.3    74  PRO74       0.0939
     49  N         26.8100   28.8800   54.5890 N.am   75  TYR75      -0.1960
     50  CA        26.1030   29.1490   55.8440 C.3    75  TYR75       0.1771
     51  C         25.2360   27.9750   56.2810 C.2    75  TYR75       0.2620
     52  O         25.2630   26.9210   55.6450 O.2    75  TYR75      -0.2715
     53  CB        25.3190   30.4750   55.7880 C.3    75  TYR75       0.0574
     54  CG        24.3380   30.5840   54.6430 C.ar   75  TYR75      -0.0198
     55  CD1       24.7450   31.0900   53.4110 C.ar   75  TYR75      -0.0009
     56  CD2       23.0250   30.1370   54.7660 C.ar   75  TYR75      -0.0009
     57  CE1       23.8840   31.1440   52.3400 C.ar   75  TYR75       0.0417
     58  CE2       22.1510   30.1850   53.6880 C.ar   75  TYR75       0.0417
     59  CZ        22.5910   30.6890   52.4760 C.ar   75  TYR75       0.1957
     60  OH        21.7590   30.7100   51.3830 O.3    75  TYR75      -0.2866
     61  N         24.4780   28.1540   57.3610 N.am   76  THR76      -0.1951
     62  CA        23.6260   27.0810   57.8820 C.3    76  THR76       0.1897
     63  C         23.1500   26.1410   56.7840 C.2    76  THR76       0.2313
     64  O         23.8270   25.1730   56.4390 O.2    76  THR76      -0.2863
     65  CB        22.3930   27.6300   58.6440 C.3    76  THR76       0.1794
     66  OG1       22.8300   28.4230   59.7570 O.3    76  THR76      -0.2208
     67  CG2       21.5370   26.4790   59.1680 C.3    76  THR76       0.0378
     68  N         26.3250   31.1470   49.3010 N.3    80  TRP80      -0.1241
     69  CA        26.2290   32.1640   48.2540 C.3    80  TRP80       0.1605
     70  C         27.6710   32.4750   47.8710 C.2    80  TRP80       0.2264
     71  O         28.5680   32.4560   48.7130 O.2    80  TRP80      -0.2867
     72  CB        25.4540   33.4400   48.6100 C.3    80  TRP80       0.0550
     73  CG        26.0220   34.3390   49.6590 C.ar   80  TRP80       0.0003
     74  CD1       25.6830   34.3810   50.9800 C.ar   80  TRP80       0.0946
     75  CD2       26.9630   35.4070   49.4520 C.ar   80  TRP80       0.0152
     76  NE1       26.3460   35.4120   51.6070 N.ar   80  TRP80      -0.2442
     77  CE2       27.1390   36.0550   50.6890 C.ar   80  TRP80       0.0810
     78  CE3       27.6730   35.8770   48.3370 C.ar   80  TRP80       0.0012
     79  CZ2       27.9930   37.1490   50.8480 C.ar   80  TRP80       0.0191
     80  CZ3       28.5190   36.9580   48.4960 C.ar   80  TRP80       0.0001
     81  CH2       28.6750   37.5840   49.7410 C.ar   80  TRP80       0.0015
     82  N         20.2180   27.3790   47.9390 N.3   111  LYS111     -0.1231
     83  CA        19.2090   27.7050   48.9400 C.3   111  LYS111      0.1693
     84  C         19.3550   29.1230   49.4960 C.2   111  LYS111      0.2592
     85  O         19.2780   29.3480   50.7070 O.2   111  LYS111     -0.2718
     86  CB        19.1420   26.6410   50.0470 C.3   111  LYS111      0.0285
     87  CG        18.7530   25.2590   49.5170 C.3   111  LYS111      0.0035
     88  CD        18.6620   24.2010   50.6170 C.3   111  LYS111      0.0206
     89  CE        19.9700   23.9890   51.3560 C.3   111  LYS111      0.1093
     90  NZ        21.0610   23.5360   50.4520 N.3   111  LYS111     -0.1314
     91  N         19.5820   30.0750   48.5880 N.am  112  PHE112     -0.1976
     92  CA        19.7270   31.4830   48.9470 C.3   112  PHE112      0.1639
     93  C         18.4570   32.2010   48.4710 C.2   112  PHE112      0.2290
     94  O         17.6630   32.6980   49.2770 O.2   112  PHE112     -0.2864
     95  CB        20.9920   32.0870   48.3080 C.3   112  PHE112      0.0560
     96  CG        21.2490   33.5230   48.6830 C.ar  112  PHE112     -0.0200
     97  CD1       21.9160   33.8410   49.8580 C.ar  112  PHE112     -0.0042
     98  CD2       20.8670   34.5560   47.8370 C.ar  112  PHE112     -0.0042
     99  CE1       22.2040   35.1690   50.1780 C.ar  112  PHE112     -0.0003
    100  CE2       21.1500   35.8780   48.1550 C.ar  112  PHE112     -0.0003
    101  CZ        21.8160   36.1830   49.3180 C.ar  112  PHE112     -0.0000
    102  N         14.7520   32.7070   47.2070 N.3   114  ILE114     -0.1245
    103  CA        13.4840   32.0590   47.5520 C.3   114  ILE114      0.1561
    104  C         12.4530   32.3580   46.4810 C.2   114  ILE114      0.2260
    105  O         12.2060   33.5110   46.1500 O.2   114  ILE114     -0.2867
    106  CB        12.9670   32.5730   48.9030 C.3   114  ILE114      0.0252
    107  CG1       13.9830   32.2310   50.0000 C.3   114  ILE114      0.0019
    108  CG2       11.5930   31.9740   49.2060 C.3   114  ILE114      0.0019
    109  CD1       13.5800   32.7250   51.3900 C.3   114  ILE114      0.0001
    110  N         12.4750   39.4870   46.4550 N.3   119  TRP119     -0.1241
    111  CA        13.7550   40.1640   46.7210 C.3   119  TRP119      0.1605
    112  C         14.8980   39.5520   45.9100 C.2   119  TRP119      0.2264
    113  O         14.8710   38.3580   45.5920 O.2   119  TRP119     -0.2867
    114  CB        14.0790   40.3100   48.2230 C.3   119  TRP119      0.0550
    115  CG        14.1060   39.0500   49.0600 C.ar  119  TRP119      0.0003
    116  CD1       13.1360   38.6410   49.9450 C.ar  119  TRP119      0.0946
    117  CD2       15.1780   38.1050   49.1840 C.ar  119  TRP119      0.0152
    118  NE1       13.5480   37.5150   50.6120 N.ar  119  TRP119     -0.2442
    119  CE2       14.7940   37.1620   50.1660 C.ar  119  TRP119      0.0810
    120  CE3       16.4250   37.9630   48.5670 C.ar  119  TRP119      0.0012
    121  CZ2       15.6150   36.0960   50.5410 C.ar  119  TRP119      0.0191
    122  CZ3       17.2330   36.9120   48.9390 C.ar  119  TRP119      0.0001
    123  CH2       16.8290   35.9880   49.9180 C.ar  119  TRP119      0.0015
    124  N         20.5450   40.7290   49.5800 N.3   122  ILE122     -0.1245
    125  CA        20.3910   40.9000   51.0250 C.3   122  ILE122      0.1561
    126  C         21.2630   42.0380   51.5150 C.2   122  ILE122      0.2260
    127  O         22.3210   42.2940   50.9420 O.2   122  ILE122     -0.2867
    128  CB        20.7600   39.6340   51.8440 C.3   122  ILE122      0.0252
    129  CG1       22.2360   39.2850   51.7150 C.3   122  ILE122      0.0019
    130  CG2       19.9340   38.4570   51.3480 C.3   122  ILE122      0.0019
    131  CD1       22.6010   38.0500   52.6020 C.3   122  ILE122      0.0001
    132  N         32.0180   40.1790   61.1620 N.3   130  ILE130     -0.1245
    133  CA        31.4820   38.9950   60.5020 C.3   130  ILE130      0.1561
    134  C         31.2610   39.1680   59.0020 C.2   130  ILE130      0.2260
    135  O         30.5930   38.3520   58.3540 O.2   130  ILE130     -0.2867
    136  CB        30.1880   38.4620   61.1700 C.3   130  ILE130      0.0252
    137  CG1       29.0740   39.5100   61.1180 C.3   130  ILE130      0.0019
    138  CG2       30.5100   38.0370   62.6140 C.3   130  ILE130      0.0019
    139  CD1       27.7390   39.0040   61.6840 C.3   130  ILE130      0.0001
    140  N         32.3160   39.0360   55.1340 N.3   132  ARG132     -0.1245
    141  CA        33.1170   38.0910   54.3510 C.3   132  ARG132      0.1563
    142  C         33.6960   38.8140   53.1330 C.2   132  ARG132      0.2260
    143  O         33.0490   39.6790   52.5480 O.2   132  ARG132     -0.2867
    144  CB        32.3070   36.8780   53.9110 C.3   132  ARG132      0.0307
    145  CG        31.7480   36.0530   55.0770 C.3   132  ARG132      0.0489
    146  CD        32.8970   35.5590   55.9410 C.3   132  ARG132      0.2205
    147  NE        32.4470   34.7380   57.0580 N.pl3 132  ARG132     -0.0865
    148  CZ        32.0840   33.4670   56.9300 C.cat 132  ARG132      0.5346
    149  NH1       32.1240   32.8900   55.7360 N.pl3 132  ARG132      0.1354
    150  NH2       31.6890   32.7710   57.9900 N.pl3 132  ARG132      0.1354
    151  N         27.7530   40.1320   65.6380 N.3   202  TYR202     -0.1241
    152  CA        26.3280   39.9720   65.3490 C.3   202  TYR202      0.1605
    153  C         25.7650   41.0110   66.3180 C.2   202  TYR202      0.2264
    154  O         26.5300   41.6450   67.0450 O.2   202  TYR202     -0.2867
    155  CB        25.7790   38.6150   65.8050 C.3   202  TYR202      0.0534
    156  CG        26.3170   37.4340   65.0850 C.ar  202  TYR202     -0.0201
    157  CD1       25.6790   36.9750   63.9400 C.ar  202  TYR202     -0.0009
    158  CD2       27.4790   36.7990   65.4970 C.ar  202  TYR202     -0.0009
    159  CE1       26.1820   35.9290   63.2230 C.ar  202  TYR202      0.0417
    160  CE2       27.9930   35.7330   64.7750 C.ar  202  TYR202      0.0417
    161  CZ        27.3360   35.3140   63.6380 C.ar  202  TYR202      0.1957
    162  OH        27.8290   34.2840   62.8800 O.3   202  TYR202     -0.2866
    163  N         18.1550   38.7030   64.9570 N.3   232  ASP232     -0.1239
    164  CA        18.3560   38.4700   63.5250 C.3   232  ASP232      0.1674
    165  C         17.1010   38.5030   62.6600 C.2   232  ASP232      0.2266
    166  O         16.3120   37.5510   62.6530 O.2   232  ASP232     -0.2867
    167  CB        19.0910   37.1280   63.3630 C.3   232  ASP232      0.1410
    168  CG        19.3860   36.7770   61.9120 C.2   232  ASP232      0.3668
    169  OD1       19.2490   37.6500   61.0540 O.co2 232  ASP232     -0.2456
    170  OD2       19.7450   35.6270   61.6530 O.co2 232  ASP232     -0.2456
    171  N         16.9980   38.1950   59.6240 N.3   234  GLY234     -0.1210
    172  CA        17.2100   37.2650   58.5250 C.3   234  GLY234      0.1956
    173  C         16.8970   35.8160   58.8440 C.2   234  GLY234      0.2612
    174  O         17.1050   34.9210   58.0140 O.2   234  GLY234     -0.2717
    175  N         16.4140   35.5830   60.0590 N.am  235  THR235     -0.1952
    176  CA        16.0010   34.2490   60.5130 C.3   235  THR235      0.1897
    177  C         14.5160   34.3310   60.8280 C.2   235  THR235      0.2313
    178  O         14.0560   35.2950   61.4490 O.2   235  THR235     -0.2863
    179  CB        16.7420   33.7960   61.7970 C.3   235  THR235      0.1794
    180  OG1       18.1210   33.5490   61.4990 O.3   235  THR235     -0.2208
    181  CG2       16.1030   32.5450   62.3790 C.3   235  THR235      0.0378
    182  N         14.9340   30.7100   67.5510 N.3   239  ARG239     -0.1245
    183  CA        15.7140   29.4800   67.6190 C.3   239  ARG239      0.1563
    184  C         16.3940   29.4460   68.9950 C.2   239  ARG239      0.2260
    185  O         16.9370   30.4430   69.4490 O.2   239  ARG239     -0.2867
    186  CB        16.7110   29.3750   66.4590 C.3   239  ARG239      0.0307
    187  CG        16.0190   29.4900   65.1020 C.3   239  ARG239      0.0489
    188  CD        16.9980   29.3330   63.9410 C.3   239  ARG239      0.2205
    189  NE        17.6060   28.0030   63.9840 N.pl3 239  ARG239     -0.0865
    190  CZ        18.8810   27.7290   63.7340 C.cat 239  ARG239      0.5346
    191  NH1       19.2960   26.4680   63.8130 N.pl3 239  ARG239      0.1354
    192  NH2       19.7420   28.6960   63.4260 N.pl3 239  ARG239      0.1354
@<TRIPOS>BOND
     1   113   112    2
     2   112   111    1
     3   105   104    2
     4   110   111    1
     5   104   103    1
     6   111   114    1
     7   102   103    1
     8   103   106    1
     9    98   100   ar
    10    98    96   ar
    11    70    69    1
    12    70    71    2
    13    82    83    1
    14   100   101   ar
    15   114   115    1
    16    69    72    1
    17    69    68    1
    18    95    96    1
    19    95    92    1
    20    78    80   ar
    21    78    75   ar
    22    93    92    1
    23    93    94    2
    24    80    81   ar
    25   120   122   ar
    26   120   117   ar
    27    91    92    1
    28    91    84   am
    29    72    73    1
    30    96    97   ar
    31   106   108    1
    32   106   107    1
    33   122   123   ar
    34    83    84    1
    35    83    86    1
    36   115   117   ar
    37   115   116   ar
    38   117   119   ar
    39   101    99   ar
    40    75    73   ar
    41    75    77   ar
    42    84    85    2
    43    87    86    1
    44    87    88    1
    45   124   125    1
    46    73    74   ar
    47    81    79   ar
    48    97    99   ar
    49   123   121   ar
    50   116   118   ar
    51   107   109    1
    52   119   121   ar
    53   119   118   ar
    54    90    89    1
    55    88    89    1
    56    35    36    1
    57    77    79   ar
    58    77    76   ar
    59     1     2    1
    60   127   126    2
    61    74    76   ar
    62   125   126    1
    63   125   128    1
    64   130   128    1
    65    60    59    1
    66   129   128    1
    67   129   131    1
    68    38    37    2
    69    36    37    1
    70    36    39    1
    71    41    39    1
    72    37    42   am
    73    39    40    1
    74    34    32   am
    75     2     5    1
    76     2     3    1
    77     5     6    1
    78    57    59   ar
    79    57    55   ar
    80    59    58   ar
    81   143   142    2
    82    29    30    2
    83    29    28    1
    84    31    32    1
    85    31    28    1
    86    42    43    1
    87    42    48    1
    88    46    43    1
    89    46    47    1
    90    32    33    2
    91    43    44    1
    92    48    47    1
    93   142   141    1
    94     4     3    2
    95    55    54   ar
    96    28    27    1
    97     8     6    1
    98     6     7    1
    99    58    56   ar
   100   144   141    1
   101   144   145    1
   102   141   140    1
   103    44    49   am
   104    44    45    2
   105    49    50    1
   106    54    56   ar
   107    54    53    1
   108   145   146    1
   109    52    51    2
   110   149   148    1
   111    53    50    1
   112    50    51    1
   113   146   147    1
   114    51    61   am
   115    26    25    1
   116    64    63    2
   117    13    14    1
   118    13    10    1
   119    16    14   ar
   120     9    10    1
   121    63    62    1
   122   148   147    2
   123   148   150    1
   124    25    22    1
   125    14    15   ar
   126    61    62    1
   127    10    11    1
   128    62    65    1
   129   174   173    2
   130    23    22    1
   131    23    24    2
   132    12    11    2
   133   135   134    2
   134    22    21    1
   135   172   173    1
   136   172   171    1
   137    65    67    1
   138    65    66    1
   139   173   175   am
   140   134   133    1
   141    21    19   am
   142   175   176    1
   143    19    20    2
   144    19    18    1
   145   133   132    1
   146   133   136    1
   147   176   177    1
   148   176   179    1
   149    17    18    1
   150   177   178    2
   151   169   168   ar
   152   137   136    1
   153   137   139    1
   154   136   138    1
   155   180   179    1
   156   170   168   ar
   157   179   181    1
   158   168   167    1
   159   166   165    2
   160   165   164    1
   161   162   161    1
   162   159   161   ar
   163   159   157   ar
   164   167   164    1
   165   192   190    1
   166   164   163    1
   167   161   160   ar
   168   190   191    1
   169   190   189    2
   170   157   156   ar
   171   188   189    1
   172   188   187    1
   173   160   158   ar
   174   156   158   ar
   175   156   155    1
   176   187   186    1
   177   152   151    1
   178   152   155    1
   179   152   153    1
   180   153   154    2
   181   186   183    1
   182   182   183    1
   183   183   184    1
   184   184   185    2
