@<TRIPOS>MOLECULE
tmp/3l5hA00.pdb
 79 75 0 0 0
SMALL
GASTEIGER

@<TRIPOS>ATOM
      1  N         12.1920  -26.8640    0.0760 N.3     7  TYR7       -0.1241
      2  CA        12.6860  -26.4130    1.3840 C.3     7  TYR7        0.1605
      3  C         13.1390  -24.9440    1.3550 C.2     7  TYR7        0.2264
      4  O         13.3510  -24.4010    0.2710 O.2     7  TYR7       -0.2867
      5  CB        13.8420  -27.3090    1.8370 C.3     7  TYR7        0.0534
      6  CG        14.9930  -27.4250    0.8700 C.ar    7  TYR7       -0.0201
      7  CD1       16.0270  -26.4880    0.8860 C.ar    7  TYR7       -0.0009
      8  CD2       15.0740  -28.4670   -0.0470 C.ar    7  TYR7       -0.0009
      9  CE1       17.0930  -26.5770    0.0070 C.ar    7  TYR7        0.0417
     10  CE2       16.1350  -28.5720   -0.9280 C.ar    7  TYR7        0.0417
     11  CZ        17.1380  -27.6260   -0.8890 C.ar    7  TYR7        0.1957
     12  OH        18.1940  -27.7070   -1.7720 O.3     7  TYR7       -0.2866
     13  N         15.3310  -18.2970    0.9670 N.3    24  VAL24      -0.1231
     14  CA        15.2910  -18.7740   -0.4320 C.3    24  VAL24       0.1692
     15  C         14.5470  -20.1180   -0.4550 C.2    24  VAL24       0.2592
     16  O         14.6700  -20.8810    0.5030 O.2    24  VAL24      -0.2718
     17  CB        16.7040  -18.9630   -1.0290 C.3    24  VAL24       0.0266
     18  CG1       16.7070  -18.5960   -2.5160 C.3    24  VAL24       0.0020
     19  CG2       17.7340  -18.1310   -0.2670 C.3    24  VAL24       0.0020
     20  N         13.7720  -20.4050   -1.5120 N.am   25  CYS25      -0.1970
     21  CA        12.9460  -21.6350   -1.5370 C.3    25  CYS25       0.1712
     22  C         13.4830  -22.7190   -2.4680 C.2    25  CYS25       0.2296
     23  O         13.5060  -22.5520   -3.6740 O.2    25  CYS25      -0.2864
     24  CB        11.4410  -21.3480   -1.8080 C.3    25  CYS25       0.0983
     25  SG        10.2960  -22.7420   -1.2710 S.3    25  CYS25      -0.0798
     26  N         11.0920  -26.1070   -4.0350 N.3    26  LEU26      -0.1231
     27  CA        10.3400  -26.9070   -5.0020 C.3    26  LEU26       0.1693
     28  C         11.2800  -27.6870   -5.9420 C.2    26  LEU26       0.2592
     29  O         11.6700  -27.1800   -7.0000 O.2    26  LEU26      -0.2718
     30  CB         9.3860  -26.0140   -5.7990 C.3    26  LEU26       0.0284
     31  CG         9.9940  -25.0510   -6.8230 C.3    26  LEU26       0.0019
     32  CD1        9.0030  -24.7870   -7.9430 C.3    26  LEU26       0.0001
     33  CD2       10.4170  -23.7610   -6.1530 C.3    26  LEU26       0.0001
     34  N         11.6250  -28.9210   -5.5530 N.am   27  LYS27      -0.1966
     35  CA        12.6610  -29.7190   -6.2400 C.3    27  LYS27       0.1728
     36  C         12.3430  -30.0110   -7.7070 C.2    27  LYS27       0.2616
     37  O         11.2160  -29.7970   -8.1550 O.2    27  LYS27      -0.2715
     38  CB        12.9350  -31.0140   -5.4760 C.3    27  LYS27       0.0311
     39  CG        11.8730  -32.0630   -5.6460 C.3    27  LYS27       0.0038
     40  CD        12.5120  -33.3480   -5.2120 C.3    27  LYS27       0.0206
     41  CE        11.6180  -33.7400   -4.0940 C.3    27  LYS27       0.1093
     42  NZ        10.5480  -34.6520   -4.4530 N.3    27  LYS27      -0.1314
     43  N         13.3360  -30.5310   -8.4290 N.am   28  GLU28      -0.1977
     44  CA        13.2920  -30.6690   -9.8980 C.3    28  GLU28       0.1602
     45  C         12.0450  -31.2940  -10.5750 C.2    28  GLU28       0.2287
     46  O         11.7030  -30.9220  -11.7010 O.2    28  GLU28      -0.2864
     47  CB        14.5650  -31.3480  -10.3930 C.3    28  GLU28       0.0415
     48  CG        15.8240  -30.5690  -10.1060 C.3    28  GLU28       0.1163
     49  CD        15.9480  -29.2680  -10.8320 C.2    28  GLU28       0.3649
     50  OE1       15.2180  -29.0200  -11.8270 O.co2  28  GLU28      -0.2457
     51  OE2       16.8750  -28.5330  -10.4570 O.co2  28  GLU28      -0.2457
     52  N         15.7220  -16.3920   -7.7150 N.3    58  ILE58      -0.1231
     53  CA        17.1480  -16.6760   -7.8270 C.3    58  ILE58       0.1692
     54  C         17.5000  -17.1630   -9.2310 C.2    58  ILE58       0.2592
     55  O         18.1140  -16.4460  -10.0190 O.2    58  ILE58      -0.2718
     56  CB        17.5640  -17.7050   -6.7730 C.3    58  ILE58       0.0266
     57  CG1       16.9440  -17.4290   -5.3990 C.3    58  ILE58       0.0019
     58  CG2       19.0770  -17.7650   -6.6800 C.3    58  ILE58       0.0020
     59  CD1       17.6400  -16.2990   -4.6640 C.3    58  ILE58       0.0001
     60  N         17.0960  -18.3850   -9.5410 N.am   59  ASN59      -0.1974
     61  CA        17.3670  -18.9590  -10.8420 C.3    59  ASN59       0.1688
     62  C         16.0500  -19.5430  -11.3450 C.2    59  ASN59       0.2292
     63  O         15.0430  -19.4960  -10.6270 O.2    59  ASN59      -0.2864
     64  CB        18.4300  -20.0580  -10.7010 C.3    59  ASN59       0.1181
     65  CG        18.9030  -20.2180   -9.2640 C.2    59  ASN59       0.2629
     66  OD1       18.6660  -19.3350   -8.4360 O.2    59  ASN59      -0.2716
     67  ND2       19.5620  -21.3440   -8.9540 N.am   59  ASN59      -0.0877
     68  N         14.5440  -21.3270  -10.7040 N.3    61  THR61      -0.1203
     69  CA        14.1530  -22.1270   -9.5350 C.3    61  THR61       0.1994
     70  C         14.6400  -21.4960   -8.2410 C.2    61  THR61       0.2617
     71  O         15.7340  -21.8150   -7.7860 O.2    61  THR61      -0.2717
     72  CB        14.7950  -23.5350   -9.5500 C.3    61  THR61       0.1784
     73  OG1       13.9120  -24.4730   -8.9320 O.3    61  THR61      -0.2211
     74  CG2       16.1290  -23.5470   -8.7860 C.3    61  THR61       0.0376
     75  N         13.8320  -20.6260   -7.6390 N.am   62  ALA62      -0.1979
     76  CA        14.1360  -20.0720   -6.3050 C.3    62  ALA62       0.1597
     77  C         12.9920  -19.2250   -5.7210 C.2    62  ALA62       0.2287
     78  O         11.8690  -19.7120   -5.5340 O.2    62  ALA62      -0.2864
     79  CB        15.4510  -19.2740   -6.3240 C.3    62  ALA62       0.0319
@<TRIPOS>BOND
     1    50    49   ar
     2    46    45    2
     3    62    61    1
     4    62    63    2
     5    61    64    1
     6    61    60    1
     7    49    51   ar
     8    49    48    1
     9    68    69    1
    10    64    65    1
    11    45    44    1
    12    47    48    1
    13    47    44    1
    14    55    54    2
    15    44    43    1
    16    72    69    1
    17    72    73    1
    18    72    74    1
    19    60    54   am
    20    69    70    1
    21    65    67   am
    22    65    66    2
    23    54    53    1
    24    43    36   am
    25    70    71    2
    26    70    75   am
    27    37    36    2
    28    32    31    1
    29    53    52    1
    30    53    56    1
    31    36    35    1
    32    75    76    1
    33    29    28    2
    34    31    33    1
    35    31    30    1
    36    56    58    1
    37    56    57    1
    38    79    76    1
    39    76    77    1
    40    35    34    1
    41    35    38    1
    42    28    34   am
    43    28    27    1
    44    30    27    1
    45    77    78    2
    46    39    38    1
    47    39    40    1
    48    57    59    1
    49    40    41    1
    50    27    26    1
    51    42    41    1
    52    23    22    2
    53    18    17    1
    54    22    21    1
    55    24    21    1
    56    24    25    1
    57    12    11    1
    58    21    20    1
    59    20    15   am
    60    17    14    1
    61    17    19    1
    62    10    11   ar
    63    10     8   ar
    64    11     9   ar
    65    15    14    1
    66    15    16    2
    67    14    13    1
    68     8     6   ar
    69     9     7   ar
    70     1     2    1
    71     4     3    2
    72     6     7   ar
    73     6     5    1
    74     3     2    1
    75     2     5    1
