@<TRIPOS>MOLECULE
tmp/3l5nA00.pdb
 78 74 0 0 0
SMALL
GASTEIGER

@<TRIPOS>ATOM
      1  N         18.2860   31.2350   28.7910 N.3    19  THR19      -0.1218
      2  CA        16.9030   31.1650   28.3320 C.3    19  THR19       0.1862
      3  C         16.3610   29.7480   28.5390 C.2    19  THR19       0.2287
      4  O         16.7970   29.0430   29.4560 O.2    19  THR19      -0.2866
      5  CB        16.7380   31.6180   26.8550 C.3    19  THR19       0.1770
      6  OG1       17.5520   32.7720   26.6030 O.3    19  THR19      -0.2211
      7  CG2       15.2830   31.9720   26.5510 C.3    19  THR19       0.0375
      8  N          1.5450   31.9460   18.5270 N.3    58  THR58      -0.1218
      9  CA         2.9690   31.5920   18.5430 C.3    58  THR58       0.1862
     10  C          3.1190   30.0610   18.4660 C.2    58  THR58       0.2287
     11  O          3.9270   29.4730   19.1870 O.2    58  THR58      -0.2866
     12  CB         3.7490   32.1800   19.7700 C.3    58  THR58       0.1770
     13  OG1        3.2740   31.6000   20.9910 O.3    58  THR58      -0.2211
     14  CG2        3.5940   33.6940   19.8410 C.3    58  THR58       0.0375
     15  N          4.1620   27.9720   21.1970 N.3    61  MET61      -0.1230
     16  CA         5.5620   28.2340   21.5500 C.3    61  MET61       0.1702
     17  C          5.6920   29.4380   22.4740 C.2    61  MET61       0.2593
     18  O          5.4670   30.5810   22.0660 O.2    61  MET61      -0.2718
     19  CB         6.4300   28.4690   20.3070 C.3    61  MET61       0.0401
     20  CG         7.3970   27.3410   19.9830 C.3    61  MET61       0.0596
     21  SD         9.0810   27.9620   19.8180 S.3    61  MET61      -0.1393
     22  CE         8.7430   29.6760   19.4390 C.3    61  MET61       0.0692
     23  N          6.0740   29.1660   23.7160 N.am   62  GLY62      -0.1942
     24  CA         6.2200   30.1970   24.7240 C.3    62  GLY62       0.2014
     25  C          7.6690   30.3490   25.1250 C.2    62  GLY62       0.2639
     26  O          8.4730   29.4360   24.9310 O.2    62  GLY62      -0.2714
     27  N          7.9990   31.4980   25.7080 N.am   63  ASN63      -0.1958
     28  CA         9.3910   31.9180   25.8340 C.3    63  ASN63       0.1819
     29  C          9.6840   32.9170   26.9550 C.2    63  ASN63       0.2621
     30  O          8.9110   33.8450   27.1900 O.2    63  ASN63      -0.2715
     31  CB         9.8240   32.4810   24.4990 C.3    63  ASN63       0.1195
     32  CG         9.6270   31.4860   23.3740 C.2    63  ASN63       0.2630
     33  OD1       10.2320   30.4140   23.3840 O.2    63  ASN63      -0.2716
     34  ND2        8.7680   31.8210   22.4120 N.am   63  ASN63      -0.0877
     35  N         10.8050   32.6980   27.6480 N.am   64  VAL64      -0.1963
     36  CA        11.1520   33.4230   28.8820 C.3    64  VAL64       0.1727
     37  C         12.6550   33.4920   29.2070 C.2    64  VAL64       0.2616
     38  O         13.3960   32.5250   29.0250 O.2    64  VAL64      -0.2715
     39  CB        10.4960   32.7740   30.0910 C.3    64  VAL64       0.0290
     40  CG1        9.0170   33.0710   30.0970 C.3    64  VAL64       0.0023
     41  CG2       10.7440   31.2640   30.0590 C.3    64  VAL64       0.0023
     42  N         13.0930   34.6290   29.7330 N.am   65  THR65      -0.1951
     43  CA        14.4820   34.7900   30.1200 C.3    65  THR65       0.1897
     44  C         14.5130   35.2320   31.5650 C.2    65  THR65       0.2313
     45  O         13.6900   36.0440   31.9910 O.2    65  THR65      -0.2863
     46  CB        15.1760   35.8670   29.2860 C.3    65  THR65       0.1794
     47  OG1       14.6370   37.1480   29.6320 O.3    65  THR65      -0.2208
     48  CG2       14.9880   35.6140   27.7930 C.3    65  THR65       0.0378
     49  N         22.1810   30.8440   24.8720 N.3   467  LEU467     -0.1231
     50  CA        21.2020   30.6910   23.7980 C.3   467  LEU467      0.1693
     51  C         20.8130   32.0490   23.1900 C.2   467  LEU467      0.2592
     52  O         20.4300   32.9920   23.8980 O.2   467  LEU467     -0.2718
     53  CB        19.9710   29.9290   24.2930 C.3   467  LEU467      0.0284
     54  CG        20.2490   28.4990   24.7720 C.3   467  LEU467      0.0019
     55  CD1       19.0260   27.9040   25.4530 C.3   467  LEU467      0.0001
     56  CD2       20.7110   27.6290   23.6290 C.3   467  LEU467      0.0001
     57  N         20.9140   32.1290   21.8670 N.am  468  LEU468     -0.1966
     58  CA        20.8360   33.3960   21.1600 C.3   468  LEU468      0.1728
     59  C         19.4260   33.7280   20.6700 C.2   468  LEU468      0.2616
     60  O         18.9170   34.8290   20.9050 O.2   468  LEU468     -0.2715
     61  CB        21.8350   33.3930   19.9910 C.3   468  LEU468      0.0311
     62  CG        22.4210   34.7580   19.6250 C.3   468  LEU468      0.0022
     63  CD1       22.3260   35.6720   20.8200 C.3   468  LEU468      0.0001
     64  CD2       23.8580   34.6650   19.1220 C.3   468  LEU468      0.0001
     65  N         18.7920   32.7710   20.0010 N.am  469  LYS469     -0.1963
     66  CA        17.5390   33.0370   19.2970 C.3   469  LYS469      0.1728
     67  C         16.7100   31.7790   19.0030 C.2   469  LYS469      0.2616
     68  O         17.2580   30.6990   18.7890 O.2   469  LYS469     -0.2715
     69  CB        17.8590   33.6990   17.9670 C.3   469  LYS469      0.0311
     70  CG        17.3430   32.8900   16.8070 C.3   469  LYS469      0.0038
     71  CD        17.8240   33.3950   15.4670 C.3   469  LYS469      0.0206
     72  CE        17.0200   32.7610   14.3440 C.3   469  LYS469      0.1093
     73  NZ        16.9890   33.6440   13.1460 N.3   469  LYS469     -0.1314
     74  N         15.3840   31.9200   18.9720 N.am  470  ALA470     -0.1977
     75  CA        14.5130   30.7840   18.6510 C.3   470  ALA470      0.1597
     76  C         13.0780   31.1020   18.2010 C.2   470  ALA470      0.2287
     77  O         12.5600   32.1990   18.4030 O.2   470  ALA470     -0.2864
     78  CB        14.4890   29.7920   19.8070 C.3   470  ALA470      0.0319
@<TRIPOS>BOND
     1    73    72    1
     2    72    71    1
     3    71    70    1
     4    70    69    1
     5    69    66    1
     6    76    77    2
     7    76    75    1
     8    10     9    1
     9    10    11    2
    10     8     9    1
    11     9    12    1
    12    75    74    1
    13    75    78    1
    14    68    67    2
    15    74    67   am
    16    67    66    1
    17    64    62    1
    18    66    65    1
    19    22    21    1
    20    62    61    1
    21    62    63    1
    22    12    14    1
    23    12    13    1
    24    21    20    1
    25    20    19    1
    26    61    58    1
    27    65    59   am
    28    19    16    1
    29    59    60    2
    30    59    58    1
    31    58    57    1
    32    15    16    1
    33    16    17    1
    34    57    51   am
    35    18    17    2
    36    34    32   am
    37    17    23   am
    38    51    50    1
    39    51    52    2
    40    32    33    2
    41    32    31    1
    42    56    54    1
    43    23    24    1
    44    50    53    1
    45    50    49    1
    46    53    54    1
    47    31    28    1
    48    24    25    1
    49    54    55    1
    50    26    25    2
    51    25    27   am
    52    27    28    1
    53    28    29    1
    54     7     5    1
    55     6     5    1
    56     5     2    1
    57    29    30    2
    58    29    35   am
    59    35    36    1
    60    48    46    1
    61     2     3    1
    62     2     1    1
    63     3     4    2
    64    36    37    1
    65    36    39    1
    66    38    37    2
    67    37    42   am
    68    46    47    1
    69    46    43    1
    70    42    43    1
    71    41    39    1
    72    39    40    1
    73    43    44    1
    74    44    45    2
