@<TRIPOS>MOLECULE
tmp/3l5rA00.pdb
 107 106 0 0 0
SMALL
GASTEIGER

@<TRIPOS>ATOM
      1  N         12.4050  -36.5660  -23.5820 N.3     1  PRO1       -0.2102
      2  CA        11.4870  -35.5750  -22.9810 C.3     1  PRO1        0.1504
      3  C         10.8390  -36.0620  -21.6940 C.2     1  PRO1        0.2575
      4  O         10.6480  -37.2630  -21.4850 O.2     1  PRO1       -0.2718
      5  CB        10.4320  -35.2370  -24.0220 C.3     1  PRO1        0.0282
      6  CG        11.1580  -35.5730  -25.3210 C.3     1  PRO1        0.0208
      7  CD        12.0900  -36.7530  -25.0100 C.3     1  PRO1        0.0893
      8  N         10.5070  -35.1070  -20.8330 N.am    2  MET2       -0.1980
      9  CA         9.9730  -35.3920  -19.5110 C.3     2  MET2        0.1605
     10  C          8.7920  -34.4590  -19.2700 C.2     2  MET2        0.2287
     11  O          8.9420  -33.2350  -19.3270 O.2     2  MET2       -0.2864
     12  CB        11.0570  -35.1460  -18.4590 C.3     2  MET2        0.0413
     13  CG        10.5880  -35.2520  -17.0230 C.3     2  MET2        0.0598
     14  SD        11.8870  -34.7450  -15.8740 S.3     2  MET2       -0.1393
     15  CE        10.9680  -33.7590  -14.7420 C.3     2  MET2        0.0692
     16  N         10.3460  -37.4850  -30.8840 N.3    32  LYS32      -0.1231
     17  CA        11.3020  -38.3840  -30.2510 C.3    32  LYS32       0.1678
     18  C         10.6510  -39.7340  -29.9630 C.2    32  LYS32       0.2434
     19  O          9.4360  -39.8290  -29.7960 O.2    32  LYS32      -0.2733
     20  CB        11.8360  -37.7610  -28.9590 C.3    32  LYS32       0.0284
     21  CG        12.2000  -36.2900  -29.0950 C.3    32  LYS32       0.0035
     22  CD        13.4570  -35.9560  -28.3370 C.3    32  LYS32       0.0206
     23  CE        13.5320  -34.4560  -28.0580 C.3    32  LYS32       0.1093
     24  NZ        14.7620  -34.0830  -27.3250 N.3    32  LYS32      -0.1314
     25  N         11.4570  -40.8010  -29.9060 N.am   33  PRO33      -0.2729
     26  CA        10.9020  -42.1460  -29.7210 C.3    33  PRO33       0.1401
     27  C         10.2000  -42.2890  -28.3740 C.2    33  PRO33       0.2269
     28  O         10.6180  -41.6990  -27.3810 O.2    33  PRO33      -0.2865
     29  CB        12.1200  -43.0590  -29.8410 C.3    33  PRO33       0.0296
     30  CG        13.2860  -42.1890  -29.4850 C.3    33  PRO33       0.0237
     31  CD        12.9310  -40.8020  -29.9360 C.3    33  PRO33       0.0939
     32  N         11.9150  -43.0000  -24.8940 N.3    36  TYR36      -0.1241
     33  CA        12.6400  -41.9850  -24.1410 C.3    36  TYR36       0.1605
     34  C         11.7200  -40.9640  -23.4730 C.2    36  TYR36       0.2264
     35  O         12.1900  -40.0430  -22.8130 O.2    36  TYR36      -0.2867
     36  CB        13.6290  -41.2620  -25.0540 C.3    36  TYR36       0.0534
     37  CG        14.8580  -42.0720  -25.3830 C.ar   36  TYR36      -0.0201
     38  CD1       16.0250  -41.9280  -24.6410 C.ar   36  TYR36      -0.0009
     39  CD2       14.8620  -42.9720  -26.4440 C.ar   36  TYR36      -0.0009
     40  CE1       17.1620  -42.6520  -24.9460 C.ar   36  TYR36       0.0417
     41  CE2       15.9950  -43.7010  -26.7580 C.ar   36  TYR36       0.0417
     42  CZ        17.1430  -43.5360  -26.0050 C.ar   36  TYR36       0.1957
     43  OH        18.2800  -44.2480  -26.3160 O.3    36  TYR36      -0.2866
     44  N         10.3230  -30.7380  -20.2060 N.3    62  HIS62      -0.1226
     45  CA        11.7500  -30.5590  -20.4510 C.3    62  HIS62       0.1752
     46  C         12.1120  -31.3320  -21.7160 C.2    62  HIS62       0.2597
     47  O         11.7390  -32.4940  -21.8650 O.2    62  HIS62      -0.2718
     48  CB        12.5740  -31.1060  -19.2760 C.3    62  HIS62       0.0759
     49  CG        12.3720  -30.3630  -17.9900 C.ar   62  HIS62       0.0818
     50  ND1       11.2620  -30.5410  -17.1920 N.ar   62  HIS62      -0.2268
     51  CD2       13.1540  -29.4610  -17.3500 C.ar   62  HIS62       0.1154
     52  CE1       11.3700  -29.7840  -16.1140 C.ar   62  HIS62       0.1986
     53  NE2       12.5090  -29.1190  -16.1850 N.ar   62  HIS62      -0.2212
     54  N         12.8340  -30.6870  -22.6250 N.am   63  SER63      -0.1938
     55  CA        13.2890  -31.3630  -23.8340 C.3    63  SER63       0.2055
     56  C         14.6440  -30.8330  -24.2630 C.2    63  SER63       0.2642
     57  O         14.9070  -29.6320  -24.1810 O.2    63  SER63      -0.2714
     58  CB        12.2810  -31.1600  -24.9700 C.3    63  SER63       0.2130
     59  OG        12.6080  -31.9720  -26.0830 O.3    63  SER63      -0.2179
     60  N         15.5070  -31.7320  -24.7250 N.am   64  ILE64      -0.1977
     61  CA        16.7370  -31.3080  -25.3710 C.3    64  ILE64       0.1596
     62  C         16.3720  -30.8780  -26.7860 C.2    64  ILE64       0.2287
     63  O         16.2260  -31.7100  -27.6860 O.2    64  ILE64      -0.2864
     64  CB        17.7640  -32.4580  -25.4060 C.3    64  ILE64       0.0276
     65  CG1       18.0700  -32.9100  -23.9760 C.3    64  ILE64       0.0022
     66  CG2       19.0430  -31.9980  -26.1000 C.3    64  ILE64       0.0022
     67  CD1       18.9680  -34.1340  -23.8750 C.3    64  ILE64       0.0001
     68  N         16.5550  -28.0070  -22.5780 N.3   101  MET101     -0.1245
     69  CA        17.7290  -28.4450  -21.8300 C.3   101  MET101      0.1570
     70  C         18.9540  -28.6440  -22.7310 C.2   101  MET101      0.2261
     71  O         18.8430  -29.1660  -23.8450 O.2   101  MET101     -0.2867
     72  CB        17.4240  -29.7540  -21.0970 C.3   101  MET101      0.0387
     73  CG        16.2430  -29.6780  -20.1310 C.3   101  MET101      0.0595
     74  SD        16.5230  -28.5470  -18.7430 S.3   101  MET101     -0.1393
     75  CE        17.9060  -29.3170  -17.9190 C.3   101  MET101      0.0692
     76  N         21.6140  -32.9030  -18.9540 N.3   106  VAL106     -0.1245
     77  CA        20.6880  -33.9990  -18.7120 C.3   106  VAL106      0.1561
     78  C         21.4460  -35.2950  -18.4560 C.2   106  VAL106      0.2260
     79  O         22.2010  -35.7660  -19.3070 O.2   106  VAL106     -0.2867
     80  CB        19.7280  -34.2020  -19.9050 C.3   106  VAL106      0.0252
     81  CG1       18.7450  -35.3260  -19.5960 C.3   106  VAL106      0.0019
     82  CG2       18.9800  -32.9000  -20.1970 C.3   106  VAL106      0.0019
     83  N         21.5990  -39.3950  -17.6950 N.3   108  TRP108     -0.1241
     84  CA        20.8890  -40.6300  -18.0060 C.3   108  TRP108      0.1605
     85  C         21.8970  -41.7630  -18.1350 C.2   108  TRP108      0.2264
     86  O         22.9500  -41.5990  -18.7530 O.2   108  TRP108     -0.2867
     87  CB        20.1100  -40.4760  -19.3150 C.3   108  TRP108      0.0550
     88  CG        19.4830  -41.7470  -19.8080 C.ar  108  TRP108      0.0003
     89  CD1       18.4230  -42.4080  -19.2610 C.ar  108  TRP108      0.0946
     90  CD2       19.8740  -42.5010  -20.9600 C.ar  108  TRP108      0.0152
     91  NE1       18.1280  -43.5280  -20.0040 N.ar  108  TRP108     -0.2442
     92  CE2       19.0060  -43.6060  -21.0520 C.ar  108  TRP108      0.0810
     93  CE3       20.8760  -42.3470  -21.9240 C.ar  108  TRP108      0.0012
     94  CZ2       19.1100  -44.5550  -22.0710 C.ar  108  TRP108      0.0191
     95  CZ3       20.9780  -43.2880  -22.9330 C.ar  108  TRP108      0.0001
     96  CH2       20.1000  -44.3790  -22.9980 C.ar  108  TRP108      0.0015
     97  N         23.7570  -36.7280  -21.8890 N.3   113  PHE113     -0.1241
     98  CA        23.4650  -36.8410  -23.3160 C.3   113  PHE113      0.1605
     99  C         24.4750  -36.1170  -24.2010 C.2   113  PHE113      0.2264
    100  O         24.4460  -36.2570  -25.4230 O.2   113  PHE113     -0.2867
    101  CB        22.0560  -36.3170  -23.6110 C.3   113  PHE113      0.0534
    102  CG        20.9710  -37.3060  -23.3050 C.ar  113  PHE113     -0.0203
    103  CD1       20.7310  -38.3730  -24.1550 C.ar  113  PHE113     -0.0042
    104  CD2       20.1950  -37.1760  -22.1680 C.ar  113  PHE113     -0.0042
    105  CE1       19.7360  -39.2940  -23.8750 C.ar  113  PHE113     -0.0003
    106  CE2       19.2020  -38.0920  -21.8830 C.ar  113  PHE113     -0.0003
    107  CZ        18.9720  -39.1530  -22.7360 C.ar  113  PHE113     -0.0000
@<TRIPOS>BOND
     1    16    17    1
     2    17    18    1
     3    17    20    1
     4    18    25   am
     5    18    19    2
     6    31    25    1
     7    31    30    1
     8    25    26    1
     9    29    26    1
    10    29    30    1
    11    26    27    1
    12    21    20    1
    13    21    22    1
    14    27    28    2
    15    22    23    1
    16    23    24    1
    17    63    62    2
    18    62    61    1
    19    41    39   ar
    20    41    42   ar
    21    39    37   ar
    22    43    42    1
    23    66    64    1
    24    59    58    1
    25    42    40   ar
    26   100    99    2
    27    64    61    1
    28    64    65    1
    29    37    36    1
    30    37    38   ar
    31    61    60    1
    32     6     7    1
    33     6     5    1
    34    36    33    1
    35     7     1    1
    36    58    55    1
    37    40    38   ar
    38    32    33    1
    39    60    56   am
    40    56    57    2
    41    56    55    1
    42    99    98    1
    43   103   105   ar
    44   103   102   ar
    45    33    34    1
    46     5     2    1
    47    65    67    1
    48   105   107   ar
    49    71    70    2
    50    55    54    1
    51   101    98    1
    52   101   102    1
    53     1     2    1
    54    34    35    2
    55    98    97    1
    56   102   104   ar
    57    96    95   ar
    58    96    94   ar
    59     2     3    1
    60    95    93   ar
    61   107   106   ar
    62    70    69    1
    63    54    46   am
    64    68    69    1
    65   104   106   ar
    66    94    92   ar
    67    93    90   ar
    68    47    46    2
    69    69    72    1
    70    46    45    1
    71     3     4    2
    72     3     8   am
    73    72    73    1
    74    92    90   ar
    75    92    91   ar
    76    90    88   ar
    77     8     9    1
    78    45    44    1
    79    45    48    1
    80    82    80    1
    81    73    74    1
    82    91    89   ar
    83    80    81    1
    84    80    77    1
    85    88    87    1
    86    88    89   ar
    87     9    10    1
    88     9    12    1
    89    11    10    2
    90    87    84    1
    91    79    78    2
    92    48    49    1
    93    76    77    1
    94    86    85    2
    95    74    75    1
    96    77    78    1
    97    12    13    1
    98    85    84    1
    99    84    83    1
   100    49    51   ar
   101    49    50   ar
   102    51    53   ar
   103    50    52   ar
   104    13    14    1
   105    53    52   ar
   106    14    15    1
