@<TRIPOS>MOLECULE
tmp/3l5tA00.pdb
 109 107 0 0 0
SMALL
GASTEIGER

@<TRIPOS>ATOM
      1  N         14.1510   -4.5820    1.4590 N.3     1  PRO1       -0.2102
      2  CA        15.2200   -5.3890    0.8250 C.3     1  PRO1        0.1504
      3  C         14.7200   -6.1260   -0.4060 C.2     1  PRO1        0.2575
      4  O         13.5180   -6.3430   -0.5650 O.2     1  PRO1       -0.2718
      5  CB        15.7240   -6.3820    1.8620 C.3     1  PRO1        0.0282
      6  CG        15.3020   -5.7260    3.1660 C.3     1  PRO1        0.0208
      7  CD        14.0120   -4.9440    2.8790 C.3     1  PRO1        0.0893
      8  N         15.6470   -6.5040   -1.2800 N.am    2  MET2       -0.1980
      9  CA        15.2940   -7.2750   -2.4610 C.3     2  MET2        0.1605
     10  C         16.3250   -8.3500   -2.7540 C.2     2  MET2        0.2287
     11  O         17.5330   -8.1270   -2.6350 O.2     2  MET2       -0.2864
     12  CB        15.1440   -6.3620   -3.6750 C.3     2  MET2        0.0413
     13  CG        16.3100   -5.4340   -3.9150 C.3     2  MET2        0.0598
     14  SD        15.9750   -4.3410   -5.3030 S.3     2  MET2       -0.1393
     15  CE        16.3200   -5.4060   -6.6630 C.3     2  MET2        0.0692
     16  N         13.4050   -6.7610    8.7440 N.3    32  LYS32      -0.1245
     17  CA        12.4380   -5.8810    8.0950 C.3    32  LYS32       0.1561
     18  C         11.1150   -6.6090    7.8740 C.2    32  LYS32       0.2260
     19  O         11.0890   -7.8230    7.6770 O.2    32  LYS32      -0.2867
     20  CB        12.9920   -5.3900    6.7550 C.3    32  LYS32       0.0271
     21  CG        14.2450   -4.5300    6.8710 C.3    32  LYS32       0.0035
     22  CD        13.9300   -3.1980    7.5410 C.3    32  LYS32       0.0206
     23  CE        15.1320   -2.2580    7.5320 C.3    32  LYS32       0.1093
     24  NZ        16.1290   -2.5820    8.5890 N.3    32  LYS32      -0.1314
     25  N          6.2700   -7.1460    4.2120 N.3    35  GLN35      -0.1231
     26  CA         5.6310   -6.3130    3.1990 C.3    35  GLN35       0.1698
     27  C          6.6610   -5.4350    2.4840 C.2    35  GLN35       0.2592
     28  O          6.3700   -4.8510    1.4420 O.2    35  GLN35      -0.2718
     29  CB         4.5390   -5.4400    3.8250 C.3    35  GLN35       0.0381
     30  CG         5.0390   -4.4350    4.8420 C.3    35  GLN35       0.0905
     31  CD         4.8640   -4.9080    6.2720 C.2    35  GLN35       0.2608
     32  OE1        4.6310   -4.1020    7.1770 O.2    35  GLN35      -0.2717
     33  NE2        4.9740   -6.2170    6.4860 N.am   35  GLN35      -0.0878
     34  N          7.8660   -5.3550    3.0410 N.am   36  TYR36      -0.1976
     35  CA         8.9430   -4.5740    2.4350 C.3    36  TYR36       0.1639
     36  C          9.8320   -5.4170    1.5180 C.2    36  TYR36       0.2290
     37  O         10.6510   -4.8790    0.7720 O.2    36  TYR36      -0.2864
     38  CB         9.8270   -3.9440    3.5180 C.3    36  TYR36       0.0560
     39  CG         9.1530   -2.8810    4.3580 C.ar   36  TYR36      -0.0198
     40  CD1        7.8580   -2.4590    4.0830 C.ar   36  TYR36      -0.0009
     41  CD2        9.8220   -2.2930    5.4250 C.ar   36  TYR36      -0.0009
     42  CE1        7.2480   -1.4810    4.8520 C.ar   36  TYR36       0.0417
     43  CE2        9.2230   -1.3170    6.1970 C.ar   36  TYR36       0.0417
     44  CZ         7.9380   -0.9150    5.9060 C.ar   36  TYR36       0.1957
     45  OH         7.3430    0.0560    6.6780 O.3    36  TYR36      -0.2866
     46  N         20.0450   -6.7690   -1.9360 N.3    62  HIS62      -0.1226
     47  CA        20.1940   -5.3420   -1.6700 C.3    62  HIS62       0.1752
     48  C         19.4290   -5.0120   -0.3980 C.2    62  HIS62       0.2597
     49  O         18.2980   -5.4610   -0.2130 O.2    62  HIS62      -0.2718
     50  CB        19.6180   -4.5090   -2.8240 C.3    62  HIS62       0.0759
     51  CG        20.3600   -4.6560   -4.1150 C.ar   62  HIS62       0.0818
     52  ND1       20.2280   -5.7600   -4.9290 N.ar   62  HIS62      -0.2268
     53  CD2       21.2140   -3.8200   -4.7520 C.ar   62  HIS62       0.1154
     54  CE1       20.9660   -5.5980   -6.0130 C.ar   62  HIS62       0.1986
     55  NE2       21.5740   -4.4280   -5.9300 N.ar   62  HIS62      -0.2212
     56  N         20.0520   -4.2280    0.4760 N.am   63  SER63      -0.1938
     57  CA        19.3950   -3.7630    1.6890 C.3    63  SER63       0.2055
     58  C         19.9720   -2.4200    2.0980 C.2    63  SER63       0.2642
     59  O         21.1670   -2.1710    1.9350 O.2    63  SER63      -0.2714
     60  CB        19.5980   -4.7780    2.8210 C.3    63  SER63       0.2130
     61  OG        18.9670   -4.3470    4.0160 O.3    63  SER63      -0.2179
     62  N         19.1230   -1.5460    2.6260 N.am   64  ILE64      -0.1977
     63  CA        19.6150   -0.3310    3.2570 C.3    64  ILE64       0.1596
     64  C         20.0730   -0.7120    4.6590 C.2    64  ILE64       0.2287
     65  O         19.2560   -0.8780    5.5680 O.2    64  ILE64      -0.2864
     66  CB        18.5090    0.7450    3.3290 C.3    64  ILE64       0.0276
     67  CG1       18.0520    1.1040    1.9100 C.3    64  ILE64       0.0022
     68  CG2       19.0320    1.9890    4.0410 C.3    64  ILE64       0.0022
     69  CD1       16.7530    1.8910    1.8500 C.3    64  ILE64       0.0001
     70  N         22.8830   -0.5330    0.3990 N.3   101  MET101     -0.1245
     71  CA        22.3970    0.6150   -0.3540 C.3   101  MET101      0.1570
     72  C         22.2380    1.8500    0.5330 C.2   101  MET101      0.2261
     73  O         21.7420    1.7580    1.6590 O.2   101  MET101     -0.2867
     74  CB        21.0530    0.2880   -1.0140 C.3   101  MET101      0.0387
     75  CG        21.0950   -0.8620   -2.0150 C.3   101  MET101      0.0595
     76  SD        22.2240   -0.5750   -3.4000 S.3   101  MET101     -0.1393
     77  CE        21.4290    0.8130   -4.2340 C.3   101  MET101      0.0692
     78  N         17.9300    4.5500   -3.2610 N.3   106  VAL106     -0.1245
     79  CA        16.8410    3.6030   -3.4700 C.3   106  VAL106      0.1561
     80  C         15.5180    4.3320   -3.7100 C.2   106  VAL106      0.2260
     81  O         15.0050    5.0280   -2.8290 O.2   106  VAL106     -0.2867
     82  CB        16.6780    2.6520   -2.2650 C.3   106  VAL106      0.0252
     83  CG1       15.5340    1.6720   -2.5280 C.3   106  VAL106      0.0019
     84  CG2       17.9820    1.8960   -2.0180 C.3   106  VAL106      0.0019
     85  N         11.4180    4.5680   -4.6360 N.3   108  TRP108     -0.1241
     86  CA        10.1840    3.8550   -4.3230 C.3   108  TRP108      0.1605
     87  C          9.0640    4.8790   -4.2060 C.2   108  TRP108      0.2264
     88  O          9.2460    5.9270   -3.5850 O.2   108  TRP108     -0.2867
     89  CB        10.3260    3.0930   -2.9990 C.3   108  TRP108      0.0550
     90  CG         9.0310    2.5290   -2.4800 C.ar  108  TRP108      0.0003
     91  CD1        8.3850    1.4060   -2.9180 C.ar  108  TRP108      0.0946
     92  CD2        8.2110    3.0840   -1.4430 C.ar  108  TRP108      0.0152
     93  NE1        7.2140    1.2310   -2.2180 N.ar  108  TRP108     -0.2442
     94  CE2        7.0830    2.2470   -1.3080 C.ar  108  TRP108      0.0810
     95  CE3        8.3190    4.2070   -0.6170 C.ar  108  TRP108      0.0012
     96  CZ2        6.0720    2.5020   -0.3810 C.ar  108  TRP108      0.0191
     97  CZ3        7.3150    4.4580    0.3030 C.ar  108  TRP108      0.0001
     98  CH2        6.2070    3.6100    0.4130 C.ar  108  TRP108      0.0015
     99  N         14.2340    6.8850   -0.1970 N.3   113  PHE113     -0.1241
    100  CA        14.1110    6.6410    1.2350 C.3   113  PHE113      0.1605
    101  C         14.9480    7.5890    2.0880 C.2   113  PHE113      0.2264
    102  O         14.9170    7.5250    3.3160 O.2   113  PHE113     -0.2867
    103  CB        14.4670    5.1840    1.5480 C.3   113  PHE113      0.0534
    104  CG        13.4090    4.2110    1.1190 C.ar  113  PHE113     -0.0203
    105  CD1       12.2080    4.1310    1.8060 C.ar  113  PHE113     -0.0042
    106  CD2       13.5930    3.4090    0.0070 C.ar  113  PHE113     -0.0042
    107  CE1       11.2090    3.2730    1.3880 C.ar  113  PHE113     -0.0003
    108  CE2       12.6000    2.5500   -0.4160 C.ar  113  PHE113     -0.0003
    109  CZ        11.4040    2.4830    0.2740 C.ar  113  PHE113     -0.0000
@<TRIPOS>BOND
     1    15    14    1
     2    54    55   ar
     3    54    52   ar
     4    55    53   ar
     5    14    13    1
     6    52    51   ar
     7    53    51   ar
     8    85    86    1
     9    86    87    1
    10    86    89    1
    11    77    76    1
    12    87    88    2
    13    51    50    1
    14    13    12    1
    15    80    79    1
    16    80    81    2
    17    12     9    1
    18    79    78    1
    19    79    82    1
    20    76    75    1
    21    89    90    1
    22    91    90   ar
    23    91    93   ar
    24    50    47    1
    25    10    11    2
    26    10     9    1
    27    83    82    1
    28    90    92   ar
    29     9     8    1
    30    82    84    1
    31    93    94   ar
    32    75    74    1
    33    46    47    1
    34    47    48    1
    35    92    94   ar
    36    92    95   ar
    37    94    96   ar
    38     8     3   am
    39    74    71    1
    40    95    97   ar
    41     4     3    2
    42   108   106   ar
    43   108   109   ar
    44     3     2    1
    45    48    49    2
    46    48    56   am
    47    96    98   ar
    48    71    70    1
    49    71    72    1
    50    99   100    1
    51   106   104   ar
    52   109   107   ar
    53    97    98   ar
    54    56    57    1
    55    72    73    2
    56    37    36    2
    57     2     1    1
    58     2     5    1
    59   104   103    1
    60   104   105   ar
    61   100   103    1
    62   100   101    1
    63   107   105   ar
    64    28    27    2
    65     1     7    1
    66    36    35    1
    67    57    58    1
    68    57    60    1
    69    69    67    1
    70     5     6    1
    71    67    66    1
    72    59    58    2
    73   101   102    2
    74    58    62   am
    75    35    34    1
    76    35    38    1
    77    27    34   am
    78    27    26    1
    79    62    63    1
    80    60    61    1
    81     7     6    1
    82    26    29    1
    83    26    25    1
    84    63    66    1
    85    63    64    1
    86    66    68    1
    87    38    39    1
    88    29    30    1
    89    40    39   ar
    90    40    42   ar
    91    39    41   ar
    92    64    65    2
    93    30    31    1
    94    42    44   ar
    95    41    43   ar
    96    44    43   ar
    97    44    45    1
    98    31    33   am
    99    31    32    2
   100    20    21    1
   101    20    17    1
   102    21    22    1
   103    23    22    1
   104    23    24    1
   105    19    18    2
   106    18    17    1
   107    17    16    1
