@<TRIPOS>MOLECULE
tmp/3l5uA00.pdb
 95 91 0 0 0
SMALL
GASTEIGER

@<TRIPOS>ATOM
      1  N         36.1600  -13.9920  -11.6760 N.3     1  PRO1       -0.2102
      2  CA        35.0600  -13.0110  -11.6480 C.3     1  PRO1        0.1504
      3  C         33.7370  -13.6450  -12.0490 C.2     1  PRO1        0.2575
      4  O         33.6910  -14.7850  -12.5160 O.2     1  PRO1       -0.2718
      5  CB        35.4070  -11.8950  -12.6190 C.3     1  PRO1        0.0282
      6  CG        36.4210  -12.5620  -13.5330 C.3     1  PRO1        0.0208
      7  CD        37.1450  -13.6310  -12.7130 C.3     1  PRO1        0.0893
      8  N         32.6630  -12.8890  -11.8580 N.am    2  MET2       -0.1980
      9  CA        31.3620  -13.2300  -12.4150 C.3     2  MET2        0.1605
     10  C         31.0710  -12.2730  -13.5690 C.2     2  MET2        0.2287
     11  O         31.1210  -11.0500  -13.4010 O.2     2  MET2       -0.2864
     12  CB        30.2830  -13.0850  -11.3430 C.3     2  MET2        0.0413
     13  CG        28.8560  -13.1770  -11.8620 C.3     2  MET2        0.0598
     14  SD        27.6430  -12.7510  -10.5810 S.3     2  MET2       -0.1393
     15  CE        27.9220  -14.0620   -9.4040 C.3     2  MET2        0.0692
     16  N         43.4500  -15.9240  -12.9150 N.3    32  LYS32      -0.1245
     17  CA        42.7920  -16.7120  -11.8800 C.3    32  LYS32       0.1561
     18  C         42.3750  -18.0790  -12.3970 C.2    32  LYS32       0.2260
     19  O         42.1310  -18.2590  -13.5920 O.2    32  LYS32      -0.2867
     20  CB        41.5710  -15.9660  -11.3470 C.3    32  LYS32       0.0271
     21  CG        41.9270  -14.6630  -10.6480 C.3    32  LYS32       0.0035
     22  CD        40.6860  -13.8500  -10.3260 C.3    32  LYS32       0.0206
     23  CE        41.0570  -12.4760   -9.7830 C.3    32  LYS32       0.1093
     24  NZ        41.8870  -12.5630   -8.5470 N.3    32  LYS32      -0.1314
     25  N         37.0190  -20.5610  -10.4320 N.3    36  TYR36      -0.1241
     26  CA        36.4000  -19.3910   -9.8110 C.3    36  TYR36       0.1605
     27  C         35.4360  -18.6550  -10.7350 C.2    36  TYR36       0.2264
     28  O         34.6430  -17.8320  -10.2780 O.2    36  TYR36      -0.2867
     29  CB        37.4740  -18.4000   -9.3580 C.3    36  TYR36       0.0534
     30  CG        38.2210  -18.8180   -8.1190 C.ar   36  TYR36      -0.0201
     31  CD1       37.7960  -18.4070   -6.8620 C.ar   36  TYR36      -0.0009
     32  CD2       39.3620  -19.6090   -8.2030 C.ar   36  TYR36      -0.0009
     33  CE1       38.4820  -18.7670   -5.7230 C.ar   36  TYR36       0.0417
     34  CE2       40.0610  -19.9750   -7.0650 C.ar   36  TYR36       0.0417
     35  CZ        39.6130  -19.5510   -5.8260 C.ar   36  TYR36       0.1957
     36  OH        40.2910  -19.9070   -4.6810 O.3    36  TYR36      -0.2866
     37  N         32.4980  -17.5330  -13.1150 N.3    38  ALA38      -0.1245
     38  CA        31.0940  -17.7850  -13.4270 C.3    38  ALA38       0.1562
     39  C         30.6610  -16.9200  -14.6040 C.2    38  ALA38       0.2260
     40  O         30.9420  -15.7190  -14.6380 O.2    38  ALA38      -0.2867
     41  CB        30.2200  -17.4900  -12.2100 C.3    38  ALA38       0.0290
     42  N         31.9050   -8.6200  -12.1140 N.3    62  HIS62      -0.1226
     43  CA        32.1760   -8.4480  -10.6830 C.3    62  HIS62       0.1752
     44  C         33.4470   -9.2170  -10.3310 C.2    62  HIS62       0.2597
     45  O         33.6040  -10.3660  -10.7310 O.2    62  HIS62      -0.2718
     46  CB        31.0300   -9.0180   -9.8390 C.3    62  HIS62       0.0759
     47  CG        29.7160   -8.3200  -10.0230 C.ar   62  HIS62       0.0818
     48  ND1       28.9300   -8.4920  -11.1420 N.ar   62  HIS62      -0.2268
     49  CD2       29.0290   -7.4890   -9.2050 C.ar   62  HIS62       0.1154
     50  CE1       27.8140   -7.7980  -11.0050 C.ar   62  HIS62       0.1986
     51  NE2       27.8480   -7.1810   -9.8380 N.ar   62  HIS62      -0.2212
     52  N         34.3440   -8.5930   -9.5760 N.am   63  SER63      -0.1938
     53  CA        35.5410   -9.2850   -9.1250 C.3    63  SER63       0.2055
     54  C         35.9830   -8.7230   -7.7850 C.2    63  SER63       0.2642
     55  O         35.8530   -7.5240   -7.5310 O.2    63  SER63      -0.2714
     56  CB        36.6700   -9.1270  -10.1510 C.3    63  SER63       0.2130
     57  OG        37.8120   -9.8970   -9.7880 O.3    63  SER63      -0.2179
     58  N         36.4980   -9.5980   -6.9290 N.am   64  ILE64      -0.1977
     59  CA        37.1200   -9.1630   -5.6880 C.3    64  ILE64       0.1596
     60  C         38.5470   -8.7660   -6.0450 C.2    64  ILE64       0.2287
     61  O         39.4310   -9.6160   -6.1430 O.2    64  ILE64      -0.2864
     62  CB        37.1310  -10.3040   -4.6510 C.3    64  ILE64       0.0276
     63  CG1       35.6910  -10.7320   -4.3430 C.3    64  ILE64       0.0022
     64  CG2       37.8290   -9.8540   -3.3710 C.3    64  ILE64       0.0022
     65  CD1       35.5860  -12.0810   -3.6380 C.3    64  ILE64       0.0001
     66  N         34.3080   -5.8460   -5.8210 N.3   101  MET101     -0.1245
     67  CA        33.5740   -6.3140   -4.6510 C.3   101  MET101      0.1570
     68  C         34.5170   -6.5330   -3.4720 C.2   101  MET101      0.2261
     69  O         35.6500   -6.9820   -3.6490 O.2   101  MET101     -0.2867
     70  CB        32.8500   -7.6250   -4.9700 C.3   101  MET101      0.0387
     71  CG        31.8580   -7.5340   -6.1270 C.3   101  MET101      0.0595
     72  SD        30.4500   -6.4790   -5.7360 S.3   101  MET101     -0.1393
     73  CE        29.6250   -7.4490   -4.4690 C.3   101  MET101      0.0692
     74  N         30.7300  -10.9580   -0.7670 N.3   106  VAL106     -0.1231
     75  CA        30.5280  -12.0180   -1.7580 C.3   106  VAL106      0.1692
     76  C         30.3090  -13.3670   -1.0810 C.2   106  VAL106      0.2592
     77  O         31.2100  -13.9040   -0.4320 O.2   106  VAL106     -0.2718
     78  CB        31.7340  -12.1320   -2.7160 C.3   106  VAL106      0.0266
     79  CG1       31.4940  -13.2420   -3.7310 C.3   106  VAL106      0.0020
     80  CG2       31.9470  -10.8020   -3.4480 C.3   106  VAL106      0.0020
     81  N         29.1040  -13.9090   -1.2350 N.am  107  GLY107     -0.1957
     82  CA        28.7900  -15.1920   -0.6360 C.3   107  GLY107      0.1869
     83  C         29.1390  -16.3620   -1.5380 C.2   107  GLY107      0.2309
     84  O         29.0380  -16.2740   -2.7630 O.2   107  GLY107     -0.2863
     85  N         33.7520  -14.7300    1.4070 N.3   113  PHE113     -0.1241
     86  CA        35.1890  -14.8280    1.2100 C.3   113  PHE113      0.1605
     87  C         35.9730  -14.0950    2.2940 C.2   113  PHE113      0.2264
     88  O         37.1990  -14.0570    2.2610 O.2   113  PHE113     -0.2867
     89  CB        35.5620  -14.3080   -0.1810 C.3   113  PHE113      0.0534
     90  CG        35.2570  -15.2880   -1.2830 C.ar  113  PHE113     -0.0203
     91  CD1       35.9740  -16.4720   -1.3870 C.ar  113  PHE113     -0.0042
     92  CD2       34.2390  -15.0450   -2.1920 C.ar  113  PHE113     -0.0042
     93  CE1       35.6800  -17.3980   -2.3750 C.ar  113  PHE113     -0.0003
     94  CE2       33.9360  -15.9690   -3.1870 C.ar  113  PHE113     -0.0003
     95  CZ        34.6590  -17.1480   -3.2770 C.ar  113  PHE113     -0.0000
@<TRIPOS>BOND
     1    40    39    2
     2    39    38    1
     3    19    18    2
     4    10    11    2
     5    10     9    1
     6     6     7    1
     7     6     5    1
     8    38    37    1
     9    38    41    1
    10    16    17    1
    11     7     1    1
    12     5     2    1
    13     4     3    2
    14     9     8    1
    15     9    12    1
    16    18    17    1
    17    42    43    1
    18     3     8   am
    19     3     2    1
    20    17    20    1
    21    13    12    1
    22    13    14    1
    23     1     2    1
    24    20    21    1
    25    48    50   ar
    26    48    47   ar
    27    50    51   ar
    28    27    28    2
    29    27    26    1
    30    45    44    2
    31    43    44    1
    32    43    46    1
    33    21    22    1
    34    14    15    1
    35    25    26    1
    36    44    52   am
    37    22    23    1
    38    56    57    1
    39    56    53    1
    40    47    46    1
    41    47    49   ar
    42    51    49   ar
    43    26    29    1
    44    23    24    1
    45    52    53    1
    46    29    30    1
    47    53    54    1
    48    32    30   ar
    49    32    34   ar
    50    30    31   ar
    51    54    55    2
    52    54    58   am
    53    34    35   ar
    54    58    59    1
    55    31    33   ar
    56    61    60    2
    57    71    72    1
    58    71    70    1
    59    60    59    1
    60    35    33   ar
    61    35    36    1
    62    66    67    1
    63    72    73    1
    64    59    62    1
    65    70    67    1
    66    67    68    1
    67    62    63    1
    68    62    64    1
    69    63    65    1
    70    79    78    1
    71    69    68    2
    72    80    78    1
    73    95    94   ar
    74    95    93   ar
    75    94    92   ar
    76    84    83    2
    77    78    75    1
    78    93    91   ar
    79    92    90   ar
    80    75    76    1
    81    75    74    1
    82    83    82    1
    83    91    90   ar
    84    90    89    1
    85    81    76   am
    86    81    82    1
    87    76    77    2
    88    89    86    1
    89    86    85    1
    90    86    87    1
    91    88    87    2
