@<TRIPOS>MOLECULE
tmp/3l60A00.pdb
 73 68 0 0 0
SMALL
GASTEIGER

@<TRIPOS>ATOM
      1  N         22.5310   29.3130   11.7060 N.3    17  MET17      -0.1245
      2  CA        22.3920   29.0720   13.1650 C.3    17  MET17       0.1570
      3  C         21.6470   27.7350   13.4310 C.2    17  MET17       0.2261
      4  O         22.0890   26.8920   14.2240 O.2    17  MET17      -0.2867
      5  CB        21.7210   30.2840   13.8620 C.3    17  MET17       0.0387
      6  CG        22.5770   31.5570   13.8680 C.3    17  MET17       0.0595
      7  SD        24.2910   31.4310   14.5820 S.3    17  MET17      -0.1393
      8  CE        25.2730   30.8870   13.1700 C.3    17  MET17       0.0692
      9  N         25.4300   41.4290   10.5030 N.3   103  LEU103     -0.1245
     10  CA        26.8100   40.9590   10.5990 C.3   103  LEU103      0.1561
     11  C         27.1760   40.2080    9.3150 C.2   103  LEU103      0.2260
     12  O         26.3750   39.4760    8.7400 O.2   103  LEU103     -0.2867
     13  CB        27.0520   40.1480   11.8850 C.3   103  LEU103      0.0270
     14  CG        28.1330   39.0410   11.9000 C.3   103  LEU103      0.0019
     15  CD1       28.8780   39.0220   13.2330 C.3   103  LEU103      0.0001
     16  CD2       27.5140   37.6480   11.5790 C.3   103  LEU103      0.0001
     17  N         34.8030   35.3030   16.3630 N.3   148  SER148     -0.1217
     18  CA        33.7770   36.2590   16.7350 C.3   148  SER148      0.1889
     19  C         34.3460   37.2600   17.7390 C.2   148  SER148      0.2288
     20  O         34.6620   36.9080   18.8970 O.2   148  SER148     -0.2866
     21  CB        32.5520   35.5270   17.3100 C.3   148  SER148      0.2089
     22  OG        31.5810   36.4620   17.7360 O.3   148  SER148     -0.2183
     23  N         33.2680   39.6460   19.7780 N.3   150  PHE150     -0.1241
     24  CA        32.2180   40.3320   20.5280 C.3   150  PHE150      0.1605
     25  C         32.8460   41.3180   21.5100 C.2   150  PHE150      0.2264
     26  O         32.1980   42.2430   21.9460 O.2   150  PHE150     -0.2867
     27  CB        31.2430   39.3530   21.2030 C.3   150  PHE150      0.0534
     28  CG        31.8940   38.1750   21.8190 C.ar  150  PHE150     -0.0203
     29  CD1       32.6040   38.2920   22.9840 C.ar  150  PHE150     -0.0042
     30  CD2       31.7740   36.9140   21.2420 C.ar  150  PHE150     -0.0042
     31  CE1       33.2240   37.1690   23.5490 C.ar  150  PHE150     -0.0003
     32  CE2       32.3820   35.8060   21.8050 C.ar  150  PHE150     -0.0003
     33  CZ        33.1080   35.9280   22.9460 C.ar  150  PHE150     -0.0000
     34  N         32.4690   44.8870   20.8060 N.3   153  LEU153     -0.1245
     35  CA        31.1260   45.3860   21.0930 C.3   153  LEU153      0.1561
     36  C         30.8610   45.5870   22.5880 C.2   153  LEU153      0.2260
     37  O         29.7490   45.9690   22.9810 O.2   153  LEU153     -0.2867
     38  CB        30.0870   44.4450   20.4790 C.3   153  LEU153      0.0270
     39  CG        30.2300   44.1140   18.9800 C.3   153  LEU153      0.0019
     40  CD1       29.1220   43.1840   18.5400 C.3   153  LEU153      0.0001
     41  CD2       30.2640   45.3620   18.0860 C.3   153  LEU153      0.0001
     42  N         31.3020   43.1470   25.0480 N.3   155  VAL155     -0.1245
     43  CA        30.9880   41.9020   25.7600 C.3   155  VAL155      0.1561
     44  C         32.2590   41.3320   26.4010 C.2   155  VAL155      0.2260
     45  O         33.2820   41.1130   25.7080 O.2   155  VAL155     -0.2867
     46  CB        30.3400   40.8640   24.8120 C.3   155  VAL155      0.0252
     47  CG1       30.2220   39.4910   25.4600 C.3   155  VAL155      0.0019
     48  CG2       28.9300   41.3990   24.3070 C.3   155  VAL155      0.0019
     49  N         31.7090   35.3890   26.0260 N.3   158  GLY158     -0.1210
     50  CA        30.5890   34.9460   25.2390 C.3   158  GLY158      0.1956
     51  C         30.8320   33.5650   24.6790 C.2   158  GLY158      0.2612
     52  O         31.9790   33.0460   24.6930 O.2   158  GLY158     -0.2717
     53  N         29.7360   32.9960   24.1940 N.am  159  VAL159     -0.1966
     54  CA        29.6840   31.6630   23.6470 C.3   159  VAL159      0.1712
     55  C         29.0520   31.7910   22.2460 C.2   159  VAL159      0.2458
     56  O         27.8350   31.8610   22.0970 O.2   159  VAL159     -0.2730
     57  CB        28.9000   30.7090   24.5410 C.3   159  VAL159      0.0289
     58  CG1       28.8620   29.2590   23.9390 C.3   159  VAL159      0.0023
     59  CG2       29.5030   30.6770   25.9420 C.3   159  VAL159      0.0023
     60  N         29.8930   31.8750   21.2120 N.am  160  PRO160     -0.2716
     61  CA        29.4000   31.9670   19.8420 C.3   160  PRO160      0.1536
     62  C         29.0190   30.5970   19.2620 C.2   160  PRO160      0.2598
     63  O         29.2220   29.5660   19.9130 O.2   160  PRO160     -0.2715
     64  CB        30.5900   32.6010   19.0850 C.3   160  PRO160      0.0310
     65  CG        31.7790   32.1790   19.8180 C.3   160  PRO160      0.0237
     66  CD        31.3550   31.9700   21.2840 C.3   160  PRO160      0.0939
     67  N         28.4320   30.5960   18.0670 N.am  161  VAL161     -0.1978
     68  CA        27.9300   29.3860   17.4260 C.3   161  VAL161      0.1596
     69  C         28.8990   29.0030   16.3080 C.2   161  VAL161      0.2287
     70  O         29.3190   29.8460   15.4900 O.2   161  VAL161     -0.2864
     71  CB        26.4610   29.5970   16.8800 C.3   161  VAL161      0.0276
     72  CG1       25.9690   28.3850   16.1040 C.3   161  VAL161      0.0022
     73  CG2       25.5420   29.8760   18.0260 C.3   161  VAL161      0.0022
@<TRIPOS>BOND
     1    12    11    2
     2    11    10    1
     3     9    10    1
     4    10    13    1
     5    16    14    1
     6     1     2    1
     7    13    14    1
     8    14    15    1
     9     2     3    1
    10     2     5    1
    11     8     7    1
    12     3     4    2
    13     5     6    1
    14     6     7    1
    15    70    69    2
    16    72    71    1
    17    69    68    1
    18    17    18    1
    19    18    21    1
    20    18    19    1
    21    71    68    1
    22    71    73    1
    23    21    22    1
    24    68    67    1
    25    19    20    2
    26    67    62   am
    27    41    39    1
    28    40    39    1
    29    39    38    1
    30    64    65    1
    31    64    61    1
    32    62    61    1
    33    62    63    2
    34    23    24    1
    35    65    66    1
    36    61    60    1
    37    38    35    1
    38    24    27    1
    39    24    25    1
    40    34    35    1
    41    35    36    1
    42    27    28    1
    43    60    66    1
    44    60    55   am
    45    30    32   ar
    46    30    28   ar
    47    25    26    2
    48    32    33   ar
    49    28    29   ar
    50    56    55    2
    51    55    54    1
    52    36    37    2
    53    33    31   ar
    54    29    31   ar
    55    54    53    1
    56    54    57    1
    57    58    57    1
    58    53    51   am
    59    48    46    1
    60    57    59    1
    61    51    52    2
    62    51    50    1
    63    46    47    1
    64    46    43    1
    65    42    43    1
    66    50    49    1
    67    45    44    2
    68    43    44    1
