@<TRIPOS>MOLECULE
tmp/3l65A00.pdb
 198 195 0 0 0
SMALL
GASTEIGER

@<TRIPOS>ATOM
      1  N         26.5790   26.7660   60.5560 N.3    21  PRO21      -0.2103
      2  CA        25.7170   25.7420   59.9800 C.3    21  PRO21       0.1489
      3  C         24.8380   26.3980   58.9130 C.2    21  PRO21       0.2418
      4  O         24.6660   27.6340   58.8910 O.2    21  PRO21      -0.2734
      5  CB        24.9010   25.2410   61.1850 C.3    21  PRO21       0.0282
      6  CG        24.7930   26.4720   62.0540 C.3    21  PRO21       0.0208
      7  CD        26.1220   27.1800   61.8980 C.3    21  PRO21       0.0893
      8  N         24.2120   25.5730   58.0670 N.am   22  PRO22      -0.2718
      9  CA        23.2850   26.1130   57.0640 C.3    22  PRO22       0.1535
     10  C         22.1700   26.8880   57.7570 C.2    22  PRO22       0.2598
     11  O         21.5410   26.4060   58.7010 O.2    22  PRO22      -0.2715
     12  CB        22.7780   24.8430   56.3290 C.3    22  PRO22       0.0310
     13  CG        23.0180   23.7310   57.3520 C.3    22  PRO22       0.0237
     14  CD        24.2690   24.1010   58.0580 C.3    22  PRO22       0.0939
     15  N         21.9160   28.0850   57.2330 N.am   23  MET23      -0.1964
     16  CA        20.8140   28.9050   57.7220 C.3    23  MET23       0.1736
     17  C         20.0940   29.5600   56.5450 C.2    23  MET23       0.2616
     18  O         20.5600   30.5610   55.9870 O.2    23  MET23      -0.2715
     19  CB        21.3060   29.9900   58.6940 C.3    23  MET23       0.0427
     20  CG        21.7120   29.4230   60.0470 C.3    23  MET23       0.0599
     21  SD        22.2640   30.6860   61.2420 S.3    23  MET23      -0.1393
     22  CE        23.8570   31.0320   60.5480 C.3    23  MET23       0.0692
     23  N         18.9450   28.9970   56.2110 N.am   24  ALA24      -0.1963
     24  CA        18.0550   29.5410   55.2010 C.3    24  ALA24       0.1728
     25  C         17.8280   31.0320   55.3960 C.2    24  ALA24       0.2616
     26  O         17.5670   31.5050   56.5050 O.2    24  ALA24      -0.2715
     27  CB        16.7510   28.8100   55.2430 C.3    24  ALA24       0.0334
     28  N         17.8890   31.7610   54.2770 N.am   25  GLN25      -0.1963
     29  CA        17.7250   33.2080   54.2470 C.3    25  GLN25       0.1733
     30  C         16.4010   33.6750   53.6540 C.2    25  GLN25       0.2616
     31  O         16.0160   34.8340   53.8630 O.2    25  GLN25      -0.2715
     32  CB        18.8920   33.8600   53.5050 C.3    25  GLN25       0.0408
     33  CG        20.2300   33.6120   54.1680 C.3    25  GLN25       0.0908
     34  CD        20.2960   34.2940   55.5240 C.2    25  GLN25       0.2608
     35  OE1       20.4080   35.5130   55.6060 O.2    25  GLN25      -0.2717
     36  NE2       20.2340   33.4950   56.6180 N.am   25  GLN25      -0.0878
     37  N         15.7620   32.8070   52.8790 N.am   26  TYR26      -0.1974
     38  CA        14.4480   33.1040   52.2880 C.3    26  TYR26       0.1639
     39  C         14.4780   34.3280   51.3810 C.2    26  TYR26       0.2290
     40  O         13.4710   35.0170   51.2630 O.2    26  TYR26      -0.2864
     41  CB        13.3500   33.1960   53.3710 C.3    26  TYR26       0.0560
     42  CG        13.3910   32.0360   54.3590 C.ar   26  TYR26      -0.0198
     43  CD1       12.6950   30.8820   54.1070 C.ar   26  TYR26      -0.0009
     44  CD2       14.1260   32.1130   55.5320 C.ar   26  TYR26      -0.0009
     45  CE1       12.7190   29.8080   54.9780 C.ar   26  TYR26       0.0417
     46  CE2       14.1630   31.0520   56.4110 C.ar   26  TYR26       0.0417
     47  CZ        13.4520   29.9070   56.1450 C.ar   26  TYR26       0.1957
     48  OH        13.4970   28.8770   57.0670 O.3    26  TYR26      -0.2866
     49  N         20.2330   25.4070   53.1890 N.3    56  ALA56      -0.1245
     50  CA        19.4830   24.3890   52.4460 C.3    56  ALA56       0.1562
     51  C         19.2020   24.8960   51.0260 C.2    56  ALA56       0.2260
     52  O         18.4380   25.8390   50.8470 O.2    56  ALA56      -0.2867
     53  CB        18.1750   24.1090   53.1490 C.3    56  ALA56       0.0290
     54  N         11.7720   24.7290   50.6030 N.3    65  ILE65      -0.1245
     55  CA        10.8360   24.9080   51.7000 C.3    65  ILE65       0.1561
     56  C          9.8000   25.9570   51.3120 C.2    65  ILE65       0.2260
     57  O          8.6100   25.7600   51.5640 O.2    65  ILE65      -0.2867
     58  CB        11.5260   25.3180   53.0270 C.3    65  ILE65       0.0252
     59  CG1       12.6930   24.3870   53.3680 C.3    65  ILE65       0.0019
     60  CG2       10.4700   25.3550   54.1430 C.3    65  ILE65       0.0019
     61  CD1       13.7130   25.0140   54.3550 C.3    65  ILE65       0.0001
     62  N         24.6970   22.8510   51.8290 N.3    98  GLN98      -0.1245
     63  CA        23.7380   21.8360   52.1710 C.3    98  GLN98       0.1566
     64  C         22.7530   21.7060   51.0270 C.2    98  GLN98       0.2260
     65  O         22.1090   22.6800   50.6780 O.2    98  GLN98      -0.2867
     66  CB        23.0010   22.2070   53.4850 C.3    98  GLN98       0.0367
     67  CG        22.0660   21.1150   53.9600 C.3    98  GLN98       0.0905
     68  CD        21.1910   21.5720   55.1050 C.2    98  GLN98       0.2608
     69  OE1       20.4420   22.5220   54.9540 O.2    98  GLN98      -0.2717
     70  NE2       21.2810   20.8810   56.2570 N.am   98  GLN98      -0.0878
     71  N         20.9900   17.0250   53.3050 N.3   177  HIS177     -0.1241
     72  CA        20.0300   17.3910   54.3310 C.3   177  HIS177      0.1621
     73  C         19.0470   16.2560   54.5690 C.2   177  HIS177      0.2264
     74  O         17.9450   16.1960   53.9880 O.2   177  HIS177     -0.2867
     75  CB        19.2860   18.6580   53.9730 C.3   177  HIS177      0.0745
     76  CG        18.5790   19.2750   55.1320 C.ar  177  HIS177      0.0817
     77  ND1       18.4680   18.6410   56.3590 N.ar  177  HIS177     -0.2268
     78  CD2       18.0510   20.5140   55.2850 C.ar  177  HIS177      0.1154
     79  CE1       17.8930   19.4760   57.2110 C.ar  177  HIS177      0.1986
     80  NE2       17.6340   20.6190   56.5900 N.ar  177  HIS177     -0.2212
     81  N         15.4480   17.1790   60.1060 N.3   180  HIS180     -0.1241
     82  CA        14.4600   18.2250   60.3090 C.3   180  HIS180      0.1621
     83  C         13.1260   17.9680   59.6260 C.2   180  HIS180      0.2264
     84  O         12.3800   18.8840   59.3420 O.2   180  HIS180     -0.2867
     85  CB        15.0340   19.5950   59.9580 C.3   180  HIS180      0.0745
     86  CG        16.2670   19.9310   60.7440 C.ar  180  HIS180      0.0817
     87  ND1       17.0940   20.9800   60.4050 N.ar  180  HIS180     -0.2268
     88  CD2       16.8000   19.3750   61.8630 C.ar  180  HIS180      0.1154
     89  CE1       18.0870   21.0540   61.2750 C.ar  180  HIS180      0.1986
     90  NE2       17.9410   20.0840   62.1600 N.ar  180  HIS180     -0.2212
     91  N         12.3440   16.8240   56.7310 N.3   182  TYR182     -0.1241
     92  CA        12.2940   16.9840   55.2800 C.3   182  TYR182      0.1605
     93  C         12.3720   15.6110   54.6130 C.2   182  TYR182      0.2264
     94  O         12.1620   14.5900   55.2630 O.2   182  TYR182     -0.2867
     95  CB        13.4080   17.9520   54.8670 C.3   182  TYR182      0.0534
     96  CG        13.2560   19.3500   55.4700 C.ar  182  TYR182     -0.0201
     97  CD1       12.0550   20.0290   55.3750 C.ar  182  TYR182     -0.0009
     98  CD2       14.2880   19.9400   56.1540 C.ar  182  TYR182     -0.0009
     99  CE1       11.9080   21.2970   55.9130 C.ar  182  TYR182      0.0417
    100  CE2       14.1510   21.2020   56.7020 C.ar  182  TYR182      0.0417
    101  CZ        12.9580   21.8680   56.6000 C.ar  182  TYR182      0.1957
    102  OH        12.8380   23.1370   57.1470 O.3   182  TYR182     -0.2866
    103  N         23.4540   15.8000   57.4160 N.3   230  ARG230     -0.1245
    104  CA        22.7650   16.1910   58.6360 C.3   230  ARG230      0.1563
    105  C         21.6100   15.2280   58.8180 C.2   230  ARG230      0.2260
    106  O         20.8890   14.9170   57.8690 O.2   230  ARG230     -0.2867
    107  CB        22.2660   17.6380   58.5610 C.3   230  ARG230      0.0307
    108  CG        21.9540   18.2290   59.9720 C.3   230  ARG230      0.0489
    109  CD        21.7140   19.7130   59.9910 C.3   230  ARG230      0.2205
    110  NE        22.0770   20.2280   61.3170 N.pl3 230  ARG230     -0.0865
    111  CZ        22.0260   21.5070   61.6690 C.cat 230  ARG230      0.5346
    112  NH1       22.4860   21.8930   62.8570 N.pl3 230  ARG230      0.1354
    113  NH2       21.5020   22.3960   60.8400 N.pl3 230  ARG230      0.1354
    114  N         21.4170   16.0570   64.6980 N.3   265  SER265     -0.1217
    115  CA        20.3250   16.9380   65.0270 C.3   265  SER265      0.1889
    116  C         19.1410   16.1730   65.5950 C.2   265  SER265      0.2288
    117  O         19.2340   14.9810   65.9110 O.2   265  SER265     -0.2866
    118  CB        19.9420   17.7980   63.8190 C.3   265  SER265      0.2089
    119  OG        19.2190   18.9600   64.2500 O.3   265  SER265     -0.2183
    120  N         24.6120   21.5400   67.1860 N.3   300  ALA300     -0.1231
    121  CA        24.2530   22.9410   67.3330 C.3   300  ALA300      0.1694
    122  C         23.2150   23.0550   68.4320 C.2   300  ALA300      0.2592
    123  O         22.7010   22.0430   68.9010 O.2   300  ALA300     -0.2718
    124  CB        23.6850   23.5150   66.0040 C.3   300  ALA300      0.0304
    125  N         23.0020   24.3050   68.8400 N.am  301  TRP301     -0.1962
    126  CA        21.9340   24.8250   69.7020 C.3   301  TRP301      0.1771
    127  C         22.5520   25.3430   70.9750 C.2   301  TRP301      0.2620
    128  O         22.8130   24.5870   71.9190 O.2   301  TRP301     -0.2715
    129  CB        20.7770   23.8820   69.9990 C.3   301  TRP301      0.0590
    130  CG        19.6880   24.6450   70.7100 C.ar  301  TRP301      0.0006
    131  CD1       19.6260   24.9870   72.0580 C.ar  301  TRP301      0.0946
    132  CD2       18.5430   25.2130   70.1120 C.ar  301  TRP301      0.0152
    133  NE1       18.4850   25.6940   72.3070 N.ar  301  TRP301     -0.2442
    134  CE2       17.8070   25.8640   71.1260 C.ar  301  TRP301      0.0810
    135  CE3       18.0430   25.2100   68.8180 C.ar  301  TRP301      0.0012
    136  CZ2       16.6000   26.5200   70.8740 C.ar  301  TRP301      0.0191
    137  CZ3       16.8540   25.8660   68.5580 C.ar  301  TRP301      0.0001
    138  CH2       16.1380   26.5090   69.5800 C.ar  301  TRP301      0.0015
    139  N         22.7620   26.6580   71.0030 N.am  302  GLY302     -0.1940
    140  CA        23.2750   27.3260   72.1810 C.3   302  GLY302      0.2014
    141  C         24.7800   27.3780   72.3400 C.2   302  GLY302      0.2639
    142  O         25.2630   27.7390   73.4130 O.2   302  GLY302     -0.2714
    143  N         25.5520   27.0370   71.3220 N.am  303  PHE303     -0.1959
    144  CA        26.9990   27.1170   71.4310 C.3   303  PHE303      0.1771
    145  C         27.5990   28.5030   71.1940 C.2   303  PHE303      0.2620
    146  O         28.8180   28.6550   71.1630 O.2   303  PHE303     -0.2715
    147  CB        27.6550   26.0640   70.5400 C.3   303  PHE303      0.0574
    148  CG        27.4160   24.6500   70.9950 C.ar  303  PHE303     -0.0200
    149  CD1       28.1370   24.1370   72.0720 C.ar  303  PHE303     -0.0042
    150  CD2       26.4920   23.8260   70.3650 C.ar  303  PHE303     -0.0042
    151  CE1       27.9570   22.8390   72.4840 C.ar  303  PHE303     -0.0003
    152  CE2       26.2850   22.5250   70.7750 C.ar  303  PHE303     -0.0003
    153  CZ        27.0240   22.0200   71.8550 C.ar  303  PHE303     -0.0000
    154  N         26.7530   29.5060   71.0480 N.am  304  GLY304     -0.1954
    155  CA        27.2180   30.8780   70.9760 C.3   304  GLY304      0.1869
    156  C         27.8260   31.4290   72.2640 C.2   304  GLY304      0.2309
    157  O         28.4190   32.5140   72.2530 O.2   304  GLY304     -0.2863
    158  N         28.9890   23.9760   65.7720 N.3   322  SER322     -0.1202
    159  CA        28.1900   24.7850   64.8680 C.3   322  SER322      0.2020
    160  C         27.5070   25.8860   65.6710 C.2   322  SER322      0.2619
    161  O         26.8420   25.6190   66.6790 O.2   322  SER322     -0.2717
    162  CB        27.1520   23.9190   64.1770 C.3   322  SER322      0.2103
    163  OG        27.7810   23.0010   63.2800 O.3   322  SER322     -0.2182
    164  N         27.6550   27.1160   65.1940 N.am  323  VAL323     -0.1965
    165  CA        27.1780   28.3240   65.8640 C.3   323  VAL323      0.1727
    166  C         26.3560   29.1190   64.8340 C.2   323  VAL323      0.2617
    167  O         26.9030   29.6930   63.8780 O.2   323  VAL323     -0.2715
    168  CB        28.3490   29.1500   66.4100 C.3   323  VAL323      0.0290
    169  CG1       27.8280   30.4400   67.0560 C.3   323  VAL323      0.0023
    170  CG2       29.2020   28.3190   67.3930 C.3   323  VAL323      0.0023
    171  N         25.0430   29.1250   65.0090 N.am  324  GLY324     -0.1940
    172  CA        24.0880   29.6620   64.0520 C.3   324  GLY324      0.2014
    173  C         23.6500   31.0750   64.3840 C.2   324  GLY324      0.2639
    174  O         24.1870   32.0570   63.8540 O.2   324  GLY324     -0.2714
    175  N         22.6420   31.2000   65.2420 N.am  325  ARG325     -0.1963
    176  CA        22.0530   32.5170   65.5030 C.3   325  ARG325      0.1729
    177  C         23.0340   33.5620   66.0070 C.2   325  ARG325      0.2616
    178  O         22.8780   34.7390   65.6720 O.2   325  ARG325     -0.2715
    179  CB        20.8620   32.3870   66.4590 C.3   325  ARG325      0.0348
    180  CG        19.6450   31.8090   65.7760 C.3   325  ARG325      0.0492
    181  CD        18.5640   31.3870   66.7420 C.3   325  ARG325      0.2205
    182  NE        19.0060   30.2210   67.4760 N.pl3 325  ARG325     -0.0865
    183  CZ        18.2900   29.6250   68.4130 C.cat 325  ARG325      0.5346
    184  NH1       17.0890   30.0800   68.6910 N.pl3 325  ARG325      0.1354
    185  NH2       18.7730   28.5750   69.0670 N.pl3 325  ARG325      0.1354
    186  N         24.0450   33.1760   66.7780 N.am  326  ALA326     -0.1977
    187  CA        25.0090   34.1520   67.2280 C.3   326  ALA326      0.1597
    188  C         25.7260   34.8270   66.0620 C.2   326  ALA326      0.2287
    189  O         26.1550   35.9780   66.2150 O.2   326  ALA326     -0.2864
    190  CB        26.0100   33.5300   68.1730 C.3   326  ALA326      0.0319
    191  N         24.1700   35.4650   63.0860 N.3   328  LEU328     -0.1245
    192  CA        23.2150   36.4260   62.5790 C.3   328  LEU328      0.1561
    193  C         23.3000   37.7070   63.3900 C.2   328  LEU328      0.2260
    194  O         23.2750   38.7980   62.8390 O.2   328  LEU328     -0.2867
    195  CB        21.7900   35.8780   62.5360 C.3   328  LEU328      0.0270
    196  CG        21.6210   34.5130   61.8640 C.3   328  LEU328      0.0019
    197  CD1       20.1780   34.0820   61.9500 C.3   328  LEU328      0.0001
    198  CD2       22.1160   34.5240   60.3970 C.3   328  LEU328      0.0001
@<TRIPOS>BOND
     1    54    55    1
     2    65    64    2
     3    52    51    2
     4    51    50    1
     5    64    63    1
     6    40    39    2
     7    56    57    2
     8    56    55    1
     9    39    38    1
    10    55    58    1
    11    62    63    1
    12    63    66    1
    13    38    37    1
    14    38    41    1
    15    50    53    1
    16    50    49    1
    17    37    30   am
    18    58    59    1
    19    58    60    1
    20    71    72    1
    21    59    61    1
    22    41    42    1
    23    66    67    1
    24    32    33    1
    25    32    29    1
    26    30    31    2
    27    30    29    1
    28    67    68    1
    29    75    72    1
    30    75    76    1
    31    74    73    2
    32    43    42   ar
    33    43    45   ar
    34    33    34    1
    35    29    28    1
    36    28    25   am
    37    72    73    1
    38    42    44   ar
    39    93    94    2
    40    93    92    1
    41    95    92    1
    42    95    96    1
    43    69    68    2
    44    45    47   ar
    45    68    70   am
    46    76    78   ar
    47    76    77   ar
    48    24    27    1
    49    24    25    1
    50    24    23    1
    51    92    91    1
    52    78    80   ar
    53    97    96   ar
    54    97    99   ar
    55    25    26    2
    56    96    98   ar
    57    34    35    2
    58    34    36   am
    59    44    46   ar
    60    99   101   ar
    61    18    17    2
    62    47    46   ar
    63    47    48    1
    64    98   100   ar
    65    23    17   am
    66    12     9    1
    67    12    13    1
    68    77    79   ar
    69    17    16    1
    70    80    79   ar
    71   101   100   ar
    72   101   102    1
    73     9    10    1
    74     9     8    1
    75    15    16    1
    76    15    10   am
    77    13    14    1
    78   103   104    1
    79    16    19    1
    80    10    11    2
    81   106   105    2
    82    14     8    1
    83     8     3   am
    84   107   104    1
    85   107   108    1
    86   104   105    1
    87    19    20    1
    88     4     3    2
    89     3     2    1
    90    84    83    2
    91    83    82    1
    92    85    82    1
    93    85    86    1
    94   108   109    1
    95     2     1    1
    96     2     5    1
    97   109   110    1
    98    20    21    1
    99    81    82    1
   100   198   196    1
   101    87    86   ar
   102    87    89   ar
   103    22    21    1
   104     1     7    1
   105    86    88   ar
   106   113   111    1
   107     5     6    1
   108    89    90   ar
   109   110   111    2
   110   111   112    1
   111    88    90   ar
   112   196   197    1
   113   196   195    1
   114     7     6    1
   115   195   192    1
   116   192   191    1
   117   192   193    1
   118   194   193    2
   119   163   162    1
   120   118   119    1
   121   118   115    1
   122   174   173    2
   123   167   166    2
   124   172   173    1
   125   172   171    1
   126   162   159    1
   127   173   175   am
   128   114   115    1
   129   166   171   am
   130   166   165    1
   131   159   160    1
   132   159   158    1
   133   115   116    1
   134   164   160   am
   135   164   165    1
   136   175   176    1
   137   176   177    1
   138   176   179    1
   139   116   117    2
   140   160   161    2
   141   178   177    2
   142   180   179    1
   143   180   181    1
   144   165   168    1
   145   124   121    1
   146   177   186   am
   147   188   189    2
   148   188   187    1
   149   168   169    1
   150   168   170    1
   151   181   182    1
   152   186   187    1
   153   120   121    1
   154   187   190    1
   155   121   122    1
   156   182   183    2
   157   183   184    1
   158   183   185    1
   159   122   125   am
   160   122   123    2
   161   137   135   ar
   162   137   138   ar
   163   135   132   ar
   164   125   126    1
   165   138   136   ar
   166   126   129    1
   167   126   127    1
   168   129   130    1
   169   132   130   ar
   170   132   134   ar
   171   150   152   ar
   172   150   148   ar
   173   147   148    1
   174   147   144    1
   175   130   131   ar
   176   152   153   ar
   177   136   134   ar
   178   127   139   am
   179   127   128    2
   180   155   154    1
   181   155   156    1
   182   148   149   ar
   183   139   140    1
   184   154   145   am
   185   134   133   ar
   186   146   145    2
   187   145   144    1
   188   143   144    1
   189   143   141   am
   190   153   151   ar
   191   131   133   ar
   192   149   151   ar
   193   140   141    1
   194   157   156    2
   195   141   142    2
