@<TRIPOS>MOLECULE
tmp/3l6aA01.pdb
 84 82 0 0 0
SMALL
GASTEIGER

@<TRIPOS>ATOM
      1  N         25.7380   63.7140   44.7370 N.3   154  THR154     -0.1218
      2  CA        25.5940   64.7940   43.7470 C.3   154  THR154      0.1862
      3  C         26.0500   64.3590   42.3500 C.2   154  THR154      0.2287
      4  O         25.3230   64.5410   41.3740 O.2   154  THR154     -0.2866
      5  CB        26.3070   66.1080   44.1950 C.3   154  THR154      0.1770
      6  OG1       25.7830   66.5180   45.4650 O.3   154  THR154     -0.2211
      7  CG2       26.0760   67.2200   43.1930 C.3   154  THR154      0.0375
      8  N         23.7600   61.4850   41.0390 N.3   157  PHE157     -0.1227
      9  CA        22.4830   62.0770   40.6030 C.3   157  PHE157      0.1736
     10  C         22.6430   62.8140   39.2820 C.2   157  PHE157      0.2595
     11  O         21.7870   62.7090   38.4040 O.2   157  PHE157     -0.2718
     12  CB        21.8520   62.9830   41.6620 C.3   157  PHE157      0.0547
     13  CG        20.4280   63.3440   41.3380 C.ar  157  PHE157     -0.0202
     14  CD1       19.3990   62.4210   41.5480 C.ar  157  PHE157     -0.0042
     15  CD2       20.1220   64.5860   40.7740 C.ar  157  PHE157     -0.0042
     16  CE1       18.0750   62.7370   41.2280 C.ar  157  PHE157     -0.0003
     17  CE2       18.8040   64.9180   40.4550 C.ar  157  PHE157     -0.0003
     18  CZ        17.7780   63.9800   40.6780 C.ar  157  PHE157     -0.0000
     19  N         23.7590   63.5330   39.1350 N.am  158  GLN158     -0.1979
     20  CA        24.0980   64.1950   37.8730 C.3   158  GLN158      0.1601
     21  C         24.2260   63.1620   36.7540 C.2   158  GLN158      0.2287
     22  O         23.6500   63.3220   35.6750 O.2   158  GLN158     -0.2864
     23  CB        25.3960   65.0030   38.0150 C.3   158  GLN158      0.0394
     24  CG        25.6990   65.9620   36.8610 C.3   158  GLN158      0.0908
     25  CD        26.1330   65.2590   35.5890 C.2   158  GLN158      0.2608
     26  OE1       25.5980   65.5270   34.5120 O.2   158  GLN158     -0.2717
     27  NE2       27.0980   64.3460   35.7040 N.am  158  GLN158     -0.0878
     28  N         18.4030   62.0660   35.8060 N.3   162  VAL162     -0.1245
     29  CA        17.0390   62.1900   36.3300 C.3   162  VAL162      0.1561
     30  C         16.6430   63.6690   36.5050 C.2   162  VAL162      0.2260
     31  O         17.4280   64.4910   37.0020 O.2   162  VAL162     -0.2867
     32  CB        16.8700   61.4340   37.6670 C.3   162  VAL162      0.0252
     33  CG1       15.5070   61.7370   38.3190 C.3   162  VAL162      0.0019
     34  CG2       17.0680   59.9100   37.4460 C.3   162  VAL162      0.0019
     35  N         21.5580   69.3080   46.4810 N.3   190  LEU190     -0.1231
     36  CA        21.4760   68.8790   45.0870 C.3   190  LEU190      0.1693
     37  C         21.1750   70.0270   44.1120 C.2   190  LEU190      0.2592
     38  O         21.4930   69.9310   42.9220 O.2   190  LEU190     -0.2718
     39  CB        20.4510   67.7420   44.9130 C.3   190  LEU190      0.0284
     40  CG        20.8460   66.3860   45.5340 C.3   190  LEU190      0.0019
     41  CD1       19.7320   65.3730   45.3610 C.3   190  LEU190      0.0001
     42  CD2       22.1480   65.8520   44.9240 C.3   190  LEU190      0.0001
     43  N         20.5730   71.1080   44.6090 N.am  191  PHE191     -0.1963
     44  CA        20.2110   72.2440   43.7510 C.3   191  PHE191      0.1756
     45  C         20.7120   73.5660   44.3330 C.2   191  PHE191      0.2461
     46  O         19.9120   74.4250   44.7310 O.2   191  PHE191     -0.2730
     47  CB        18.6920   72.2620   43.5090 C.3   191  PHE191      0.0574
     48  CG        18.2210   71.1630   42.5950 C.ar  191  PHE191     -0.0200
     49  CD1       18.0490   69.8610   43.0750 C.ar  191  PHE191     -0.0042
     50  CD2       17.9860   71.4170   41.2550 C.ar  191  PHE191     -0.0042
     51  CE1       17.6260   68.8500   42.2390 C.ar  191  PHE191     -0.0003
     52  CE2       17.5600   70.4020   40.4030 C.ar  191  PHE191     -0.0003
     53  CZ        17.3870   69.1130   40.9020 C.ar  191  PHE191     -0.0000
     54  N         22.0440   73.7230   44.4320 N.am  192  PRO192     -0.2716
     55  CA        22.5500   74.9380   45.0910 C.3   192  PRO192      0.1536
     56  C         22.2690   76.2460   44.3510 C.2   192  PRO192      0.2598
     57  O         22.1230   77.2790   45.0090 O.2   192  PRO192     -0.2715
     58  CB        24.0590   74.6830   45.2000 C.3   192  PRO192      0.0310
     59  CG        24.3560   73.6810   44.1450 C.3   192  PRO192      0.0237
     60  CD        23.1380   72.8240   44.0110 C.3   192  PRO192      0.0939
     61  N         22.1870   76.2220   43.0190 N.am  193  LEU193     -0.1964
     62  CA        21.9100   77.4600   42.2930 C.3   193  LEU193      0.1728
     63  C         20.4370   77.8460   42.3820 C.2   193  LEU193      0.2616
     64  O         20.1040   79.0250   42.4620 O.2   193  LEU193     -0.2715
     65  CB        22.3860   77.4050   40.8310 C.3   193  LEU193      0.0311
     66  CG        23.8780   77.1870   40.5500 C.3   193  LEU193      0.0022
     67  CD1       24.1490   77.2990   39.0470 C.3   193  LEU193      0.0001
     68  CD2       24.7390   78.1620   41.3170 C.3   193  LEU193      0.0001
     69  N         19.5550   76.8510   42.3870 N.am  194  LEU194     -0.1977
     70  CA        18.1390   77.1110   42.6440 C.3   194  LEU194      0.1596
     71  C         17.9110   77.7030   44.0410 C.2   194  LEU194      0.2287
     72  O         17.1090   78.6330   44.2080 O.2   194  LEU194     -0.2864
     73  CB        17.3100   75.8420   42.4550 C.3   194  LEU194      0.0297
     74  CG        15.8160   75.9580   42.7930 C.3   194  LEU194      0.0022
     75  CD1       15.1130   76.8930   41.7930 C.3   194  LEU194      0.0001
     76  CD2       15.1820   74.5780   42.8060 C.3   194  LEU194      0.0001
     77  N         31.3650   76.3570   41.5630 N.3   225  LEU225     -0.1245
     78  CA        30.1900   77.1570   41.1990 C.3   225  LEU225      0.1561
     79  C         30.4500   78.6730   41.1640 C.2   225  LEU225      0.2260
     80  O         29.7690   79.3990   40.4310 O.2   225  LEU225     -0.2867
     81  CB        28.9700   76.8040   42.0610 C.3   225  LEU225      0.0270
     82  CG        28.3100   75.4620   41.7240 C.3   225  LEU225      0.0019
     83  CD1       27.0340   75.2530   42.5520 C.3   225  LEU225      0.0001
     84  CD2       27.9820   75.3800   40.2360 C.3   225  LEU225      0.0001
@<TRIPOS>BOND
     1    26    25    2
     2    25    27   am
     3    25    24    1
     4    22    21    2
     5    28    29    1
     6    29    30    1
     7    29    32    1
     8    30    31    2
     9    21    20    1
    10    24    23    1
    11    34    32    1
    12    32    33    1
    13    20    23    1
    14    20    19    1
    15    11    10    2
    16    67    66    1
    17    19    10   am
    18    10     9    1
    19    84    82    1
    20    52    53   ar
    21    52    50   ar
    22    80    79    2
    23    17    18   ar
    24    17    15   ar
    25    66    65    1
    26    66    68    1
    27     9     8    1
    28     9    12    1
    29    18    16   ar
    30    15    13   ar
    31    65    62    1
    32    53    51   ar
    33    79    78    1
    34    78    77    1
    35    78    81    1
    36    16    14   ar
    37    50    48   ar
    38    13    14   ar
    39    13    12    1
    40     4     3    2
    41    82    81    1
    42    82    83    1
    43    75    74    1
    44    51    49   ar
    45    62    63    1
    46    62    61    1
    47     3     2    1
    48    63    69   am
    49    63    64    2
    50    69    70    1
    51    73    70    1
    52    73    74    1
    53    48    49   ar
    54    48    47    1
    55    70    71    1
    56    74    76    1
    57    38    37    2
    58    61    56   am
    59     7     5    1
    60    47    44    1
    61     2     5    1
    62     2     1    1
    63    44    45    1
    64    44    43    1
    65    60    59    1
    66    60    54    1
    67    71    72    2
    68    37    43   am
    69    37    36    1
    70    59    58    1
    71     5     6    1
    72    45    54   am
    73    45    46    2
    74    56    57    2
    75    56    55    1
    76    54    55    1
    77    39    36    1
    78    39    40    1
    79    42    40    1
    80    36    35    1
    81    55    58    1
    82    41    40    1
