@<TRIPOS>MOLECULE
tmp/3l6cA01.pdb
 96 90 0 0 0
SMALL
GASTEIGER

@<TRIPOS>ATOM
      1  N         15.0400  -19.1220   -1.0880 N.3    55  LYS55      -0.1245
      2  CA        14.0800  -20.0510   -0.4780 C.3    55  LYS55       0.1561
      3  C         13.6970  -19.7190    0.9630 C.2    55  LYS55       0.2260
      4  O         12.6520  -20.2240    1.5030 O.2    55  LYS55      -0.2867
      5  CB        14.6280  -21.4680   -0.5120 C.3    55  LYS55       0.0271
      6  CG        14.8460  -22.0540   -1.9140 C.3    55  LYS55       0.0035
      7  CD        13.5440  -22.6430   -2.4570 C.3    55  LYS55       0.0206
      8  CE        13.7680  -23.8380   -3.3850 C.3    55  LYS55       0.1093
      9  NZ        14.7290  -23.6500   -4.5170 N.3    55  LYS55      -0.1314
     10  N         13.8430  -32.0640   -0.1240 N.3    82  SER82      -0.1202
     11  CA        14.6110  -30.9890   -0.7280 C.3    82  SER82       0.2020
     12  C         15.8960  -31.4890   -1.4000 C.2    82  SER82       0.2619
     13  O         16.5580  -32.3780   -0.8860 O.2    82  SER82      -0.2717
     14  CB        14.9650  -29.9870    0.3400 C.3    82  SER82       0.2103
     15  OG        15.5660  -28.8500   -0.2370 O.3    82  SER82      -0.2182
     16  N         16.2540  -30.8910   -2.5340 N.am   83  SER83      -0.1951
     17  CA        17.5730  -31.1280   -3.1520 C.3    83  SER83       0.1924
     18  C         18.6970  -30.3970   -2.3850 C.2    83  SER83       0.2314
     19  O         19.8930  -30.6140   -2.6120 O.2    83  SER83      -0.2863
     20  CB        17.5260  -30.7140   -4.6240 C.3    83  SER83       0.2116
     21  OG        17.3130  -29.3010   -4.7930 O.3    83  SER83      -0.2180
     22  N         18.3750  -26.6350   -1.0150 N.3    85  ASN85      -0.1225
     23  CA        18.2010  -25.2090   -0.7240 C.3    85  ASN85       0.1785
     24  C         16.9750  -24.8380    0.0970 C.2    85  ASN85       0.2597
     25  O         17.0430  -23.9550    0.9810 O.2    85  ASN85      -0.2718
     26  CB        18.2730  -24.3600   -1.9710 C.3    85  ASN85       0.1169
     27  CG        19.6830  -24.0570   -2.3850 C.2    85  ASN85       0.2627
     28  OD1       20.6470  -24.3550   -1.6650 O.2    85  ASN85      -0.2716
     29  ND2       19.8220  -23.4200   -3.5580 N.am   85  ASN85      -0.0877
     30  N         15.8710  -25.5100   -0.1720 N.am   86  HIS86      -0.1975
     31  CA        14.7090  -25.3970    0.6930 C.3    86  HIS86       0.1656
     32  C         14.9320  -26.0660    2.0600 C.2    86  HIS86       0.2291
     33  O         14.4390  -25.5810    3.0740 O.2    86  HIS86      -0.2864
     34  CB        13.4730  -25.9930    0.0220 C.3    86  HIS86       0.0771
     35  CG        12.2330  -25.8720    0.8560 C.ar   86  HIS86       0.0820
     36  ND1       11.5850  -24.6770    1.0510 N.ar   86  HIS86      -0.2267
     37  CD2       11.5370  -26.7940    1.5620 C.ar   86  HIS86       0.1154
     38  CE1       10.5330  -24.8710    1.8310 C.ar   86  HIS86       0.1986
     39  NE2       10.4790  -26.1510    2.1480 N.ar   86  HIS86      -0.2212
     40  N         10.9360  -38.7180   -2.7920 N.3   134  ARG134     -0.1245
     41  CA        11.0260  -37.5770   -1.9020 C.3   134  ARG134      0.1563
     42  C          9.7320  -37.4490   -1.0790 C.2   134  ARG134      0.2260
     43  O          9.7850  -37.2820    0.1410 O.2   134  ARG134     -0.2867
     44  CB        11.3380  -36.3130   -2.7170 C.3   134  ARG134      0.0307
     45  CG        12.7850  -36.2190   -3.1800 C.3   134  ARG134      0.0489
     46  CD        13.1380  -34.9950   -4.0320 C.3   134  ARG134      0.2205
     47  NE        12.5430  -33.7430   -3.5640 N.pl3 134  ARG134     -0.0865
     48  CZ        12.9350  -32.5330   -3.9540 C.cat 134  ARG134      0.5346
     49  NH1       13.9550  -32.3780   -4.7910 N.pl3 134  ARG134      0.1354
     50  NH2       12.3420  -31.4500   -3.4810 N.pl3 134  ARG134      0.1354
     51  N          8.4230  -27.6500   -0.5940 N.3   152  PRO152     -0.2102
     52  CA         9.3600  -26.7450   -1.2950 C.3   152  PRO152      0.1504
     53  C          8.7260  -25.6920   -2.2630 C.2   152  PRO152      0.2575
     54  O          9.2950  -24.6520   -2.5370 O.2   152  PRO152     -0.2718
     55  CB        10.3390  -27.7030   -2.0170 C.3   152  PRO152      0.0282
     56  CG         9.7900  -29.0470   -1.8620 C.3   152  PRO152      0.0208
     57  CD         8.8990  -29.0430   -0.6660 C.3   152  PRO152      0.0893
     58  N          7.6040  -26.0360   -2.8750 N.am  153  ASN153     -0.1975
     59  CA         7.0360  -25.1330   -3.8830 C.3   153  ASN153      0.1688
     60  C          5.5190  -25.1700   -4.1430 C.2   153  ASN153      0.2292
     61  O          5.0060  -24.3300   -4.8790 O.2   153  ASN153     -0.2864
     62  CB         7.7920  -25.3250   -5.2040 C.3   153  ASN153      0.1181
     63  CG         7.8690  -26.7820   -5.6060 C.2   153  ASN153      0.2629
     64  OD1        6.8610  -27.4900   -5.5860 O.2   153  ASN153     -0.2716
     65  ND2        9.0640  -27.2480   -5.9430 N.am  153  ASN153     -0.0877
     66  N         10.0340  -26.5140   -9.5190 N.3   185  GLY185     -0.1225
     67  CA         8.6180  -26.7930   -9.1330 C.3   185  GLY185      0.1811
     68  C          7.6560  -25.6350   -9.3310 C.2   185  GLY185      0.2280
     69  O          6.4490  -25.8090   -9.2070 O.2   185  GLY185     -0.2866
     70  N         20.9390  -28.4760  -10.4090 N.3   237  ASP237     -0.1225
     71  CA        20.4700  -29.4930   -9.4490 C.3   237  ASP237      0.1805
     72  C         19.2860  -28.9930   -8.6180 C.2   237  ASP237      0.2598
     73  O         18.5310  -29.8060   -8.0660 O.2   237  ASP237     -0.2718
     74  CB        21.6390  -29.9320   -8.5450 C.3   237  ASP237      0.1424
     75  CG        22.1840  -28.7920   -7.7100 C.2   237  ASP237      0.3668
     76  OD1       23.0870  -28.0230   -8.1670 O.co2 237  ASP237     -0.2456
     77  OD2       21.6650  -28.6460   -6.5770 O.co2 237  ASP237     -0.2456
     78  N         19.1200  -27.6610   -8.5640 N.am  238  GLY238     -0.1957
     79  CA        17.9910  -27.0050   -7.8730 C.3   238  GLY238      0.1869
     80  C         16.6490  -27.0180   -8.5930 C.2   238  GLY238      0.2309
     81  O         15.6090  -26.6460   -8.0020 O.2   238  GLY238     -0.2863
     82  N         15.4240  -29.7960  -10.7170 N.3   240  LYS240     -0.1231
     83  CA        14.9990  -31.1330  -11.1000 C.3   240  LYS240      0.1693
     84  C         13.5720  -31.4630  -10.6770 C.2   240  LYS240      0.2592
     85  O         13.0010  -32.4240  -11.1990 O.2   240  LYS240     -0.2718
     86  CB        15.9470  -32.1750  -10.5190 C.3   240  LYS240      0.0285
     87  CG        17.2920  -32.2280  -11.1970 C.3   240  LYS240      0.0035
     88  CD        18.1250  -33.2900  -10.4910 C.3   240  LYS240      0.0206
     89  CE        19.5810  -33.3380  -10.9460 C.3   240  LYS240      0.1093
     90  NZ        20.2980  -34.2640   -9.9830 N.3   240  LYS240     -0.1314
     91  N         12.9790  -30.7020   -9.7540 N.am  241  SER241     -0.1952
     92  CA        11.5660  -30.9310   -9.3920 C.3   241  SER241      0.1924
     93  C         10.6110  -30.6900  -10.5910 C.2   241  SER241      0.2314
     94  O         10.9090  -29.9150  -11.4800 O.2   241  SER241     -0.2863
     95  CB        11.1590  -30.0190   -8.2270 C.3   241  SER241      0.2116
     96  OG        11.6060  -30.5030   -6.9600 O.3   241  SER241     -0.2180
@<TRIPOS>BOND
     1    94    93    2
     2    85    84    2
     3    87    86    1
     4    87    88    1
     5    83    82    1
     6    83    84    1
     7    83    86    1
     8    89    88    1
     9    89    90    1
    10    84    91   am
    11    93    92    1
    12    70    71    1
    13    91    92    1
    14    66    67    1
    15    71    72    1
    16    71    74    1
    17    92    95    1
    18    68    69    2
    19    68    67    1
    20    72    78   am
    21    72    73    2
    22    80    81    2
    23    80    79    1
    24    78    79    1
    25    74    75    1
    26    95    96    1
    27    76    75   ar
    28    75    77   ar
    29    65    63   am
    30    63    64    2
    31    63    62    1
    32    62    59    1
    33    61    60    2
    34    21    20    1
    35    49    48    1
    36    20    17    1
    37     9     8    1
    38    60    59    1
    39    46    47    1
    40    46    45    1
    41    48    47    2
    42    48    50    1
    43    59    58    1
    44    29    27   am
    45     8     7    1
    46    45    44    1
    47    17    16    1
    48    17    18    1
    49    58    53   am
    50    40    41    1
    51    44    41    1
    52    19    18    2
    53    54    53    2
    54    16    12   am
    55     7     6    1
    56    27    26    1
    57    27    28    2
    58    53    52    1
    59    55    56    1
    60    55    52    1
    61    26    23    1
    62     6     5    1
    63    41    42    1
    64    56    57    1
    65    12    13    2
    66    12    11    1
    67    52    51    1
    68     1     2    1
    69    42    43    2
    70    22    23    1
    71    11    10    1
    72    11    14    1
    73    23    24    1
    74    57    51    1
    75     5     2    1
    76     2     3    1
    77    15    14    1
    78    30    24   am
    79    30    31    1
    80    34    31    1
    81    34    35    1
    82    24    25    2
    83    31    32    1
    84    35    36   ar
    85    35    37   ar
    86     3     4    2
    87    36    38   ar
    88    37    39   ar
    89    38    39   ar
    90    32    33    2
