@<TRIPOS>MOLECULE
tmp/3l6cA00.pdb
 157 149 0 0 0
SMALL
GASTEIGER

@<TRIPOS>ATOM
      1  N         20.2350  -18.6940   -0.8300 N.3    53  SER53      -0.1202
      2  CA        19.2090  -18.6860   -1.8760 C.3    53  SER53       0.2020
      3  C         17.9540  -17.9740   -1.4190 C.2    53  SER53       0.2619
      4  O         17.7770  -17.6840   -0.2250 O.2    53  SER53      -0.2717
      5  CB        18.8670  -20.0900   -2.3410 C.3    53  SER53       0.2103
      6  OG        17.8770  -20.6780   -1.5230 O.3    53  SER53      -0.2182
      7  N         17.0660  -17.7030   -2.3790 N.am   54  PHE54      -0.1961
      8  CA        15.7660  -17.0260   -2.1100 C.3    54  PHE54       0.1771
      9  C         14.7890  -17.8280   -1.2530 C.2    54  PHE54       0.2619
     10  O         13.7920  -17.2830   -0.7920 O.2    54  PHE54      -0.2715
     11  CB        15.0640  -16.7350   -3.4460 C.3    54  PHE54       0.0574
     12  CG        14.5300  -17.9740   -4.1430 C.ar   54  PHE54      -0.0200
     13  CD1       13.2280  -18.3930   -3.9390 C.ar   54  PHE54      -0.0042
     14  CD2       15.3600  -18.7460   -4.9900 C.ar   54  PHE54      -0.0042
     15  CE1       12.7250  -19.5250   -4.5930 C.ar   54  PHE54      -0.0003
     16  CE2       14.8520  -19.8600   -5.6590 C.ar   54  PHE54      -0.0003
     17  CZ        13.5170  -20.2390   -5.4700 C.ar   54  PHE54      -0.0000
     18  N         15.0400  -19.1220   -1.0880 N.am   55  LYS55      -0.1977
     19  CA        14.0800  -20.0510   -0.4780 C.3    55  LYS55       0.1596
     20  C         13.6970  -19.7190    0.9630 C.2    55  LYS55       0.2287
     21  O         12.6520  -20.2240    1.5030 O.2    55  LYS55      -0.2864
     22  CB        14.6280  -21.4680   -0.5120 C.3    55  LYS55       0.0298
     23  CG        14.8460  -22.0540   -1.9140 C.3    55  LYS55       0.0038
     24  CD        13.5440  -22.6430   -2.4570 C.3    55  LYS55       0.0206
     25  CE        13.7680  -23.8380   -3.3850 C.3    55  LYS55       0.1093
     26  NZ        14.7290  -23.6500   -4.5170 N.3    55  LYS55      -0.1314
     27  N         16.2540  -30.8910   -2.5340 N.3    83  SER83      -0.1217
     28  CA        17.5730  -31.1280   -3.1520 C.3    83  SER83       0.1889
     29  C         18.6970  -30.3970   -2.3850 C.2    83  SER83       0.2288
     30  O         19.8930  -30.6140   -2.6120 O.2    83  SER83      -0.2866
     31  CB        17.5260  -30.7140   -4.6240 C.3    83  SER83       0.2089
     32  OG        17.3130  -29.3010   -4.7930 O.3    83  SER83      -0.2183
     33  N         18.3750  -26.6350   -1.0150 N.3    85  ASN85      -0.1240
     34  CA        18.2010  -25.2090   -0.7240 C.3    85  ASN85       0.1653
     35  C         16.9750  -24.8380    0.0970 C.2    85  ASN85       0.2266
     36  O         17.0430  -23.9550    0.9810 O.2    85  ASN85      -0.2867
     37  CB        18.2730  -24.3600   -1.9710 C.3    85  ASN85       0.1155
     38  CG        19.6830  -24.0570   -2.3850 C.2    85  ASN85       0.2627
     39  OD1       20.6470  -24.3550   -1.6650 O.2    85  ASN85      -0.2716
     40  ND2       19.8220  -23.4200   -3.5580 N.am   85  ASN85      -0.0877
     41  N          8.4230  -27.6500   -0.5940 N.3   152  PRO152     -0.2102
     42  CA         9.3600  -26.7450   -1.2950 C.3   152  PRO152      0.1504
     43  C          8.7260  -25.6920   -2.2630 C.2   152  PRO152      0.2575
     44  O          9.2950  -24.6520   -2.5370 O.2   152  PRO152     -0.2718
     45  CB        10.3390  -27.7030   -2.0170 C.3   152  PRO152      0.0282
     46  CG         9.7900  -29.0470   -1.8620 C.3   152  PRO152      0.0208
     47  CD         8.8990  -29.0430   -0.6660 C.3   152  PRO152      0.0893
     48  N          7.6040  -26.0360   -2.8750 N.am  153  ASN153     -0.1975
     49  CA         7.0360  -25.1330   -3.8830 C.3   153  ASN153      0.1688
     50  C          5.5190  -25.1700   -4.1430 C.2   153  ASN153      0.2292
     51  O          5.0060  -24.3300   -4.8790 O.2   153  ASN153     -0.2864
     52  CB         7.7920  -25.3250   -5.2040 C.3   153  ASN153      0.1181
     53  CG         7.8690  -26.7820   -5.6060 C.2   153  ASN153      0.2629
     54  OD1        6.8610  -27.4900   -5.5860 O.2   153  ASN153     -0.2716
     55  ND2        9.0640  -27.2480   -5.9430 N.am  153  ASN153     -0.0877
     56  N          7.9860  -16.4580   -2.0500 N.3   162  GLN162     -0.1245
     57  CA         8.9180  -16.3120   -3.1840 C.3   162  GLN162      0.1566
     58  C          8.5010  -15.1080   -4.0310 C.2   162  GLN162      0.2260
     59  O          9.3500  -14.4200   -4.5820 O.2   162  GLN162     -0.2867
     60  CB         8.9650  -17.5660   -4.0650 C.3   162  GLN162      0.0367
     61  CG         8.8880  -18.9370   -3.4600 C.3   162  GLN162      0.0905
     62  CD         9.9380  -19.2190   -2.3560 C.2   162  GLN162      0.2608
     63  OE1       10.3810  -18.3190   -1.6380 O.2   162  GLN162     -0.2717
     64  NE2       10.3300  -20.4720   -2.2350 N.am  162  GLN162     -0.0878
     65  N         14.3810  -18.9790  -13.1340 N.3   182  PRO182     -0.2102
     66  CA        14.5350  -20.4170  -13.2970 C.3   182  PRO182      0.1504
     67  C         13.3430  -21.1250  -12.7130 C.2   182  PRO182      0.2576
     68  O         12.7460  -20.6600  -11.7260 O.2   182  PRO182     -0.2718
     69  CB        15.8210  -20.7440  -12.5190 C.3   182  PRO182      0.0282
     70  CG        16.5230  -19.4540  -12.3520 C.3   182  PRO182      0.0208
     71  CD        15.4310  -18.4220  -12.2630 C.3   182  PRO182      0.0893
     72  N         12.9810  -22.2420  -13.3010 N.am  183  VAL183     -0.1966
     73  CA        11.7740  -22.9100  -12.8990 C.3   183  VAL183      0.1727
     74  C         12.1130  -24.3590  -12.6530 C.2   183  VAL183      0.2617
     75  O         12.7630  -25.0120  -13.4730 O.2   183  VAL183     -0.2715
     76  CB        10.6060  -22.7340  -13.9590 C.3   183  VAL183      0.0290
     77  CG1       10.9990  -23.3300  -15.3090 C.3   183  VAL183      0.0023
     78  CG2        9.2790  -23.3890  -13.4590 C.3   183  VAL183      0.0023
     79  N         11.6930  -24.8550  -11.4890 N.am  184  GLY184     -0.1940
     80  CA        11.8320  -26.2660  -11.1520 C.3   184  GLY184      0.2014
     81  C         10.4410  -26.6940  -10.7840 C.2   184  GLY184      0.2639
     82  O          9.6970  -27.1150  -11.6590 O.2   184  GLY184     -0.2714
     83  N         10.0340  -26.5140   -9.5190 N.am  185  GLY185     -0.1939
     84  CA         8.6180  -26.7930   -9.1330 C.3   185  GLY185      0.2014
     85  C          7.6560  -25.6350   -9.3310 C.2   185  GLY185      0.2639
     86  O          6.4490  -25.8090   -9.2070 O.2   185  GLY185     -0.2714
     87  N          8.1900  -24.4340   -9.5920 N.am  186  GLY186     -0.1939
     88  CA         7.3990  -23.2500   -9.9500 C.3   186  GLY186      0.2014
     89  C          6.8670  -22.3380   -8.8430 C.2   186  GLY186      0.2639
     90  O          6.1070  -21.3950   -9.1080 O.2   186  GLY186     -0.2714
     91  N          7.2910  -22.5770   -7.6030 N.am  187  GLY187     -0.1939
     92  CA         6.8760  -21.7480   -6.4860 C.3   187  GLY187      0.2014
     93  C          7.3650  -20.3380   -6.7220 C.2   187  GLY187      0.2639
     94  O          6.6160  -19.3820   -6.5560 O.2   187  GLY187     -0.2714
     95  N          8.6270  -20.1950   -7.1160 N.am  188  MET188     -0.1963
     96  CA         9.1760  -18.8910   -7.3450 C.3   188  MET188      0.1736
     97  C          8.5710  -18.1300   -8.5550 C.2   188  MET188      0.2616
     98  O          8.2500  -16.9570   -8.4440 O.2   188  MET188     -0.2715
     99  CB        10.6950  -18.9580   -7.4630 C.3   188  MET188      0.0427
    100  CG        11.3190  -17.6640   -7.9580 C.3   188  MET188      0.0599
    101  SD        13.1050  -17.5530   -8.0010 S.3   188  MET188     -0.1393
    102  CE        13.5510  -19.0750   -8.8350 C.3   188  MET188      0.0692
    103  N          8.4860  -18.7600   -9.7260 N.am  189  VAL189     -0.1977
    104  CA         7.9550  -18.0420  -10.8960 C.3   189  VAL189      0.1596
    105  C          6.4240  -17.8290  -10.8010 C.2   189  VAL189      0.2287
    106  O          5.9090  -16.8680  -11.3370 O.2   189  VAL189     -0.2864
    107  CB         8.3910  -18.7410  -12.2550 C.3   189  VAL189      0.0276
    108  CG1        7.7110  -20.0710  -12.4060 C.3   189  VAL189      0.0022
    109  CG2        8.0870  -17.8270  -13.4300 C.3   189  VAL189      0.0022
    110  N         19.1200  -27.6610   -8.5640 N.3   238  GLY238     -0.1210
    111  CA        17.9910  -27.0050   -7.8730 C.3   238  GLY238      0.1956
    112  C         16.6490  -27.0180   -8.5930 C.2   238  GLY238      0.2611
    113  O         15.6090  -26.6460   -8.0020 O.2   238  GLY238     -0.2717
    114  N         16.6510  -27.4230   -9.8790 N.am  239  VAL239     -0.1979
    115  CA        15.4240  -27.3720  -10.6940 C.3   239  VAL239      0.1595
    116  C         15.0580  -28.7020  -11.3710 C.2   239  VAL239      0.2287
    117  O         14.4610  -28.7330  -12.4580 O.2   239  VAL239     -0.2864
    118  CB        15.4260  -26.1990  -11.7440 C.3   239  VAL239      0.0276
    119  CG1       15.2350  -24.8650  -11.0570 C.3   239  VAL239      0.0022
    120  CG2       16.6640  -26.2070  -12.6210 C.3   239  VAL239      0.0022
    121  N         12.9790  -30.7020   -9.7540 N.3   241  SER241     -0.1217
    122  CA        11.5660  -30.9310   -9.3920 C.3   241  SER241      0.1889
    123  C         10.6110  -30.6900  -10.5910 C.2   241  SER241      0.2288
    124  O         10.9090  -29.9150  -11.4800 O.2   241  SER241     -0.2866
    125  CB        11.1590  -30.0190   -8.2270 C.3   241  SER241      0.2089
    126  OG        11.6060  -30.5030   -6.9600 O.3   241  SER241     -0.2183
    127  N         25.4620  -20.6710   -8.1620 N.3   282  GLU282     -0.1245
    128  CA        25.4540  -22.0880   -8.4190 C.3   282  GLU282      0.1567
    129  C         24.8590  -22.2560   -9.8090 C.2   282  GLU282      0.2260
    130  O         24.1200  -21.3860  -10.2640 O.2   282  GLU282     -0.2867
    131  CB        24.6180  -22.8330   -7.3820 C.3   282  GLU282      0.0388
    132  CG        23.1670  -22.3990   -7.2730 C.3   282  GLU282      0.1160
    133  CD        22.4320  -23.1680   -6.1910 C.2   282  GLU282      0.3649
    134  OE1       22.0000  -24.3110   -6.4330 O.co2 282  GLU282     -0.2457
    135  OE2       22.3000  -22.6430   -5.0780 O.co2 282  GLU282     -0.2457
    136  N         22.3210  -23.7260  -11.1990 N.3   284  THR284     -0.1203
    137  CA        20.8990  -23.4480  -11.3500 C.3   284  THR284      0.1994
    138  C         20.6010  -21.9450  -11.5380 C.2   284  THR284      0.2617
    139  O         19.6280  -21.5920  -12.2150 O.2   284  THR284     -0.2717
    140  CB        20.0940  -23.9380  -10.1710 C.3   284  THR284      0.1784
    141  OG1       20.5000  -25.2550   -9.8300 O.3   284  THR284     -0.2211
    142  CG2       18.6120  -23.9340  -10.4780 C.3   284  THR284      0.0376
    143  N         21.4270  -21.0710  -10.9620 N.am  285  ALA285     -0.1979
    144  CA        21.2030  -19.6440  -11.0790 C.3   285  ALA285      0.1597
    145  C         21.7370  -19.0810  -12.4000 C.2   285  ALA285      0.2287
    146  O         21.3840  -17.9650  -12.7950 O.2   285  ALA285     -0.2864
    147  CB        21.7720  -18.8810   -9.8600 C.3   285  ALA285      0.0319
    148  N         19.3170  -16.8770   -8.3470 N.3   312  SER312     -0.1202
    149  CA        18.4890  -17.3960   -7.2750 C.3   312  SER312      0.2020
    150  C         19.2730  -18.0970   -6.1470 C.2   312  SER312      0.2619
    151  O         18.7070  -18.3660   -5.0800 O.2   312  SER312     -0.2717
    152  CB        17.4210  -18.3090   -7.8820 C.3   312  SER312      0.2103
    153  OG        18.0010  -19.1460   -8.8750 O.3   312  SER312     -0.2182
    154  N         20.5570  -18.3960   -6.3900 N.am  313  GLY313     -0.1956
    155  CA        21.3570  -19.1630   -5.4240 C.3   313  GLY313      0.1869
    156  C         22.8440  -19.0890   -5.6590 C.2   313  GLY313      0.2309
    157  O         23.2870  -18.8370   -6.7770 O.2   313  GLY313     -0.2863
@<TRIPOS>BOND
     1    77    76    1
     2    76    78    1
     3    76    73    1
     4    75    74    2
     5   109   107    1
     6    72    73    1
     7    72    67   am
     8    66    65    1
     9    66    67    1
    10    66    69    1
    11    65    71    1
    12    73    74    1
    13   146   145    2
    14    67    68    2
    15    74    79   am
    16   120   118    1
    17    69    70    1
    18   117   116    2
    19   108   107    1
    20   145   144    1
    21    70    71    1
    22   107   104    1
    23   139   138    2
    24   118   119    1
    25   118   115    1
    26    82    81    2
    27   138   137    1
    28   138   143   am
    29    79    80    1
    30   124   123    2
    31   116   115    1
    32   137   136    1
    33   137   140    1
    34   106   105    2
    35    80    81    1
    36   144   143    1
    37   144   147    1
    38   104   105    1
    39   104   103    1
    40    81    83   am
    41   115   114    1
    42   123   122    1
    43   142   140    1
    44   130   129    2
    45   140   141    1
    46    88    87    1
    47    88    89    1
    48   114   112   am
    49   129   128    1
    50   121   122    1
    51   103    97   am
    52    87    85   am
    53    83    84    1
    54   122   125    1
    55    85    86    2
    56    85    84    1
    57    90    89    2
    58   153   152    1
    59    89    91   am
    60   102   101    1
    61   112   113    2
    62   112   111    1
    63   110   111    1
    64    97    98    2
    65    97    96    1
    66   128   127    1
    67   128   131    1
    68   148   149    1
    69   125   126    1
    70   101   100    1
    71   100    99    1
    72   152   149    1
    73    91    92    1
    74    99    96    1
    75   131   132    1
    76    96    95    1
    77   149   150    1
    78   132   133    1
    79    95    93   am
    80   157   156    2
    81    93    94    2
    82    93    92    1
    83   134   133   ar
    84   154   150   am
    85   154   155    1
    86   133   135   ar
    87   150   151    2
    88    55    53   am
    89    16    17   ar
    90    16    14   ar
    91   156   155    1
    92    53    54    2
    93    53    52    1
    94    17    15   ar
    95    52    49    1
    96    14    12   ar
    97    51    50    2
    98    32    31    1
    99    31    28    1
   100    15    13   ar
   101    59    58    2
   102    26    25    1
   103    12    13   ar
   104    12    11    1
   105    50    49    1
   106    60    61    1
   107    60    57    1
   108    58    57    1
   109    49    48    1
   110    40    38   am
   111    61    62    1
   112    11     8    1
   113    25    24    1
   114    57    56    1
   115    28    27    1
   116    28    29    1
   117    48    43   am
   118    30    29    2
   119    44    43    2
   120    24    23    1
   121    38    37    1
   122    38    39    2
   123     7     8    1
   124     7     3   am
   125    62    64   am
   126    62    63    2
   127     5     2    1
   128     5     6    1
   129    43    42    1
   130     8     9    1
   131    45    46    1
   132    45    42    1
   133    37    34    1
   134    23    22    1
   135     2     3    1
   136     2     1    1
   137    46    47    1
   138     3     4    2
   139    42    41    1
   140     9    18   am
   141     9    10    2
   142    18    19    1
   143    33    34    1
   144    34    35    1
   145    47    41    1
   146    22    19    1
   147    19    20    1
   148    35    36    2
   149    20    21    2
