@<TRIPOS>MOLECULE
tmp/3l6gA00.pdb
 93 91 0 0 0
SMALL
GASTEIGER

@<TRIPOS>ATOM
      1  N         20.4650  -13.2740   44.6660 N.3    76  LEU76      -0.1231
      2  CA        21.2790  -12.0340   44.5390 C.3    76  LEU76       0.1693
      3  C         22.5770  -12.2430   45.3150 C.2    76  LEU76       0.2592
      4  O         22.5390  -12.3710   46.5530 O.2    76  LEU76      -0.2718
      5  CB        20.5330  -10.8340   45.1350 C.3    76  LEU76       0.0284
      6  CG        21.2770   -9.5230   45.3380 C.3    76  LEU76       0.0019
      7  CD1       21.8790   -9.0030   44.0150 C.3    76  LEU76       0.0001
      8  CD2       20.2850   -8.4960   45.9290 C.3    76  LEU76       0.0001
      9  N         23.7050  -12.3000   44.6160 N.am   77  LEU77      -0.1966
     10  CA        24.9550  -12.6700   45.2610 C.3    77  LEU77       0.1728
     11  C         25.5330  -11.4370   45.9780 C.2    77  LEU77       0.2617
     12  O         26.1250  -11.5740   47.0500 O.2    77  LEU77      -0.2715
     13  CB        25.9800  -13.2450   44.2830 C.3    77  LEU77       0.0311
     14  CG        25.5030  -14.5300   43.5690 C.3    77  LEU77       0.0022
     15  CD1       26.6610  -15.1490   42.8310 C.3    77  LEU77       0.0001
     16  CD2       24.8630  -15.5610   44.5590 C.3    77  LEU77       0.0001
     17  N         25.3550  -10.2570   45.3770 N.am   78  GLY78      -0.1941
     18  CA        25.8670   -9.0350   45.9760 C.3    78  GLY78       0.1998
     19  C         26.4000   -8.0830   44.9150 C.2    78  GLY78       0.2480
     20  O         26.3130   -8.3830   43.7100 O.2    78  GLY78      -0.2729
     21  N         26.9420   -6.9390   45.3630 N.am   79  PRO79      -0.2726
     22  CA        27.3890   -5.8870   44.4370 C.3    79  PRO79       0.1402
     23  C         28.7050   -6.3090   43.7590 C.2    79  PRO79       0.2269
     24  O         29.6210   -6.8680   44.4180 O.2    79  PRO79      -0.2865
     25  CB        27.6130   -4.6870   45.3510 C.3    79  PRO79       0.0296
     26  CG        27.9370   -5.2960   46.7240 C.3    79  PRO79       0.0237
     27  CD        27.0700   -6.5300   46.7890 C.3    79  PRO79       0.0939
     28  N         30.3100   -0.6450   43.1460 N.3    82  LYS82      -0.1245
     29  CA        29.5900    0.1970   44.0980 C.3    82  LYS82       0.1561
     30  C         29.6740    1.6680   43.6650 C.2    82  LYS82       0.2260
     31  O         30.7100    2.1010   43.2060 O.2    82  LYS82      -0.2867
     32  CB        30.1900    0.0230   45.4690 C.3    82  LYS82       0.0271
     33  CG        29.8390   -1.3640   46.0530 C.3    82  LYS82       0.0035
     34  CD        30.7510   -1.7130   47.2600 C.3    82  LYS82       0.0206
     35  CE        30.6490   -3.2390   47.6230 C.3    82  LYS82       0.1093
     36  NZ        31.6350   -3.6160   48.6740 N.3    82  LYS82      -0.1314
     37  N         24.3920  -22.8220   42.5200 N.3   201  LYS201     -0.1245
     38  CA        25.3470  -23.1520   43.5730 C.3   201  LYS201      0.1561
     39  C         25.5710  -24.6580   43.6160 C.2   201  LYS201      0.2260
     40  O         26.6960  -25.1150   43.7830 O.2   201  LYS201     -0.2867
     41  CB        24.8130  -22.6720   44.9110 C.3   201  LYS201      0.0271
     42  CG        25.7180  -22.9380   46.1070 C.3   201  LYS201      0.0035
     43  CD        25.2000  -22.1150   47.2950 C.3   201  LYS201      0.0206
     44  CE        25.8910  -22.4930   48.5920 C.3   201  LYS201      0.1093
     45  NZ        27.3750  -22.3160   48.5250 N.3   201  LYS201     -0.1314
     46  N         29.5150  -20.6350   39.8290 N.3   208  TYR208     -0.1241
     47  CA        28.9330  -19.9000   40.9530 C.3   208  TYR208      0.1605
     48  C         30.0090  -19.1290   41.7540 C.2   208  TYR208      0.2264
     49  O         29.8490  -17.9540   42.0790 O.2   208  TYR208     -0.2867
     50  CB        28.2350  -20.8710   41.9000 C.3   208  TYR208      0.0534
     51  CG        27.6540  -20.2150   43.1300 C.ar  208  TYR208     -0.0201
     52  CD1       26.3230  -19.7430   43.1450 C.ar  208  TYR208     -0.0009
     53  CD2       28.4210  -20.0640   44.2610 C.ar  208  TYR208     -0.0009
     54  CE1       25.7810  -19.1120   44.3070 C.ar  208  TYR208      0.0417
     55  CE2       27.8970  -19.4610   45.4220 C.ar  208  TYR208      0.0417
     56  CZ        26.5810  -19.0010   45.4310 C.ar  208  TYR208      0.1957
     57  OH        26.1100  -18.4170   46.5700 O.3   208  TYR208     -0.2866
     58  N         30.2690  -15.1400   42.2580 N.3   212  ASP212     -0.1225
     59  CA        30.1470  -14.6670   43.6420 C.3   212  ASP212      0.1805
     60  C         31.2500  -13.6570   43.9710 C.2   212  ASP212      0.2598
     61  O         31.0420  -12.7100   44.7310 O.2   212  ASP212     -0.2718
     62  CB        30.2040  -15.8470   44.6130 C.3   212  ASP212      0.1424
     63  CG        29.6320  -15.5110   46.0130 C.2   212  ASP212      0.3668
     64  OD1       28.5440  -14.9250   46.0990 O.co2 212  ASP212     -0.2456
     65  OD2       30.2840  -15.8380   47.0420 O.co2 212  ASP212     -0.2456
     66  N         32.4170  -13.8230   43.3520 N.am  213  LYS213     -0.1966
     67  CA        33.5690  -13.0280   43.7070 C.3   213  LYS213      0.1728
     68  C         33.8480  -11.8760   42.7710 C.2   213  LYS213      0.2616
     69  O         34.6570  -11.0260   43.0940 O.2   213  LYS213     -0.2715
     70  CB        34.8040  -13.9180   43.7000 C.3   213  LYS213      0.0311
     71  CG        34.8790  -14.8100   44.9010 C.3   213  LYS213      0.0038
     72  CD        35.7980  -16.0150   44.6090 C.3   213  LYS213      0.0206
     73  CE        36.0230  -16.8510   45.8590 C.3   213  LYS213      0.1093
     74  NZ        36.7030  -16.0820   46.9300 N.3   213  LYS213     -0.1314
     75  N         33.2580  -11.9230   41.5730 N.am  214  PHE214     -0.1960
     76  CA        33.4980  -10.8980   40.5380 C.3   214  PHE214      0.1771
     77  C         33.2520   -9.5290   41.1310 C.2   214  PHE214      0.2619
     78  O         32.1880   -9.2870   41.7260 O.2   214  PHE214     -0.2715
     79  CB        32.5590  -11.1140   39.3040 C.3   214  PHE214      0.0574
     80  CG        32.5550   -9.9310   38.3220 C.ar  214  PHE214     -0.0200
     81  CD1       33.6970   -9.5620   37.6810 C.ar  214  PHE214     -0.0042
     82  CD2       31.4010   -9.1800   38.1000 C.ar  214  PHE214     -0.0042
     83  CE1       33.7280   -8.4670   36.7850 C.ar  214  PHE214     -0.0003
     84  CE2       31.4030   -8.0910   37.2230 C.ar  214  PHE214     -0.0003
     85  CZ        32.5800   -7.7260   36.5630 C.ar  214  PHE214     -0.0000
     86  N         34.2040   -8.6110   40.9690 N.am  215  ASN215     -0.1972
     87  CA        33.9970   -7.2380   41.4490 C.3   215  ASN215      0.1688
     88  C         35.0680   -6.2910   40.8570 C.2   215  ASN215      0.2292
     89  O         36.2000   -6.7070   40.6490 O.2   215  ASN215     -0.2864
     90  CB        34.0810   -7.1740   42.9810 C.3   215  ASN215      0.1181
     91  CG        35.5100   -7.3360   43.5030 C.2   215  ASN215      0.2629
     92  OD1       36.1660   -6.3570   43.8760 O.2   215  ASN215     -0.2716
     93  ND2       36.0180   -8.5740   43.4820 N.am  215  ASN215     -0.0877
@<TRIPOS>BOND
     1    85    83   ar
     2    85    84   ar
     3    83    81   ar
     4    84    82   ar
     5    81    80   ar
     6    82    80   ar
     7    80    79    1
     8    79    76    1
     9    46    47    1
    10    76    77    1
    11    76    75    1
    12    89    88    2
    13    88    87    1
    14    47    48    1
    15    47    50    1
    16    86    77   am
    17    86    87    1
    18    77    78    2
    19    87    90    1
    20    75    68   am
    21    48    49    2
    22    50    51    1
    23    58    59    1
    24    37    38    1
    25    68    69    2
    26    68    67    1
    27    15    14    1
    28    90    91    1
    29    51    52   ar
    30    51    53   ar
    31    52    54   ar
    32    28    29    1
    33    31    30    2
    34    66    67    1
    35    66    60   am
    36    93    91   am
    37    91    92    2
    38    14    13    1
    39    14    16    1
    40    38    39    1
    41    38    41    1
    42    39    40    2
    43    59    60    1
    44    59    62    1
    45    30    29    1
    46    70    67    1
    47    70    71    1
    48    20    19    2
    49    23    24    2
    50    23    22    1
    51    60    61    2
    52     7     6    1
    53    29    32    1
    54    53    55   ar
    55    13    10    1
    56    54    56   ar
    57    22    25    1
    58    22    21    1
    59     2     1    1
    60     2     5    1
    61     2     3    1
    62    72    71    1
    63    72    73    1
    64    62    63    1
    65     9    10    1
    66     9     3   am
    67    41    42    1
    68    19    21   am
    69    19    18    1
    70     5     6    1
    71    10    11    1
    72     3     4    2
    73     6     8    1
    74    25    26    1
    75    21    27    1
    76    17    18    1
    77    17    11   am
    78    55    56   ar
    79    56    57    1
    80    32    33    1
    81    73    74    1
    82    11    12    2
    83    63    64   ar
    84    63    65   ar
    85    33    34    1
    86    42    43    1
    87    26    27    1
    88    34    35    1
    89    43    44    1
    90    35    36    1
    91    45    44    1
