@<TRIPOS>MOLECULE
tmp/3l6hA00.pdb
 96 95 0 0 0
SMALL
GASTEIGER

@<TRIPOS>ATOM
      1  N         21.0440  -11.6780   48.8520 N.3    11  TRP11      -0.1241
      2  CA        19.9640  -11.1690   49.6920 C.3    11  TRP11       0.1605
      3  C         18.7310  -11.9950   49.3540 C.2    11  TRP11       0.2264
      4  O         18.5080  -12.3220   48.1880 O.2    11  TRP11      -0.2867
      5  CB        19.7090   -9.6850   49.4170 C.3    11  TRP11       0.0550
      6  CG        20.9540   -8.8540   49.4590 C.ar   11  TRP11       0.0003
      7  CD1       21.8970   -8.8500   50.4430 C.ar   11  TRP11       0.0946
      8  CD2       21.3960   -7.9120   48.4750 C.ar   11  TRP11       0.0152
      9  NE1       22.8990   -7.9630   50.1350 N.ar   11  TRP11      -0.2442
     10  CE2       22.6170   -7.3740   48.9320 C.ar   11  TRP11       0.0810
     11  CE3       20.8810   -7.4720   47.2520 C.ar   11  TRP11       0.0012
     12  CZ2       23.3310   -6.4140   48.2080 C.ar   11  TRP11       0.0191
     13  CZ3       21.5930   -6.5200   46.5280 C.ar   11  TRP11       0.0001
     14  CH2       22.8040   -5.9990   47.0120 C.ar   11  TRP11       0.0015
     15  N         15.7420  -11.3890   48.9360 N.3    13  SER13      -0.1217
     16  CA        14.9260  -10.7630   47.8980 C.3    13  SER13       0.1889
     17  C         15.4060  -11.0980   46.4850 C.2    13  SER13       0.2288
     18  O         14.5870  -11.4080   45.6190 O.2    13  SER13      -0.2866
     19  CB        14.8660   -9.2390   48.0980 C.3    13  SER13       0.2089
     20  OG        16.1370   -8.6990   48.4100 O.3    13  SER13      -0.2183
     21  N         18.9810   -1.6010   43.2190 N.3    58  TRP58      -0.1241
     22  CA        18.1620   -0.7900   44.1170 C.3    58  TRP58       0.1605
     23  C         18.5190    0.6830   43.9420 C.2    58  TRP58       0.2264
     24  O         19.5770    1.1280   44.3940 O.2    58  TRP58      -0.2867
     25  CB        18.3750   -1.2190   45.5690 C.3    58  TRP58       0.0550
     26  CG        17.7670   -2.5370   45.9010 C.ar   58  TRP58       0.0003
     27  CD1       18.0570   -3.7440   45.3320 C.ar   58  TRP58       0.0946
     28  CD2       16.7620   -2.7910   46.8910 C.ar   58  TRP58       0.0152
     29  NE1       17.2930   -4.7340   45.9020 N.ar   58  TRP58      -0.2442
     30  CE2       16.4840   -4.1750   46.8580 C.ar   58  TRP58       0.0810
     31  CE3       16.0650   -1.9830   47.7970 C.ar   58  TRP58       0.0012
     32  CZ2       15.5450   -4.7700   47.7010 C.ar   58  TRP58       0.0191
     33  CZ3       15.1270   -2.5730   48.6320 C.ar   58  TRP58       0.0001
     34  CH2       14.8790   -3.9550   48.5800 C.ar   58  TRP58       0.0015
     35  N         19.8970    3.5680   47.2630 N.3    62  THR62      -0.1203
     36  CA        20.5380    2.4110   47.8890 C.3    62  THR62       0.1994
     37  C         21.8650    2.0460   47.2160 C.2    62  THR62       0.2617
     38  O         22.8610    1.8460   47.9040 O.2    62  THR62      -0.2717
     39  CB        19.5950    1.1980   47.9320 C.3    62  THR62       0.1784
     40  OG1       18.4000    1.5560   48.6370 O.3    62  THR62      -0.2211
     41  CG2       20.2570    0.0100   48.6330 C.3    62  THR62       0.0376
     42  N         21.8850    1.9950   45.8840 N.am   63  HIS63      -0.1975
     43  CA        23.1120    1.6850   45.1390 C.3    63  HIS63       0.1656
     44  C         23.6770    2.9010   44.3990 C.2    63  HIS63       0.2291
     45  O         24.1910    2.7720   43.2870 O.2    63  HIS63      -0.2864
     46  CB        22.8720    0.5370   44.1440 C.3    63  HIS63       0.0771
     47  CG        22.6400   -0.7910   44.7920 C.ar   63  HIS63       0.0820
     48  ND1       22.0660   -1.8530   44.1260 N.ar   63  HIS63      -0.2267
     49  CD2       22.8990   -1.2310   46.0460 C.ar   63  HIS63       0.1154
     50  CE1       21.9860   -2.8900   44.9410 C.ar   63  HIS63       0.1986
     51  NE2       22.4820   -2.5380   46.1130 N.ar   63  HIS63      -0.2212
     52  N         14.1510    0.8950   52.3440 N.3    86  VAL86      -0.1245
     53  CA        15.2700    0.5690   53.2160 C.3    86  VAL86       0.1561
     54  C         15.1450    1.4600   54.4510 C.2    86  VAL86       0.2260
     55  O         14.6140    2.5690   54.3610 O.2    86  VAL86      -0.2867
     56  CB        16.6040    0.8660   52.4940 C.3    86  VAL86       0.0252
     57  CG1       17.7640    0.9090   53.4680 C.3    86  VAL86       0.0019
     58  CG2       16.8560   -0.1610   51.3950 C.3    86  VAL86       0.0019
     59  N         24.3160   -5.7640   57.8260 N.3   113  ILE113     -0.1245
     60  CA        24.5970   -6.9360   56.9900 C.3   113  ILE113      0.1561
     61  C         26.0370   -6.8330   56.4710 C.2   113  ILE113      0.2260
     62  O         26.8700   -6.2210   57.1380 O.2   113  ILE113     -0.2867
     63  CB        23.5460   -7.0870   55.8600 C.3   113  ILE113      0.0252
     64  CG1       23.5180   -5.8520   54.9460 C.3   113  ILE113      0.0019
     65  CG2       22.1680   -7.3410   56.4710 C.3   113  ILE113      0.0019
     66  CD1       22.5050   -5.9460   53.8220 C.3   113  ILE113      0.0001
     67  N         27.0190   -3.8280   51.0830 N.3   117  ALA117     -0.1231
     68  CA        25.6250   -3.5660   50.7070 C.3   117  ALA117      0.1694
     69  C         25.3200   -2.0660   50.7110 C.2   117  ALA117      0.2593
     70  O         25.9060   -1.3030   51.4790 O.2   117  ALA117     -0.2718
     71  CB        24.6760   -4.2980   51.6410 C.3   117  ALA117      0.0304
     72  N         24.4010   -1.6540   49.8440 N.am  118  GLY118     -0.1942
     73  CA        24.0020   -0.2540   49.7360 C.3   118  GLY118      0.2014
     74  C         23.3510    0.3190   50.9840 C.2   118  GLY118      0.2638
     75  O         23.5040    1.5040   51.2810 O.2   118  GLY118     -0.2714
     76  N         22.6170   -0.5260   51.7060 N.am  119  VAL119     -0.1977
     77  CA        21.9420   -0.1200   52.9390 C.3   119  VAL119      0.1596
     78  C         22.9520    0.2540   54.0200 C.2   119  VAL119      0.2287
     79  O         22.6590    1.0700   54.8930 O.2   119  VAL119     -0.2864
     80  CB        20.9880   -1.2340   53.4690 C.3   119  VAL119      0.0276
     81  CG1       21.7700   -2.4820   53.8850 C.3   119  VAL119      0.0022
     82  CG2       20.1560   -0.7190   54.6310 C.3   119  VAL119      0.0022
     83  N         14.8690   -3.9040   55.1750 N.3   165  TRP165     -0.1241
     84  CA        14.3500   -3.4850   53.8840 C.3   165  TRP165      0.1605
     85  C         13.0950   -4.2720   53.5210 C.2   165  TRP165      0.2264
     86  O         12.8260   -5.3260   54.0940 O.2   165  TRP165     -0.2867
     87  CB        15.4090   -3.6610   52.7960 C.3   165  TRP165      0.0550
     88  CG        15.7890   -5.0970   52.5160 C.ar  165  TRP165      0.0003
     89  CD1       15.2270   -5.9270   51.5870 C.ar  165  TRP165      0.0946
     90  CD2       16.8290   -5.8500   53.1480 C.ar  165  TRP165      0.0152
     91  NE1       15.8440   -7.1530   51.6100 N.ar  165  TRP165     -0.2442
     92  CE2       16.8330   -7.1330   52.5590 C.ar  165  TRP165      0.0810
     93  CE3       17.7550   -5.5670   54.1580 C.ar  165  TRP165      0.0012
     94  CZ2       17.7300   -8.1330   52.9470 C.ar  165  TRP165      0.0191
     95  CZ3       18.6450   -6.5620   54.5450 C.ar  165  TRP165      0.0001
     96  CH2       18.6230   -7.8280   53.9410 C.ar  165  TRP165      0.0015
@<TRIPOS>BOND
     1    21    22    1
     2    45    44    2
     3    23    22    1
     4    23    24    2
     5    22    25    1
     6    48    47   ar
     7    48    50   ar
     8    46    47    1
     9    46    43    1
    10    44    43    1
    11    47    49   ar
    12    50    51   ar
    13    43    42    1
    14    27    26   ar
    15    27    29   ar
    16    25    26    1
    17    18    17    2
    18    42    37   am
    19    26    28   ar
    20    29    30   ar
    21    49    51   ar
    22    17    16    1
    23    13    14   ar
    24    13    11   ar
    25    30    28   ar
    26    30    32   ar
    27    28    31   ar
    28    14    12   ar
    29    37    36    1
    30    37    38    2
    31    11     8   ar
    32    35    36    1
    33    32    34   ar
    34    31    33   ar
    35    36    39    1
    36    16    19    1
    37    16    15    1
    38    39    41    1
    39    39    40    1
    40    19    20    1
    41     4     3    2
    42    12    10   ar
    43     8    10   ar
    44     8     6   ar
    45    34    33   ar
    46     1     2    1
    47    10     9   ar
    48     3     2    1
    49     5     6    1
    50     5     2    1
    51     6     7   ar
    52    73    72    1
    53    73    74    1
    54    72    69   am
    55     9     7   ar
    56    68    69    1
    57    68    67    1
    58    68    71    1
    59    69    70    2
    60    74    75    2
    61    74    76   am
    62    58    56    1
    63    89    91   ar
    64    89    88   ar
    65    91    92   ar
    66    76    77    1
    67    52    53    1
    68    56    53    1
    69    56    57    1
    70    88    87    1
    71    88    90   ar
    72    92    94   ar
    73    92    90   ar
    74    87    84    1
    75    77    80    1
    76    77    78    1
    77    94    96   ar
    78    90    93   ar
    79    53    54    1
    80    80    81    1
    81    80    82    1
    82    85    84    1
    83    85    86    2
    84    66    64    1
    85    84    83    1
    86    96    95   ar
    87    78    79    2
    88    93    95   ar
    89    55    54    2
    90    64    63    1
    91    63    65    1
    92    63    60    1
    93    61    60    1
    94    61    62    2
    95    60    59    1
