@<TRIPOS>MOLECULE
tmp/3l6tA00.pdb
 82 75 0 0 0
SMALL
GASTEIGER

@<TRIPOS>ATOM
      1  N         -2.4640  -57.2630   21.7120 N.3     1  SER1       -0.1217
      2  CA        -3.5410  -57.9660   21.0210 C.3     1  SER1        0.1889
      3  C         -4.2080  -57.0710   19.9850 C.2     1  SER1        0.2288
      4  O         -3.7180  -55.9850   19.6830 O.2     1  SER1       -0.2866
      5  CB        -4.5880  -58.4580   22.0200 C.3     1  SER1        0.2089
      6  OG        -5.2810  -57.3620   22.5840 O.3     1  SER1       -0.2183
      7  N         -4.3190  -67.3120   34.3050 N.3    17  SER17      -0.1217
      8  CA        -4.1460  -66.6700   33.0030 C.3    17  SER17       0.1889
      9  C         -3.5930  -65.2440   33.1290 C.2    17  SER17       0.2288
     10  O         -3.1770  -64.6370   32.1380 O.2    17  SER17      -0.2866
     11  CB        -5.4740  -66.6500   32.2320 C.3    17  SER17       0.2089
     12  OG        -6.3110  -65.6000   32.6930 O.3    17  SER17      -0.2183
     13  N         -1.3410  -61.9760   33.6430 N.3    19  VAL19      -0.1245
     14  CA         0.0760  -61.6540   33.4500 C.3    19  VAL19       0.1561
     15  C          0.7200  -61.4780   34.8260 C.2    19  VAL19       0.2260
     16  O          0.1120  -60.9080   35.7290 O.2    19  VAL19      -0.2867
     17  CB         0.2890  -60.3850   32.5610 C.3    19  VAL19       0.0252
     18  CG1        1.7500  -59.9840   32.5270 C.3    19  VAL19       0.0019
     19  CG2       -0.2250  -60.6260   31.1470 C.3    19  VAL19       0.0019
     20  N         -5.5480  -53.9180   29.0380 N.3    89  THR89      -0.1218
     21  CA        -4.4680  -54.1390   28.0860 C.3    89  THR89       0.1862
     22  C         -4.5770  -53.1340   26.9390 C.2    89  THR89       0.2287
     23  O         -5.5290  -53.1800   26.1670 O.2    89  THR89      -0.2866
     24  CB        -4.5030  -55.5810   27.5150 C.3    89  THR89       0.1770
     25  OG1       -4.5480  -56.5320   28.5930 O.3    89  THR89      -0.2211
     26  CG2       -3.2640  -55.8460   26.6550 C.3    89  THR89       0.0375
     27  N          4.6280  -55.9770   26.9950 N.3   150  HIS150     -0.1241
     28  CA         4.9290  -57.1090   26.1390 C.3   150  HIS150      0.1621
     29  C          5.3460  -56.6480   24.7520 C.2   150  HIS150      0.2264
     30  O          4.6570  -55.8620   24.1030 O.2   150  HIS150     -0.2867
     31  CB         3.7430  -58.0650   26.0740 C.3   150  HIS150      0.0745
     32  CG         3.5450  -58.8380   27.3390 C.ar  150  HIS150      0.0817
     33  ND1        2.4230  -59.5940   27.5890 N.ar  150  HIS150     -0.2268
     34  CD2        4.3300  -58.9620   28.4350 C.ar  150  HIS150      0.1154
     35  CE1        2.5240  -60.1570   28.7810 C.ar  150  HIS150      0.1986
     36  NE2        3.6760  -59.7920   29.3130 N.ar  150  HIS150     -0.2212
     37  N          6.0190  -58.2390   21.3870 N.3   152  THR152     -0.1218
     38  CA         5.9650  -59.3770   20.4740 C.3   152  THR152      0.1862
     39  C          6.6360  -58.9960   19.1680 C.2   152  THR152      0.2287
     40  O          5.9720  -58.5400   18.2350 O.2   152  THR152     -0.2866
     41  CB         4.5230  -59.7970   20.1670 C.3   152  THR152      0.1770
     42  OG1        3.8050  -59.9920   21.3920 O.3   152  THR152     -0.2211
     43  CG2        4.5180  -61.0810   19.3620 C.3   152  THR152      0.0375
     44  N          7.7710  -60.2920   16.4200 N.3   154  ARG154     -0.1245
     45  CA         7.7670  -61.2470   15.3230 C.3   154  ARG154      0.1563
     46  C          7.5820  -60.4870   14.0180 C.2   154  ARG154      0.2260
     47  O          6.8400  -59.5060   13.9670 O.2   154  ARG154     -0.2867
     48  CB         6.6400  -62.2610   15.5100 C.3   154  ARG154      0.0307
     49  CG         5.2620  -61.6320   15.5170 C.3   154  ARG154      0.0489
     50  CD         4.2560  -62.4920   16.2510 C.3   154  ARG154      0.2205
     51  NE         3.0000  -61.7770   16.4560 N.pl3 154  ARG154     -0.0865
     52  CZ         2.1440  -62.0370   17.4390 C.cat 154  ARG154      0.5346
     53  NH1        2.4120  -62.9940   18.3180 N.pl3 154  ARG154      0.1354
     54  NH2        1.0240  -61.3350   17.5510 N.pl3 154  ARG154      0.1354
     55  N          3.4470  -56.7290   17.7040 N.3   159  ASP159     -0.1239
     56  CA         2.4110  -56.2830   18.6240 C.3   159  ASP159      0.1674
     57  C          3.0500  -55.6990   19.8770 C.2   159  ASP159      0.2266
     58  O          3.6330  -56.4250   20.6810 O.2   159  ASP159     -0.2867
     59  CB         1.5000  -57.4610   18.9910 C.3   159  ASP159      0.1410
     60  CG         0.3260  -57.0510   19.8680 C.2   159  ASP159      0.3668
     61  OD1        0.5020  -56.1990   20.7640 O.co2 159  ASP159     -0.2456
     62  OD2       -0.7820  -57.5890   19.6620 O.co2 159  ASP159     -0.2456
     63  N          2.2100  -53.9210   23.3340 N.3   161  HIS161     -0.1241
     64  CA         1.1170  -53.6420   24.2460 C.3   161  HIS161      0.1621
     65  C          1.5870  -53.6860   25.6860 C.2   161  HIS161      0.2264
     66  O          2.6510  -54.2420   25.9900 O.2   161  HIS161     -0.2867
     67  CB        -0.0350  -54.6370   24.0370 C.3   161  HIS161      0.0745
     68  CG         0.3320  -56.0630   24.3130 C.ar  161  HIS161      0.0817
     69  ND1        0.8830  -56.8850   23.3540 N.ar  161  HIS161     -0.2268
     70  CD2        0.1950  -56.8210   25.4250 C.ar  161  HIS161      0.1154
     71  CE1        1.0800  -58.0880   23.8640 C.ar  161  HIS161      0.1986
     72  NE2        0.6590  -58.0780   25.1140 N.ar  161  HIS161     -0.2212
     73  N          0.0660  -54.5640   29.6390 N.3   163  HIS163     -0.1241
     74  CA        -0.9890  -54.9790   30.5460 C.3   163  HIS163      0.1621
     75  C         -0.9270  -54.1030   31.7770 C.2   163  HIS163      0.2264
     76  O          0.0410  -54.1720   32.5290 O.2   163  HIS163     -0.2867
     77  CB        -0.7710  -56.4250   30.9840 C.3   163  HIS163      0.0745
     78  CG        -0.8290  -57.4040   29.8620 C.ar  163  HIS163      0.0817
     79  ND1       -1.9610  -58.1340   29.5720 N.ar  163  HIS163     -0.2268
     80  CD2        0.1060  -57.7780   28.9590 C.ar  163  HIS163      0.1154
     81  CE1       -1.7210  -58.9200   28.5390 C.ar  163  HIS163      0.1986
     82  NE2       -0.4730  -58.7250   28.1500 N.ar  163  HIS163     -0.2212
@<TRIPOS>BOND
     1    47    46    2
     2    46    45    1
     3    45    48    1
     4    45    44    1
     5    48    49    1
     6    49    50    1
     7    50    51    1
     8    51    52    2
     9    52    54    1
    10    52    53    1
    11    55    56    1
    12    40    39    2
    13    56    59    1
    14    56    57    1
    15    59    60    1
    16    39    38    1
    17    43    41    1
    18    62    60   ar
    19     4     3    2
    20    60    61   ar
    21    57    58    2
    22     3     2    1
    23    41    38    1
    24    41    42    1
    25    38    37    1
    26     2     1    1
    27     2     5    1
    28     5     6    1
    29    63    64    1
    30    69    71   ar
    31    69    68   ar
    32    71    72   ar
    33    67    64    1
    34    67    68    1
    35    30    29    2
    36    64    65    1
    37    68    70   ar
    38    29    28    1
    39    72    70   ar
    40    65    66    2
    41    31    28    1
    42    31    32    1
    43    28    27    1
    44    23    22    2
    45    26    24    1
    46    22    21    1
    47    32    33   ar
    48    32    34   ar
    49    24    21    1
    50    24    25    1
    51    33    35   ar
    52    21    20    1
    53    82    81   ar
    54    82    80   ar
    55    34    36   ar
    56    81    79   ar
    57    35    36   ar
    58    80    78   ar
    59    79    78   ar
    60    73    74    1
    61    78    77    1
    62    74    77    1
    63    74    75    1
    64    19    17    1
    65    75    76    2
    66    10     9    2
    67    11    12    1
    68    11     8    1
    69    18    17    1
    70    17    14    1
    71     8     9    1
    72     8     7    1
    73    14    13    1
    74    14    15    1
    75    15    16    2
