@<TRIPOS>MOLECULE
tmp/3l70C03.pdb
 201 194 0 0 0
SMALL
GASTEIGER

@<TRIPOS>ATOM
      1  N         15.5810  121.3920   83.3390 N.3   122  LEU122     -0.1245
      2  CA        15.1440  122.3540   84.3320 C.3   122  LEU122      0.1561
      3  C         16.1570  123.4980   84.4740 C.2   122  LEU122      0.2260
      4  O         15.7880  124.6810   84.4680 O.2   122  LEU122     -0.2867
      5  CB        14.9570  121.6720   85.6820 C.3   122  LEU122      0.0270
      6  CG        13.8840  120.5940   85.7640 C.3   122  LEU122      0.0019
      7  CD1       13.7340  120.1520   87.2030 C.3   122  LEU122      0.0001
      8  CD2       12.5710  121.1400   85.2530 C.3   122  LEU122      0.0001
      9  N         16.0180  125.8690   81.5760 N.3   125  MET125     -0.1230
     10  CA        14.8480  126.7280   81.5890 C.3   125  MET125      0.1702
     11  C         15.0560  127.8720   82.5470 C.2   125  MET125      0.2592
     12  O         14.7850  129.0250   82.2120 O.2   125  MET125     -0.2718
     13  CB        13.6130  125.9280   81.9740 C.3   125  MET125      0.0401
     14  CG        13.2740  124.8510   80.9560 C.3   125  MET125      0.0596
     15  SD        11.8220  123.8970   81.4020 S.3   125  MET125     -0.1393
     16  CE        10.5880  124.6410   80.3100 C.3   125  MET125      0.0692
     17  N         15.5440  127.5680   83.7420 N.am  126  ALA126     -0.1980
     18  CA        15.8010  128.6330   84.6940 C.3   126  ALA126      0.1597
     19  C         16.7950  129.6090   84.0430 C.2   126  ALA126      0.2287
     20  O         16.5950  130.8280   84.0780 O.2   126  ALA126     -0.2864
     21  CB        16.3770  128.0760   85.9710 C.3   126  ALA126      0.0319
     22  N         17.3930  130.3800   80.8850 N.3   128  ALA128     -0.1231
     23  CA        16.7590  131.2360   79.8920 C.3   128  ALA128      0.1694
     24  C         15.7650  132.2130   80.5160 C.2   128  ALA128      0.2592
     25  O         15.5930  133.3270   80.0320 O.2   128  ALA128     -0.2718
     26  CB        16.0790  130.3940   78.8130 C.3   128  ALA128      0.0304
     27  N         15.1250  131.8100   81.6040 N.am  129  PHE129     -0.1976
     28  CA        14.1730  132.6880   82.2440 C.3   129  PHE129      0.1639
     29  C         14.8640  133.9230   82.7900 C.2   129  PHE129      0.2290
     30  O         14.4450  135.0390   82.5350 O.2   129  PHE129     -0.2864
     31  CB        13.4890  131.9580   83.3780 C.3   129  PHE129      0.0560
     32  CG        12.5600  132.8180   84.1750 C.ar  129  PHE129     -0.0200
     33  CD1       11.2990  133.1450   83.6850 C.ar  129  PHE129     -0.0042
     34  CD2       12.9430  133.2990   85.4230 C.ar  129  PHE129     -0.0042
     35  CE1       10.4350  133.9340   84.4360 C.ar  129  PHE129     -0.0003
     36  CE2       12.0880  134.0900   86.1790 C.ar  129  PHE129     -0.0003
     37  CZ        10.8370  134.4080   85.6950 C.ar  129  PHE129     -0.0000
     38  N         16.3330  136.1390   79.9550 N.3   132  TYR132     -0.1227
     39  CA        15.3400  136.9580   79.2780 C.3   132  TYR132      0.1736
     40  C         15.0790  138.2770   79.9780 C.2   132  TYR132      0.2595
     41  O         14.7730  139.2770   79.3350 O.2   132  TYR132     -0.2718
     42  CB        14.0170  136.1970   79.1360 C.3   132  TYR132      0.0548
     43  CG        13.0870  136.7970   78.1020 C.ar  132  TYR132     -0.0200
     44  CD1       13.4120  136.7510   76.7490 C.ar  132  TYR132     -0.0009
     45  CD2       11.8900  137.4350   78.4730 C.ar  132  TYR132     -0.0009
     46  CE1       12.5830  137.3150   75.7850 C.ar  132  TYR132      0.0417
     47  CE2       11.0510  138.0070   77.5100 C.ar  132  TYR132      0.0417
     48  CZ        11.4100  137.9390   76.1650 C.ar  132  TYR132      0.1957
     49  OH        10.6140  138.4870   75.1840 O.3   132  TYR132     -0.2866
     50  N         15.1950  138.2970   81.2940 N.am  133  VAL133     -0.1980
     51  CA        14.9260  139.5290   82.0160 C.3   133  VAL133      0.1595
     52  C         15.9880  140.6040   81.8300 C.2   133  VAL133      0.2287
     53  O         15.6890  141.7910   81.8860 O.2   133  VAL133     -0.2864
     54  CB        14.7820  139.2570   83.5220 C.3   133  VAL133      0.0276
     55  CG1       14.4820  140.5530   84.2650 C.3   133  VAL133      0.0022
     56  CG2       13.6850  138.2450   83.7520 C.3   133  VAL133      0.0022
     57  N          8.5240  142.9490   77.8490 N.3   139  MET139     -0.1230
     58  CA         8.2090  141.5460   78.0650 C.3   139  MET139      0.1702
     59  C          9.1660  140.9820   79.0890 C.2   139  MET139      0.2593
     60  O          8.8490  140.0020   79.7670 O.2   139  MET139     -0.2718
     61  CB         8.3030  140.7420   76.7710 C.3   139  MET139      0.0401
     62  CG         7.4770  139.4820   76.8060 C.3   139  MET139      0.0596
     63  SD         5.7110  139.7680   77.2840 S.3   139  MET139     -0.1393
     64  CE         5.0440  140.2590   75.7180 C.3   139  MET139      0.0692
     65  N         10.3400  141.6040   79.2030 N.am  140  SER140     -0.1952
     66  CA        11.3410  141.1580   80.1760 C.3   140  SER140      0.1924
     67  C         10.7200  141.3350   81.5460 C.2   140  SER140      0.2314
     68  O         10.6060  140.4090   82.3320 O.2   140  SER140     -0.2863
     69  CB        12.6090  142.0210   80.1120 C.3   140  SER140      0.2116
     70  OG        13.2180  141.9980   78.8330 O.3   140  SER140     -0.2180
     71  N          7.1150  139.4400   82.0620 N.3   143  GLY143     -0.1210
     72  CA         7.2230  137.9960   82.1200 C.3   143  GLY143      0.1956
     73  C          7.7650  137.6470   83.4960 C.2   143  GLY143      0.2611
     74  O          7.3010  136.7010   84.1530 O.2   143  GLY143     -0.2717
     75  N          8.7390  138.4360   83.9470 N.am  144  ALA144     -0.1979
     76  CA         9.3380  138.2130   85.2510 C.3   144  ALA144      0.1597
     77  C          8.2550  138.3210   86.3300 C.2   144  ALA144      0.2287
     78  O          8.1640  137.4790   87.2380 O.2   144  ALA144     -0.2864
     79  CB        10.4320  139.2350   85.4990 C.3   144  ALA144      0.0319
     80  N          4.7250  138.2330   86.0280 N.3   146  VAL146     -0.1231
     81  CA         3.7150  137.1890   85.9350 C.3   146  VAL146      0.1692
     82  C          4.1350  135.8570   86.5660 C.2   146  VAL146      0.2591
     83  O          3.4150  135.2950   87.3970 O.2   146  VAL146     -0.2718
     84  CB         3.3460  136.9460   84.4710 C.3   146  VAL146      0.0266
     85  CG1        2.6690  135.6280   84.3190 C.3   146  VAL146      0.0020
     86  CG2        2.4590  138.0650   83.9860 C.3   146  VAL146      0.0020
     87  N          5.3040  135.3610   86.1720 N.am  147  ILE147     -0.1980
     88  CA         5.7810  134.0910   86.6710 C.3   147  ILE147      0.1595
     89  C          6.1420  134.0930   88.1420 C.2   147  ILE147      0.2287
     90  O          5.7140  133.2040   88.8780 O.2   147  ILE147     -0.2864
     91  CB         6.9790  133.6220   85.8610 C.3   147  ILE147      0.0276
     92  CG1        6.5500  133.3660   84.4120 C.3   147  ILE147      0.0022
     93  CG2        7.5600  132.3820   86.4710 C.3   147  ILE147      0.0022
     94  CD1        5.5580  132.2430   84.2250 C.3   147  ILE147      0.0001
     95  N          4.2800  132.3020   92.7540 N.3   151  PHE151     -0.1241
     96  CA         4.6590  131.6840   93.9970 C.3   151  PHE151      0.1605
     97  C          4.0180  132.2720   95.2350 C.2   151  PHE151      0.2264
     98  O          4.0150  131.6450   96.2940 O.2   151  PHE151     -0.2867
     99  CB         6.1870  131.6280   94.0550 C.3   151  PHE151      0.0534
    100  CG         6.7640  130.8220   92.9210 C.ar  151  PHE151     -0.0203
    101  CD1        7.7560  131.3430   92.0930 C.ar  151  PHE151     -0.0042
    102  CD2        6.2100  129.5670   92.6070 C.ar  151  PHE151     -0.0042
    103  CE1        8.1830  130.6230   90.9500 C.ar  151  PHE151     -0.0003
    104  CE2        6.6220  128.8430   91.4800 C.ar  151  PHE151     -0.0003
    105  CZ         7.6080  129.3710   90.6450 C.ar  151  PHE151     -0.0000
    106  N          0.8260  139.1850   77.3540 N.3   269  ILE269     -0.1231
    107  CA         2.0300  138.7350   78.0320 C.3   269  ILE269      0.1692
    108  C          2.2100  137.2540   77.7320 C.2   269  ILE269      0.2592
    109  O          1.5080  136.4060   78.2910 O.2   269  ILE269     -0.2718
    110  CB         1.9100  138.8940   79.5620 C.3   269  ILE269      0.0266
    111  CG1        1.9330  140.3710   79.9480 C.3   269  ILE269      0.0019
    112  CG2        3.0280  138.1450   80.2570 C.3   269  ILE269      0.0020
    113  CD1        1.8000  140.5890   81.4410 C.3   269  ILE269      0.0001
    114  N          3.1440  136.9390   76.8490 N.am  270  LYS270     -0.1966
    115  CA         3.3850  135.5500   76.5160 C.3   270  LYS270      0.1713
    116  C          4.8940  135.3230   76.3610 C.2   270  LYS270      0.2458
    117  O          5.6340  136.2170   75.9720 O.2   270  LYS270     -0.2730
    118  CB         2.6380  135.1890   75.2270 C.3   270  LYS270      0.0311
    119  CG         3.0040  136.0480   74.0410 C.3   270  LYS270      0.0038
    120  CD         2.3370  135.5540   72.7960 C.3   270  LYS270      0.0206
    121  CE         3.2680  135.7060   71.5880 C.3   270  LYS270      0.1093
    122  NZ         4.6000  134.9720   71.7770 N.3   270  LYS270     -0.1314
    123  N          5.3660  134.1170   76.6590 N.am  271  PRO271     -0.2716
    124  CA         6.7880  133.8000   76.5530 C.3   271  PRO271      0.1536
    125  C          7.3230  133.4790   75.1770 C.2   271  PRO271      0.2598
    126  O          6.6030  133.4620   74.1820 O.2   271  PRO271     -0.2715
    127  CB         6.9270  132.6020   77.4790 C.3   271  PRO271      0.0310
    128  CG         5.6150  131.8930   77.2680 C.3   271  PRO271      0.0237
    129  CD         4.6320  133.0300   77.3320 C.3   271  PRO271      0.0939
    130  N          8.6240  133.2320   75.1400 N.am  272  GLU272     -0.1978
    131  CA         9.3050  132.8130   73.9380 C.3   272  GLU272      0.1602
    132  C          8.6550  131.4740   73.5820 C.2   272  GLU272      0.2287
    133  O          8.1390  130.7750   74.4430 O.2   272  GLU272     -0.2864
    134  CB        10.7810  132.6060   74.2430 C.3   272  GLU272      0.0415
    135  CG        11.5990  133.8840   74.2610 C.3   272  GLU272      0.1163
    136  CD        11.5980  134.5780   72.9030 C.2   272  GLU272      0.3649
    137  OE1       11.8190  133.8900   71.8770 O.co2 272  GLU272     -0.2457
    138  OE2       11.3720  135.8100   72.8620 O.co2 272  GLU272     -0.2457
    139  N          9.5750  128.4150   73.1280 N.3   274  TYR274     -0.1227
    140  CA         9.9170  127.2100   73.8860 C.3   274  TYR274      0.1736
    141  C          9.2930  127.0560   75.2790 C.2   274  TYR274      0.2595
    142  O          9.4630  126.0100   75.9110 O.2   274  TYR274     -0.2718
    143  CB        11.4520  127.0240   73.9470 C.3   274  TYR274      0.0548
    144  CG        12.2270  128.2490   74.3910 C.ar  274  TYR274     -0.0200
    145  CD1       12.3630  128.5660   75.7530 C.ar  274  TYR274     -0.0009
    146  CD2       12.8280  129.0980   73.4480 C.ar  274  TYR274     -0.0009
    147  CE1       13.0890  129.7060   76.1610 C.ar  274  TYR274      0.0417
    148  CE2       13.5450  130.2270   73.8410 C.ar  274  TYR274      0.0417
    149  CZ        13.6700  130.5250   75.1990 C.ar  274  TYR274      0.1957
    150  OH        14.3470  131.6540   75.5970 O.3   274  TYR274     -0.2866
    151  N          8.5620  128.0660   75.7470 N.am  275  PHE275     -0.1976
    152  CA         7.8820  128.0030   77.0470 C.3   275  PHE275      0.1639
    153  C          6.3640  127.9730   76.8560 C.2   275  PHE275      0.2290
    154  O          5.6210  127.6900   77.7980 O.2   275  PHE275     -0.2864
    155  CB         8.1810  129.2310   77.8940 C.3   275  PHE275      0.0560
    156  CG         9.4810  129.1870   78.6120 C.ar  275  PHE275     -0.0200
    157  CD1       10.0380  130.3540   79.1080 C.ar  275  PHE275     -0.0042
    158  CD2       10.1570  128.0010   78.8050 C.ar  275  PHE275     -0.0042
    159  CE1       11.2450  130.3410   79.7800 C.ar  275  PHE275     -0.0003
    160  CE2       11.3660  127.9910   79.4780 C.ar  275  PHE275     -0.0003
    161  CZ        11.9040  129.1700   79.9620 C.ar  275  PHE275     -0.0000
    162  N          4.1480  125.1300   78.1360 N.3   278  ALA278     -0.1231
    163  CA         3.9730  125.1650   79.5880 C.3   278  ALA278      0.1694
    164  C          3.0520  126.3140   80.0380 C.2   278  ALA278      0.2592
    165  O          2.3230  126.2150   81.0340 O.2   278  ALA278     -0.2718
    166  CB         5.3320  125.3030   80.2540 C.3   278  ALA278      0.0304
    167  N          3.1090  127.4130   79.3050 N.am  279  TYR279     -0.1976
    168  CA         2.2880  128.5500   79.6320 C.3   279  TYR279      0.1639
    169  C          0.8190  128.1520   79.4020 C.2   279  TYR279      0.2290
    170  O         -0.0820  128.5530   80.1500 O.2   279  TYR279     -0.2864
    171  CB         2.6790  129.6970   78.7270 C.3   279  TYR279      0.0560
    172  CG         2.2130  131.0440   79.1840 C.ar  279  TYR279     -0.0198
    173  CD1        2.4860  131.5040   80.4670 C.ar  279  TYR279     -0.0009
    174  CD2        1.6050  131.9120   78.2900 C.ar  279  TYR279     -0.0009
    175  CE1        2.1750  132.8040   80.8380 C.ar  279  TYR279      0.0417
    176  CE2        1.2920  133.2020   78.6430 C.ar  279  TYR279      0.0417
    177  CZ         1.5790  133.6430   79.9070 C.ar  279  TYR279      0.1957
    178  OH         1.2830  134.9500   80.2080 O.3   279  TYR279     -0.2866
    179  N         -0.2680  126.1450   82.1860 N.3   282  LEU282     -0.1245
    180  CA        -0.4130  126.9940   83.3600 C.3   282  LEU282      0.1561
    181  C         -1.7880  127.6160   83.4010 C.2   282  LEU282      0.2260
    182  O         -2.4680  127.5910   84.4150 O.2   282  LEU282     -0.2867
    183  CB         0.6110  128.1190   83.3520 C.3   282  LEU282      0.0270
    184  CG         0.3000  129.2520   84.3420 C.3   282  LEU282      0.0019
    185  CD1        0.4390  128.7700   85.7660 C.3   282  LEU282      0.0001
    186  CD2        1.2340  130.4130   84.0870 C.3   282  LEU282      0.0001
    187  N          1.8110  123.4800   86.0450 N.3   295  LEU295     -0.1245
    188  CA         2.9950  123.9080   85.3130 C.3   295  LEU295      0.1561
    189  C          4.1530  123.0490   85.7520 C.2   295  LEU295      0.2260
    190  O          4.8320  122.4250   84.9300 O.2   295  LEU295     -0.2867
    191  CB         3.3020  125.3790   85.6060 C.3   295  LEU295      0.0270
    192  CG         4.5580  125.9980   84.9920 C.3   295  LEU295      0.0019
    193  CD1        4.6490  125.6810   83.5050 C.3   295  LEU295      0.0001
    194  CD2        4.5090  127.4900   85.2220 C.3   295  LEU295      0.0001
    195  N          6.5970  119.4600   83.6300 N.3   299  VAL299     -0.1245
    196  CA         7.9750  119.1340   83.3440 C.3   299  VAL299      0.1561
    197  C          8.4640  118.0530   84.3000 C.2   299  VAL299      0.2260
    198  O          9.1770  117.1380   83.8990 O.2   299  VAL299     -0.2867
    199  CB         8.8720  120.3800   83.4330 C.3   299  VAL299      0.0252
    200  CG1       10.3330  119.9820   83.2600 C.3   299  VAL299      0.0019
    201  CG2        8.5040  121.3530   82.3360 C.3   299  VAL299      0.0019
@<TRIPOS>BOND
     1   121   122    1
     2   121   120    1
     3   137   136   ar
     4   120   119    1
     5   138   136   ar
     6   136   135    1
     7   139   140    1
     8   146   148   ar
     9   146   144   ar
    10   132   131    1
    11   132   133    2
    12   148   149   ar
    13   140   143    1
    14   140   141    1
    15   131   134    1
    16   131   130    1
    17   143   144    1
    18   119   118    1
    19   126   125    2
    20   134   135    1
    21   144   145   ar
    22   130   125   am
    23   125   124    1
    24    49    48    1
    25   149   150    1
    26   149   147   ar
    27   118   115    1
    28   141   151   am
    29   141   142    2
    30    64    63    1
    31   151   152    1
    32   145   147   ar
    33    46    48   ar
    34    46    44   ar
    35   117   116    2
    36    48    47   ar
    37   116   115    1
    38   116   123   am
    39   115   114    1
    40   124   123    1
    41   124   127    1
    42   123   129    1
    43    44    43   ar
    44    61    62    1
    45    61    58    1
    46    62    63    1
    47   114   108   am
    48   153   152    1
    49   153   154    2
    50   152   155    1
    51   128   129    1
    52   128   127    1
    53   106   107    1
    54    47    45   ar
    55   108   107    1
    56   108   109    2
    57    57    58    1
    58   155   156    1
    59   107   110    1
    60    58    59    1
    61    43    45   ar
    62    43    42    1
    63   162   163    1
    64   174   176   ar
    65   174   172   ar
    66   156   158   ar
    67   156   157   ar
    68   176   177   ar
    69   171   172    1
    70   171   168    1
    71   158   160   ar
    72    26    23    1
    73    70    69    1
    74    59    65   am
    75    59    60    2
    76   157   159   ar
    77    42    39    1
    78   172   173   ar
    79    65    66    1
    80    39    38    1
    81    39    40    1
    82   167   168    1
    83   167   164   am
    84    41    40    2
    85   169   168    1
    86   169   170    2
    87   160   161   ar
    88   110   111    1
    89   110   112    1
    90   163   164    1
    91   163   166    1
    92   159   161   ar
    93    23    24    1
    94    23    22    1
    95   177   178    1
    96   177   175   ar
    97   111   113    1
    98    40    50   am
    99    25    24    2
   100   164   165    2
   101    69    66    1
   102    66    67    1
   103    16    15    1
   104   173   175   ar
   105    24    27   am
   106    14    15    1
   107    14    13    1
   108    50    51    1
   109    67    68    2
   110     9    10    1
   111    10    13    1
   112    10    11    1
   113    27    28    1
   114    52    53    2
   115    52    51    1
   116    51    54    1
   117    71    72    1
   118    72    73    1
   119   179   180    1
   120    12    11    2
   121    28    29    1
   122    28    31    1
   123   201   199    1
   124    30    29    2
   125    11    17   am
   126   200   199    1
   127     1     2    1
   128   196   199    1
   129   196   195    1
   130   196   197    1
   131   183   180    1
   132   183   184    1
   133   180   181    1
   134    31    32    1
   135   181   182    2
   136    73    75   am
   137    73    74    2
   138   193   192    1
   139    54    56    1
   140    54    55    1
   141    33    32   ar
   142    33    35   ar
   143    17    18    1
   144   198   197    2
   145    75    76    1
   146    86    84    1
   147    19    20    2
   148    19    18    1
   149   186   184    1
   150    32    34   ar
   151    94    92    1
   152    85    84    1
   153     2     3    1
   154     2     5    1
   155   184   185    1
   156    92    91    1
   157    35    37   ar
   158     4     3    2
   159    84    81    1
   160    18    21    1
   161   190   189    2
   162   192   194    1
   163   192   191    1
   164    76    79    1
   165    76    77    1
   166     8     6    1
   167   188   191    1
   168   188   189    1
   169   188   187    1
   170    34    36   ar
   171     5     6    1
   172    37    36   ar
   173     6     7    1
   174    91    93    1
   175    91    88    1
   176    81    80    1
   177    81    82    1
   178    87    82   am
   179    87    88    1
   180    77    78    2
   181    82    83    2
   182    88    89    1
   183    89    90    2
   184   105   103   ar
   185   105   104   ar
   186   103   101   ar
   187   104   102   ar
   188   101   100   ar
   189   102   100   ar
   190    95    96    1
   191   100    99    1
   192    96    99    1
   193    96    97    1
   194    97    98    2
