@<TRIPOS>MOLECULE
tmp/3l70C06.pdb
 256 251 0 0 0
SMALL
GASTEIGER

@<TRIPOS>ATOM
      1  N         19.0200  110.8460   64.9720 N.3    31  TRP31      -0.1241
      2  CA        18.4210  111.2550   66.2270 C.3    31  TRP31       0.1605
      3  C         19.4230  111.2670   67.3740 C.2    31  TRP31       0.2264
      4  O         19.1950  111.9170   68.3820 O.2    31  TRP31      -0.2867
      5  CB        17.2250  110.3650   66.5680 C.3    31  TRP31       0.0550
      6  CG        16.1130  110.5090   65.5820 C.ar   31  TRP31       0.0003
      7  CD1       15.7060  109.5790   64.6800 C.ar   31  TRP31       0.0946
      8  CD2       15.3240  111.6770   65.3350 C.ar   31  TRP31       0.0152
      9  NE1       14.7190  110.0920   63.8770 N.ar   31  TRP31      -0.2442
     10  CE2       14.4650  111.3810   64.2580 C.ar   31  TRP31       0.0810
     11  CE3       15.2620  112.9410   65.9130 C.ar   31  TRP31       0.0012
     12  CZ2       13.5540  112.3020   63.7450 C.ar   31  TRP31       0.0191
     13  CZ3       14.3540  113.8610   65.4040 C.ar   31  TRP31       0.0001
     14  CH2       13.5120  113.5360   64.3300 C.ar   31  TRP31       0.0015
     15  N         14.5570  119.5060   72.7550 N.3    96  PHE96      -0.1227
     16  CA        13.2750  118.8130   72.6080 C.3    96  PHE96       0.1736
     17  C         13.3870  117.6010   71.6750 C.2    96  PHE96       0.2595
     18  O         12.6970  116.5940   71.8810 O.2    96  PHE96      -0.2718
     19  CB        12.1680  119.7580   72.1030 C.3    96  PHE96       0.0547
     20  CG        11.7950  120.8580   73.0740 C.ar   96  PHE96      -0.0202
     21  CD1       11.7920  120.6280   74.4520 C.ar   96  PHE96      -0.0042
     22  CD2       11.4330  122.1190   72.6090 C.ar   96  PHE96      -0.0042
     23  CE1       11.4360  121.6460   75.3610 C.ar   96  PHE96      -0.0003
     24  CE2       11.0760  123.1330   73.5000 C.ar   96  PHE96      -0.0003
     25  CZ        11.0780  122.8970   74.8830 C.ar   96  PHE96      -0.0000
     26  N         14.2300  117.6890   70.6420 N.am   97  LEU97      -0.1980
     27  CA        14.3990  116.5440   69.7670 C.3    97  LEU97       0.1596
     28  C         15.1690  115.4560   70.5500 C.2    97  LEU97       0.2287
     29  O         14.8610  114.2590   70.4240 O.2    97  LEU97      -0.2864
     30  CB        15.1330  116.9470   68.4940 C.3    97  LEU97       0.0297
     31  CG        14.4160  118.0400   67.6680 C.3    97  LEU97       0.0022
     32  CD1       15.2070  118.3850   66.4120 C.3    97  LEU97       0.0001
     33  CD2       13.0240  117.5700   67.2620 C.3    97  LEU97       0.0001
     34  N         15.0990  114.8560   73.7740 N.3    99  ILE99      -0.1231
     35  CA        14.1370  114.1930   74.6440 C.3    99  ILE99       0.1692
     36  C         13.2090  113.2720   73.8360 C.2    99  ILE99       0.2593
     37  O         12.9920  112.1060   74.1850 O.2    99  ILE99      -0.2718
     38  CB        13.2850  115.2460   75.4270 C.3    99  ILE99       0.0266
     39  CG1       14.1950  116.0250   76.3890 C.3    99  ILE99       0.0019
     40  CG2       12.1730  114.5670   76.2040 C.3    99  ILE99       0.0020
     41  CD1       13.5140  117.1370   77.1690 C.3    99  ILE99       0.0001
     42  N         12.6670  113.8010   72.7470 N.am  100  GLY100     -0.1942
     43  CA        11.7750  113.0090   71.9250 C.3   100  GLY100      0.2014
     44  C         12.4030  111.6850   71.5760 C.2   100  GLY100      0.2638
     45  O         11.8020  110.6340   71.7550 O.2   100  GLY100     -0.2714
     46  N         13.6130  111.7540   71.0480 N.am  101  ARG101     -0.1977
     47  CA        14.3650  110.5770   70.6770 C.3   101  ARG101      0.1597
     48  C         14.3560  109.6410   71.8680 C.2   101  ARG101      0.2287
     49  O         14.0750  108.4530   71.7400 O.2   101  ARG101     -0.2864
     50  CB        15.7980  110.9830   70.3390 C.3   101  ARG101      0.0334
     51  CG        16.7580  109.8370   70.1110 C.3   101  ARG101      0.0492
     52  CD        17.1580  109.1430   71.4180 C.3   101  ARG101      0.2205
     53  NE        17.8730  110.0150   72.3520 N.pl3 101  ARG101     -0.0865
     54  CZ        19.1550  110.3370   72.2290 C.cat 101  ARG101      0.5346
     55  NH1       19.8680  109.8650   71.2110 N.pl3 101  ARG101      0.1354
     56  NH2       19.7230  111.1220   73.1230 N.pl3 101  ARG101      0.1354
     57  N         12.2760  109.3310   74.4070 N.3   103  LEU103     -0.1231
     58  CA        10.9910  108.7390   74.7130 C.3   103  LEU103      0.1693
     59  C         10.6770  107.6350   73.7210 C.2   103  LEU103      0.2592
     60  O         10.3100  106.5310   74.1020 O.2   103  LEU103     -0.2718
     61  CB         9.9020  109.7830   74.6580 C.3   103  LEU103      0.0284
     62  CG         8.5140  109.1590   74.8140 C.3   103  LEU103      0.0019
     63  CD1        8.4440  108.4260   76.1490 C.3   103  LEU103      0.0001
     64  CD2        7.4390  110.2420   74.7230 C.3   103  LEU103      0.0001
     65  N         10.8540  107.9330   72.4420 N.am  104  TYR104     -0.1962
     66  CA        10.5810  106.9870   71.3650 C.3   104  TYR104      0.1771
     67  C         11.4440  105.7370   71.4020 C.2   104  TYR104      0.2619
     68  O         10.9900  104.6580   71.0280 O.2   104  TYR104     -0.2715
     69  CB        10.8000  107.6780   70.0180 C.3   104  TYR104      0.0574
     70  CG        10.2760  106.9380   68.8090 C.ar  104  TYR104     -0.0198
     71  CD1        8.9750  107.1620   68.3390 C.ar  104  TYR104     -0.0009
     72  CD2       11.0830  106.0270   68.1150 C.ar  104  TYR104     -0.0009
     73  CE1        8.4860  106.5020   67.2060 C.ar  104  TYR104      0.0417
     74  CE2       10.6020  105.3580   66.9750 C.ar  104  TYR104      0.0417
     75  CZ         9.2980  105.6020   66.5340 C.ar  104  TYR104      0.1957
     76  OH         8.7910  104.9180   65.4540 O.3   104  TYR104     -0.2866
     77  N         12.6960  105.8810   71.8350 N.am  105  TYR105     -0.1974
     78  CA        13.6160  104.7430   71.8530 C.3   105  TYR105      0.1639
     79  C         13.9150  104.1180   73.2070 C.2   105  TYR105      0.2290
     80  O         14.7610  103.2340   73.3220 O.2   105  TYR105     -0.2864
     81  CB        14.9120  105.1220   71.1530 C.3   105  TYR105      0.0560
     82  CG        14.7270  105.3660   69.6750 C.ar  105  TYR105     -0.0198
     83  CD1       14.6240  106.6590   69.1570 C.ar  105  TYR105     -0.0009
     84  CD2       14.6380  104.3020   68.7950 C.ar  105  TYR105     -0.0009
     85  CE1       14.4390  106.8800   67.7830 C.ar  105  TYR105      0.0417
     86  CE2       14.4500  104.5010   67.4360 C.ar  105  TYR105      0.0417
     87  CZ        14.3510  105.7880   66.9300 C.ar  105  TYR105      0.1957
     88  OH        14.1720  105.9480   65.5630 O.3   105  TYR105     -0.2866
     89  N         17.4740  119.9690   81.6930 N.3   121  LEU121     -0.1245
     90  CA        16.3310  120.7040   81.1320 C.3   121  LEU121      0.1561
     91  C         15.8520  121.7860   82.1040 C.2   121  LEU121      0.2260
     92  O         15.7240  122.9580   81.7440 O.2   121  LEU121     -0.2867
     93  CB        15.1780  119.7430   80.8490 C.3   121  LEU121      0.0270
     94  CG        13.8590  120.3840   80.4060 C.3   121  LEU121      0.0019
     95  CD1       14.0630  121.2120   79.1590 C.3   121  LEU121      0.0001
     96  CD2       12.8450  119.2960   80.1440 C.3   121  LEU121      0.0001
     97  N         18.5260  102.4130   67.6510 N.3   209  PRO209     -0.2102
     98  CA        17.1480  102.3180   67.1650 C.3   209  PRO209      0.1504
     99  C         16.3950  100.9760   67.1320 C.2   209  PRO209      0.2575
    100  O         15.1730  100.9620   67.0520 O.2   209  PRO209     -0.2718
    101  CB        17.2110  103.0220   65.8070 C.3   209  PRO209      0.0282
    102  CG        18.6700  102.9780   65.4250 C.3   209  PRO209      0.0208
    103  CD        19.3900  103.1460   66.7030 C.3   209  PRO209      0.0893
    104  N         17.0770   99.8470   67.2050 N.am  210  LEU210     -0.1980
    105  CA        16.3300   98.5950   67.2000 C.3   210  LEU210      0.1596
    106  C         16.0980   98.1300   68.6240 C.2   210  LEU210      0.2287
    107  O         15.3430   97.1970   68.8570 O.2   210  LEU210     -0.2864
    108  CB        17.0570   97.4900   66.4270 C.3   210  LEU210      0.0297
    109  CG        17.3640   97.6890   64.9460 C.3   210  LEU210      0.0022
    110  CD1       17.8620   96.3710   64.3530 C.3   210  LEU210      0.0001
    111  CD2       16.1100   98.1620   64.2240 C.3   210  LEU210      0.0001
    112  N          8.6990  131.0920   72.3190 N.3   273  TRP273     -0.1241
    113  CA         8.0400  129.8710   71.9070 C.3   273  TRP273      0.1605
    114  C          8.3150  128.6290   72.7470 C.2   273  TRP273      0.2264
    115  O          7.3840  127.8700   73.0520 O.2   273  TRP273     -0.2867
    116  CB         8.3620  129.5800   70.4480 C.3   273  TRP273      0.0550
    117  CG         9.7650  129.1270   70.2060 C.ar  273  TRP273      0.0003
    118  CD1       10.8460  129.9010   69.8600 C.ar  273  TRP273      0.0946
    119  CD2       10.2450  127.7850   70.3050 C.ar  273  TRP273      0.0152
    120  NE1       11.9680  129.1140   69.7360 N.ar  273  TRP273     -0.2442
    121  CE2       11.6300  127.8130   70.0050 C.ar  273  TRP273      0.0810
    122  CE3        9.6410  126.5610   70.6200 C.ar  273  TRP273      0.0012
    123  CZ2       12.4210  126.6570   70.0100 C.ar  273  TRP273      0.0191
    124  CZ3       10.4260  125.4040   70.6260 C.ar  273  TRP273      0.0001
    125  CH2       11.8040  125.4630   70.3210 C.ar  273  TRP273      0.0015
    126  N          4.2100  125.9220   75.4360 N.3   277  PHE277     -0.1241
    127  CA         3.4900  124.7170   75.8300 C.3   277  PHE277      0.1605
    128  C          3.1830  124.7130   77.3200 C.2   277  PHE277      0.2264
    129  O          2.0890  124.3490   77.7220 O.2   277  PHE277     -0.2867
    130  CB         4.2900  123.4640   75.4520 C.3   277  PHE277      0.0534
    131  CG         5.3200  123.0710   76.4650 C.ar  277  PHE277     -0.0203
    132  CD1        5.0590  122.0630   77.3790 C.ar  277  PHE277     -0.0042
    133  CD2        6.5610  123.7140   76.5060 C.ar  277  PHE277     -0.0042
    134  CE1        6.0270  121.6950   78.3190 C.ar  277  PHE277     -0.0003
    135  CE2        7.5210  123.3550   77.4340 C.ar  277  PHE277     -0.0003
    136  CZ         7.2540  122.3410   78.3420 C.ar  277  PHE277     -0.0000
    137  N          3.9730  119.6110   84.5210 N.3   298  SER298     -0.1202
    138  CA         4.2160  119.4690   83.0880 C.3   298  SER298      0.2020
    139  C          5.6640  119.1240   82.7550 C.2   298  SER298      0.2618
    140  O          5.9430  118.5720   81.6970 O.2   298  SER298     -0.2717
    141  CB         3.8350  120.7370   82.3430 C.3   298  SER298      0.2103
    142  OG         4.7710  121.7480   82.6230 O.3   298  SER298     -0.2182
    143  N          6.5970  119.4600   83.6300 N.am  299  VAL299     -0.1979
    144  CA         7.9750  119.1340   83.3440 C.3   299  VAL299      0.1595
    145  C          8.4640  118.0530   84.3000 C.2   299  VAL299      0.2287
    146  O          9.1770  117.1380   83.8990 O.2   299  VAL299     -0.2864
    147  CB         8.8720  120.3800   83.4330 C.3   299  VAL299      0.0276
    148  CG1       10.3330  119.9820   83.2600 C.3   299  VAL299      0.0022
    149  CG2        8.5040  121.3530   82.3360 C.3   299  VAL299      0.0022
    150  N          8.4600  114.2020   83.6200 N.3   302  LEU302     -0.1245
    151  CA         9.5760  113.4880   82.9880 C.3   302  LEU302      0.1561
    152  C         10.2870  112.5220   83.9330 C.2   302  LEU302      0.2260
    153  O         10.8380  111.5200   83.4900 O.2   302  LEU302     -0.2867
    154  CB        10.5900  114.4790   82.4200 C.3   302  LEU302      0.0270
    155  CG        10.0790  115.3270   81.2460 C.3   302  LEU302      0.0019
    156  CD1       11.0990  116.3420   80.8180 C.3   302  LEU302      0.0001
    157  CD2        9.7940  114.4470   80.0960 C.3   302  LEU302      0.0001
    158  N         10.1810  101.1850   67.7440 N.3   317  THR317     -0.1218
    159  CA        10.3870  100.8050   66.3640 C.3   317  THR317      0.1862
    160  C          9.4250   99.7350   65.9050 C.2   317  THR317      0.2287
    161  O          8.9070   99.8200   64.8120 O.2   317  THR317     -0.2866
    162  CB        11.7910  100.2930   66.1290 C.3   317  THR317      0.1770
    163  OG1       12.7240  101.2920   66.5390 O.3   317  THR317     -0.2211
    164  CG2       12.0060   99.9870   64.6600 C.3   317  THR317      0.0375
    165  N          3.6370  104.0390   68.3950 N.3   323  GLN323     -0.1245
    166  CA         4.1110  105.0420   67.4470 C.3   323  GLN323      0.1566
    167  C          3.0570  106.1200   67.1710 C.2   323  GLN323      0.2260
    168  O          3.3690  107.3130   67.1610 O.2   323  GLN323     -0.2867
    169  CB         4.5130  104.4000   66.1240 C.3   323  GLN323      0.0367
    170  CG         5.8180  103.6760   66.1860 C.3   323  GLN323      0.0905
    171  CD         6.1370  102.9610   64.8910 C.2   323  GLN323      0.2608
    172  OE1        5.9320  103.5030   63.8010 O.2   323  GLN323     -0.2717
    173  NE2        6.6600  101.7470   64.9980 N.am  323  GLN323     -0.0878
    174  N          2.6340  108.1740   70.1490 N.3   326  PHE326     -0.1227
    175  CA         3.7880  109.0650   70.2010 C.3   326  PHE326      0.1736
    176  C          3.5800  110.3210   69.3520 C.2   326  PHE326      0.2595
    177  O          3.8060  111.4230   69.8270 O.2   326  PHE326     -0.2718
    178  CB         5.0430  108.3470   69.7170 C.3   326  PHE326      0.0547
    179  CG         6.2670  109.2340   69.6840 C.ar  326  PHE326     -0.0202
    180  CD1        6.9820  109.4990   70.8440 C.ar  326  PHE326     -0.0042
    181  CD2        6.6630  109.8590   68.5010 C.ar  326  PHE326     -0.0042
    182  CE1        8.0580  110.3690   70.8260 C.ar  326  PHE326     -0.0003
    183  CE2        7.7410  110.7320   68.4850 C.ar  326  PHE326     -0.0003
    184  CZ         8.4330  110.9820   69.6520 C.ar  326  PHE326     -0.0000
    185  N          3.1740  110.1710   68.0940 N.am  327  TRP327     -0.1976
    186  CA         2.9330  111.3480   67.2440 C.3   327  TRP327      0.1640
    187  C          1.6800  112.1370   67.6610 C.2   327  TRP327      0.2290
    188  O          1.5550  113.3350   67.3840 O.2   327  TRP327     -0.2864
    189  CB         2.8390  110.9440   65.7860 C.3   327  TRP327      0.0576
    190  CG         4.1190  110.4150   65.3290 C.ar  327  TRP327      0.0006
    191  CD1        4.4150  109.1170   65.0120 C.ar  327  TRP327      0.0946
    192  CD2        5.3290  111.1530   65.1630 C.ar  327  TRP327      0.0152
    193  NE1        5.7410  109.0010   64.6520 N.ar  327  TRP327     -0.2442
    194  CE2        6.3270  110.2360   64.7350 C.ar  327  TRP327      0.0810
    195  CE3        5.6700  112.5000   65.3320 C.ar  327  TRP327      0.0012
    196  CZ2        7.6370  110.6250   64.4730 C.ar  327  TRP327      0.0191
    197  CZ3        6.9880  112.8890   65.0680 C.ar  327  TRP327      0.0001
    198  CH2        7.9490  111.9510   64.6440 C.ar  327  TRP327      0.0015
    199  N          0.9590  112.6410   70.7330 N.3   329  LEU329     -0.1231
    200  CA         1.5710  113.4560   71.7710 C.3   329  LEU329      0.1693
    201  C          2.3560  114.6170   71.1780 C.2   329  LEU329      0.2591
    202  O          2.2950  115.7370   71.6740 O.2   329  LEU329     -0.2718
    203  CB         2.5060  112.6050   72.6100 C.3   329  LEU329      0.0284
    204  CG         3.2420  113.3910   73.6850 C.3   329  LEU329      0.0019
    205  CD1        2.2280  113.9640   74.6690 C.3   329  LEU329      0.0001
    206  CD2        4.2340  112.4900   74.3910 C.3   329  LEU329      0.0001
    207  N          3.1120  114.3550   70.1220 N.am  330  VAL330     -0.1980
    208  CA         3.8680  115.4310   69.5120 C.3   330  VAL330      0.1595
    209  C          2.8940  116.5110   69.0460 C.2   330  VAL330      0.2287
    210  O          3.0500  117.6820   69.3860 O.2   330  VAL330     -0.2864
    211  CB         4.7100  114.9290   68.3320 C.3   330  VAL330      0.0276
    212  CG1        5.3590  116.1040   67.5950 C.3   330  VAL330      0.0022
    213  CG2        5.7510  113.9990   68.8420 C.3   330  VAL330      0.0022
    214  N          1.5690  118.6150   71.6570 N.3   333  LEU333     -0.1231
    215  CA         2.5000  119.6780   72.0380 C.3   333  LEU333      0.1693
    216  C          2.4560  120.8970   71.1100 C.2   333  LEU333      0.2591
    217  O          2.5300  122.0290   71.5740 O.2   333  LEU333     -0.2718
    218  CB         3.9240  119.1200   72.1290 C.3   333  LEU333      0.0284
    219  CG         4.1260  118.1740   73.3260 C.3   333  LEU333      0.0019
    220  CD1        5.3110  117.2740   73.1200 C.3   333  LEU333      0.0001
    221  CD2        4.2960  118.9710   74.5860 C.3   333  LEU333      0.0001
    222  N          2.3480  120.6870   69.8060 N.am  334  LEU334     -0.1980
    223  CA         2.2340  121.8340   68.9110 C.3   334  LEU334      0.1596
    224  C          0.9570  122.5950   69.2880 C.2   334  LEU334      0.2287
    225  O          0.9410  123.8290   69.3680 O.2   334  LEU334     -0.2864
    226  CB         2.1510  121.3910   67.4490 C.3   334  LEU334      0.0297
    227  CG         3.4600  120.8230   66.8780 C.3   334  LEU334      0.0022
    228  CD1        3.2830  120.5570   65.3920 C.3   334  LEU334      0.0001
    229  CD2        4.6210  121.8090   67.1110 C.3   334  LEU334      0.0001
    230  N          1.5230  124.6160   72.3110 N.3   337  THR337     -0.1218
    231  CA         2.3830  125.7280   71.9520 C.3   337  THR337      0.1862
    232  C          1.5080  126.8170   71.3450 C.2   337  THR337      0.2287
    233  O          1.6100  127.9990   71.6880 O.2   337  THR337     -0.2866
    234  CB         3.4100  125.2850   70.9200 C.3   337  THR337      0.1770
    235  OG1        4.2150  124.2740   71.5040 O.3   337  THR337     -0.2211
    236  CG2        4.3060  126.4320   70.4860 C.3   337  THR337      0.0375
    237  N         -2.4180  115.6790   77.3310 N.3   359  TYR359     -0.1241
    238  CA        -0.9840  115.6250   77.5270 C.3   359  TYR359      0.1605
    239  C         -0.6710  114.6560   78.6540 C.2   359  TYR359      0.2264
    240  O          0.0140  113.6440   78.4520 O.2   359  TYR359     -0.2867
    241  CB        -0.4640  117.0100   77.8870 C.3   359  TYR359      0.0534
    242  CG         0.9820  117.0390   78.2850 C.ar  359  TYR359     -0.0201
    243  CD1        1.9890  116.8990   77.3330 C.ar  359  TYR359     -0.0009
    244  CD2        1.3430  117.1870   79.6260 C.ar  359  TYR359     -0.0009
    245  CE1        3.3240  116.9060   77.7100 C.ar  359  TYR359      0.0417
    246  CE2        2.6730  117.1970   80.0200 C.ar  359  TYR359      0.0417
    247  CZ         3.6600  117.0600   79.0570 C.ar  359  TYR359      0.1957
    248  OH         4.9770  117.1200   79.4320 O.3   359  TYR359     -0.2866
    249  N          0.8420  110.3830   78.6500 N.3   363  LEU363     -0.1245
    250  CA         2.0430  109.9330   79.3350 C.3   363  LEU363      0.1561
    251  C          1.7380  109.0970   80.5640 C.2   363  LEU363      0.2260
    252  O          2.4410  108.1310   80.8500 O.2   363  LEU363     -0.2867
    253  CB         2.9120  111.1200   79.7520 C.3   363  LEU363      0.0270
    254  CG         3.5040  111.9500   78.6120 C.3   363  LEU363      0.0019
    255  CD1        4.0420  113.2310   79.1910 C.3   363  LEU363      0.0001
    256  CD2        4.5670  111.1760   77.8670 C.3   363  LEU363      0.0001
@<TRIPOS>BOND
     1    12    10   ar
     2    12    14   ar
     3   172   171    2
     4     9    10   ar
     5     9     7   ar
     6   111   109    1
     7    10     8   ar
     8    14    13   ar
     9   110   109    1
    10   196   198   ar
    11   196   194   ar
    12   198   197   ar
    13   193   194   ar
    14   193   191   ar
    15   164   162    1
    16     7     6   ar
    17   194   192   ar
    18   161   160    2
    19   171   173   am
    20   171   170    1
    21   109   108    1
    22     1     2    1
    23   191   190   ar
    24   197   195   ar
    25   192   190   ar
    26   192   195   ar
    27   190   189    1
    28     8     6   ar
    29     8    11   ar
    30   228   227    1
    31    13    11   ar
    32   102   101    1
    33   102   103    1
    34    76    75    1
    35    88    87    1
    36     6     5    1
    37   189   186    1
    38   101    98    1
    39   160   159    1
    40   169   170    1
    41   169   166    1
    42   162   159    1
    43   162   163    1
    44     2     5    1
    45     2     3    1
    46   159   158    1
    47    32    31    1
    48   108   105    1
    49    75    74   ar
    50    75    73   ar
    51   103    97    1
    52   227   229    1
    53   227   226    1
    54    87    86   ar
    55    87    85   ar
    56    74    72   ar
    57   100    99    2
    58    99    98    1
    59    99   104   am
    60   168   167    2
    61    98    97    1
    62   167   166    1
    63   105   104    1
    64   105   106    1
    65    73    71   ar
    66   186   187    1
    67   186   185    1
    68    33    31    1
    69     3     4    2
    70   188   187    2
    71    86    84   ar
    72   166   165    1
    73   226   223    1
    74   212   211    1
    75    31    30    1
    76    85    83   ar
    77   185   176   am
    78    72    70   ar
    79   211   213    1
    80   211   208    1
    81    71    70   ar
    82   183   181   ar
    83   183   184   ar
    84    30    27    1
    85   181   179   ar
    86   106   107    2
    87    84    82   ar
    88    70    69    1
    89   223   224    1
    90   223   222    1
    91   209   210    2
    92   209   208    1
    93    83    82   ar
    94   224   225    2
    95   176   177    2
    96   176   175    1
    97   208   207    1
    98   184   182   ar
    99    82    81    1
   100   179   178    1
   101   179   180   ar
   102   178   175    1
   103   120   118   ar
   104   120   121   ar
   105    27    28    1
   106    27    26    1
   107   222   216   am
   108   118   117   ar
   109   121   123   ar
   110   121   119   ar
   111   123   125   ar
   112    69    66    1
   113    51    50    1
   114    51    52    1
   115   207   201   am
   116   174   175    1
   117   117   119   ar
   118   117   116    1
   119   119   122   ar
   120   125   124   ar
   121    50    47    1
   122    29    28    2
   123   116   113    1
   124   236   234    1
   125   122   124   ar
   126    26    17   am
   127    47    46    1
   128    47    48    1
   129   199   200    1
   130   182   180   ar
   131   234   235    1
   132   234   231    1
   133    68    67    2
   134    46    44   am
   135   216   217    2
   136   216   215    1
   137    81    78    1
   138   201   202    2
   139   201   200    1
   140    55    54    1
   141   232   233    2
   142   232   231    1
   143    66    67    1
   144    66    65    1
   145    67    77   am
   146    52    53    1
   147    44    45    2
   148    44    43    1
   149   214   215    1
   150    17    18    2
   151    17    16    1
   152    49    48    2
   153   200   203    1
   154    77    78    1
   155    78    79    1
   156   113   112    1
   157   113   114    1
   158    43    42    1
   159   231   230    1
   160   215   218    1
   161    19    16    1
   162    19    20    1
   163   218   219    1
   164    54    53    2
   165    54    56    1
   166    65    59   am
   167    16    15    1
   168    22    20   ar
   169    22    24   ar
   170   203   204    1
   171    42    36   am
   172   114   115    2
   173    20    21   ar
   174   220   219    1
   175    79    80    2
   176   219   221    1
   177    24    25   ar
   178   204   206    1
   179   204   205    1
   180    59    60    2
   181    59    58    1
   182    34    35    1
   183    36    37    2
   184    36    35    1
   185    57    58    1
   186    21    23   ar
   187    35    38    1
   188    61    58    1
   189    61    62    1
   190    64    62    1
   191    62    63    1
   192    25    23   ar
   193    38    40    1
   194    38    39    1
   195   126   127    1
   196   130   127    1
   197   130   131    1
   198   127   128    1
   199    39    41    1
   200   131   133   ar
   201   131   132   ar
   202   133   135   ar
   203   128   129    2
   204   237   238    1
   205   243   245   ar
   206   243   242   ar
   207   132   134   ar
   208   135   136   ar
   209   238   241    1
   210   238   239    1
   211   245   247   ar
   212   256   254    1
   213   241   242    1
   214   242   244   ar
   215   134   136   ar
   216   240   239    2
   217   254   255    1
   218   254   253    1
   219   249   250    1
   220   247   248    1
   221   247   246   ar
   222    95    94    1
   223   250   253    1
   224   250   251    1
   225   244   246   ar
   226   157   155    1
   227    96    94    1
   228    94    93    1
   229   251   252    2
   230   156   155    1
   231    93    90    1
   232    90    89    1
   233    90    91    1
   234   155   154    1
   235   140   139    2
   236    92    91    2
   237   149   147    1
   238   141   142    1
   239   141   138    1
   240   154   151    1
   241   139   138    1
   242   139   143   am
   243   151   150    1
   244   151   152    1
   245   138   137    1
   246   148   147    1
   247   144   147    1
   248   144   143    1
   249   144   145    1
   250   153   152    2
   251   146   145    2
