@<TRIPOS>MOLECULE
tmp/3l70C04.pdb
 153 146 0 0 0
SMALL
GASTEIGER

@<TRIPOS>ATOM
      1  N         36.1580  108.5690   75.5490 N.3    18  SER18      -0.1202
      2  CA        34.8670  109.2260   75.3900 C.3    18  SER18       0.2020
      3  C         34.6930  109.9340   74.0520 C.2    18  SER18       0.2618
      4  O         33.6200  110.4620   73.7610 O.2    18  SER18      -0.2717
      5  CB        34.6530  110.2230   76.5230 C.3    18  SER18       0.2103
      6  OG        35.7290  111.1360   76.5810 O.3    18  SER18      -0.2182
      7  N         35.7340  109.9390   73.2290 N.am   19  LEU19      -0.1979
      8  CA        35.6460  110.6010   71.9340 C.3    19  LEU19       0.1596
      9  C         36.4820  109.9910   70.8230 C.2    19  LEU19       0.2287
     10  O         36.6070  110.5810   69.7550 O.2    19  LEU19      -0.2864
     11  CB        36.0570  112.0600   72.0670 C.3    19  LEU19       0.0297
     12  CG        35.0410  113.0390   72.6180 C.3    19  LEU19       0.0022
     13  CD1       35.7040  114.4050   72.7020 C.3    19  LEU19       0.0001
     14  CD2       33.8030  113.0680   71.7170 C.3    19  LEU19       0.0001
     15  N         35.9250  105.1000   72.0090 N.3    22  LEU22      -0.1231
     16  CA        34.6330  104.8470   72.6400 C.3    22  LEU22       0.1678
     17  C         33.7300  103.9940   71.7580 C.2    22  LEU22       0.2434
     18  O         33.3630  104.3900   70.6650 O.2    22  LEU22      -0.2733
     19  CB        33.9330  106.1750   72.9260 C.3    22  LEU22       0.0284
     20  CG        32.4270  106.1090   73.1670 C.3    22  LEU22       0.0019
     21  CD1       32.1200  105.6160   74.5750 C.3    22  LEU22       0.0001
     22  CD2       31.8690  107.4970   72.9550 C.3    22  LEU22       0.0001
     23  N         33.3620  102.8070   72.2320 N.am   23  PRO23      -0.2718
     24  CA        32.4940  101.9020   71.4790 C.3    23  PRO23       0.1535
     25  C         31.0720  102.4520   71.2760 C.2    23  PRO23       0.2598
     26  O         30.3360  102.6900   72.2380 O.2    23  PRO23      -0.2715
     27  CB        32.5010  100.6340   72.3370 C.3    23  PRO23       0.0310
     28  CG        33.8290  100.6880   73.0050 C.3    23  PRO23       0.0237
     29  CD        33.9250  102.1290   73.4070 C.3    23  PRO23       0.0939
     30  N         30.6850  102.6430   70.0210 N.am   24  ALA24      -0.1978
     31  CA        29.3500  103.1480   69.7040 C.3    24  ALA24       0.1597
     32  C         28.6090  102.1600   68.8200 C.2    24  ALA24       0.2287
     33  O         29.2110  101.4830   67.9770 O.2    24  ALA24      -0.2864
     34  CB        29.4490  104.4880   68.9980 C.3    24  ALA24       0.0319
     35  N         23.2460  103.7090   65.1630 N.3    28  ILE28      -0.1245
     36  CA        22.5260  104.8530   65.6830 C.3    28  ILE28       0.1561
     37  C         22.3160  105.8800   64.5620 C.2    28  ILE28       0.2260
     38  O         23.2210  106.1560   63.7610 O.2    28  ILE28      -0.2867
     39  CB        23.2400  105.4850   66.8900 C.3    28  ILE28       0.0252
     40  CG1       24.6420  105.9380   66.4920 C.3    28  ILE28       0.0019
     41  CG2       23.2760  104.4830   68.0430 C.3    28  ILE28       0.0019
     42  CD1       25.4090  106.5880   67.6160 C.3    28  ILE28       0.0001
     43  N         20.5340  110.5590   67.2150 N.3    32  TRP32      -0.1241
     44  CA        21.5740  110.5160   68.2420 C.3    32  TRP32       0.1605
     45  C         22.5570  111.6810   68.0720 C.2    32  TRP32       0.2264
     46  O         23.5120  111.8270   68.8350 O.2    32  TRP32      -0.2867
     47  CB        22.3260  109.1780   68.1790 C.3    32  TRP32       0.0550
     48  CG        21.7530  108.1210   69.0810 C.ar   32  TRP32       0.0003
     49  CD1       22.2550  107.7110   70.2790 C.ar   32  TRP32       0.0946
     50  CD2       20.5270  107.4010   68.8940 C.ar   32  TRP32       0.0152
     51  NE1       21.4200  106.7880   70.8540 N.ar   32  TRP32      -0.2442
     52  CE2       20.3500  106.5790   70.0250 C.ar   32  TRP32       0.0810
     53  CE3       19.5570  107.3750   67.8810 C.ar   32  TRP32       0.0012
     54  CZ2       19.2370  105.7370   70.1760 C.ar   32  TRP32       0.0191
     55  CZ3       18.4480  106.5350   68.0330 C.ar   32  TRP32       0.0001
     56  CH2       18.3000  105.7310   69.1710 C.ar   32  TRP32       0.0015
     57  N         22.7950  115.0510   71.0750 N.3    35  GLY35      -0.1210
     58  CA        23.6080  115.1920   72.2740 C.3    35  GLY35       0.1956
     59  C         24.8000  116.1120   71.9860 C.2    35  GLY35       0.2612
     60  O         25.0330  117.1250   72.6510 O.2    35  GLY35      -0.2717
     61  N         25.5560  115.7740   70.9580 N.am   36  SER36      -0.1952
     62  CA        26.7020  116.5900   70.6020 C.3    36  SER36       0.1924
     63  C         26.2990  118.0240   70.2610 C.2    36  SER36       0.2314
     64  O         27.0030  118.9640   70.6200 O.2    36  SER36      -0.2863
     65  CB        27.4540  115.9630   69.4280 C.3    36  SER36       0.2116
     66  OG        26.5840  115.7690   68.3310 O.3    36  SER36      -0.2180
     67  N         25.7820  119.9290   73.3890 N.3    39  ALA39      -0.1231
     68  CA        27.0540  120.3070   74.0060 C.3    39  ALA39       0.1694
     69  C         27.6470  121.5020   73.3000 C.2    39  ALA39       0.2591
     70  O         28.0350  122.4740   73.9450 O.2    39  ALA39      -0.2718
     71  CB        28.0330  119.1480   73.9700 C.3    39  ALA39       0.0304
     72  N         27.7200  121.4400   71.9770 N.am   40  VAL40      -0.1980
     73  CA        28.2800  122.5370   71.2050 C.3    40  VAL40       0.1595
     74  C         27.4360  123.7900   71.4140 C.2    40  VAL40       0.2287
     75  O         27.9280  124.9190   71.5390 O.2    40  VAL40      -0.2864
     76  CB        28.2940  122.1750   69.7290 C.3    40  VAL40       0.0276
     77  CG1       28.6270  123.3920   68.8930 C.3    40  VAL40       0.0022
     78  CG2       29.3040  121.0760   69.4990 C.3    40  VAL40       0.0022
     79  N         28.4280  125.3420   74.6060 N.3    43  MET43      -0.1245
     80  CA        29.7060  126.0430   74.5950 C.3    43  MET43       0.1570
     81  C         29.5390  127.3830   73.9190 C.2    43  MET43       0.2261
     82  O         30.1280  128.3720   74.3340 O.2    43  MET43      -0.2867
     83  CB        30.7670  125.2170   73.8750 C.3    43  MET43       0.0387
     84  CG        31.1990  123.9700   74.6490 C.3    43  MET43       0.0595
     85  SD        32.3160  122.8260   73.6980 S.3    43  MET43      -0.1393
     86  CE        33.9910  123.5190   74.1730 C.3    43  MET43       0.0692
     87  N         26.9530  112.4340   80.8810 N.3   198  LEU198     -0.1245
     88  CA        27.7510  111.5460   80.0470 C.3   198  LEU198      0.1561
     89  C         28.4620  110.4520   80.8410 C.2   198  LEU198      0.2260
     90  O         28.7420  109.3810   80.3040 O.2   198  LEU198     -0.2867
     91  CB        28.7870  112.3430   79.2730 C.3   198  LEU198      0.0270
     92  CG        28.3130  113.3420   78.2240 C.3   198  LEU198      0.0019
     93  CD1       29.5220  113.9850   77.5190 C.3   198  LEU198      0.0001
     94  CD2       27.4330  112.6100   77.2280 C.3   198  LEU198      0.0001
     95  N         25.9460  107.8210   81.4080 N.3   201  LEU201     -0.1231
     96  CA        25.7490  107.2570   80.0860 C.3   201  LEU201      0.1693
     97  C         26.8250  106.2460   79.7270 C.2   201  LEU201      0.2592
     98  O         26.5050  105.1560   79.2840 O.2   201  LEU201     -0.2718
     99  CB        25.7220  108.3450   79.0080 C.3   201  LEU201      0.0284
    100  CG        25.5580  107.7320   77.6090 C.3   201  LEU201      0.0019
    101  CD1       24.1640  107.1530   77.4910 C.3   201  LEU201      0.0001
    102  CD2       25.8070  108.7620   76.5210 C.3   201  LEU201      0.0001
    103  N         28.0950  106.5930   79.9110 N.am  202  HIS202     -0.1976
    104  CA        29.1740  105.6750   79.5640 C.3   202  HIS202      0.1656
    105  C         29.1860  104.3600   80.3320 C.2   202  HIS202      0.2291
    106  O         29.9130  103.4350   79.9650 O.2   202  HIS202     -0.2864
    107  CB        30.5220  106.3700   79.6960 C.3   202  HIS202      0.0771
    108  CG        30.7520  107.4180   78.6530 C.ar  202  HIS202      0.0820
    109  ND1       31.8350  108.2750   78.6760 N.ar  202  HIS202     -0.2267
    110  CD2       30.0380  107.7460   77.5480 C.ar  202  HIS202      0.1154
    111  CE1       31.7760  109.0840   77.6330 C.ar  202  HIS202      0.1986
    112  NE2       30.6970  108.7830   76.9340 N.ar  202  HIS202     -0.2212
    113  N         26.7040  102.8000   77.6600 N.3   205  GLY205     -0.1210
    114  CA        27.0310  103.0480   76.2720 C.3   205  GLY205      0.1956
    115  C         25.7060  103.4260   75.6450 C.2   205  GLY205      0.2612
    116  O         24.6540  103.3040   76.2980 O.2   205  GLY205     -0.2717
    117  N         25.7300  103.8790   74.3950 N.am  206  SER206     -0.1952
    118  CA        24.4950  104.2750   73.7230 C.3   206  SER206      0.1924
    119  C         23.5200  103.1460   73.4340 C.2   206  SER206      0.2314
    120  O         23.8960  101.9820   73.2550 O.2   206  SER206     -0.2863
    121  CB        24.8060  104.9650   72.4040 C.3   206  SER206      0.2116
    122  OG        25.5010  106.1700   72.6150 O.3   206  SER206     -0.2180
    123  N         33.8930  105.6440   67.9740 N.3   221  PHE221     -0.1241
    124  CA        33.2560  106.9360   67.8400 C.3   221  PHE221      0.1605
    125  C         33.9020  107.7220   66.7070 C.2   221  PHE221      0.2264
    126  O         33.2170  108.3810   65.9330 O.2   221  PHE221     -0.2867
    127  CB        33.3960  107.7110   69.1440 C.3   221  PHE221      0.0534
    128  CG        32.8510  109.0900   69.0700 C.ar  221  PHE221     -0.0203
    129  CD1       31.4810  109.3150   69.2060 C.ar  221  PHE221     -0.0042
    130  CD2       33.6890  110.1610   68.7660 C.ar  221  PHE221     -0.0042
    131  CE1       30.9480  110.6050   69.0290 C.ar  221  PHE221     -0.0003
    132  CE2       33.1770  111.4510   68.5860 C.ar  221  PHE221     -0.0003
    133  CZ        31.8010  111.6800   68.7140 C.ar  221  PHE221     -0.0000
    134  N         31.3240  108.6660   64.0360 N.3   225  TYR225     -0.1241
    135  CA        30.4470  109.6660   64.6100 C.3   225  TYR225      0.1605
    136  C         31.0230  111.0810   64.7020 C.2   225  TYR225      0.2264
    137  O         30.2750  112.0570   64.6840 O.2   225  TYR225     -0.2867
    138  CB        29.9440  109.1590   65.9530 C.3   225  TYR225      0.0534
    139  CG        29.0890  107.9540   65.7380 C.ar  225  TYR225     -0.0201
    140  CD1       29.5350  106.6830   66.0710 C.ar  225  TYR225     -0.0009
    141  CD2       27.8500  108.0810   65.1010 C.ar  225  TYR225     -0.0009
    142  CE1       28.7600  105.5550   65.7650 C.ar  225  TYR225      0.0417
    143  CE2       27.0730  106.9730   64.7920 C.ar  225  TYR225      0.0417
    144  CZ        27.5290  105.7170   65.1240 C.ar  225  TYR225      0.1957
    145  OH        26.7510  104.6310   64.8240 O.3   225  TYR225     -0.2866
    146  N         28.5960  113.5680   63.3350 N.3   229  ASP229     -0.1239
    147  CA        28.2160  114.6970   64.1620 C.3   229  ASP229      0.1674
    148  C         28.6110  116.0680   63.5870 C.2   229  ASP229      0.2266
    149  O         27.8610  117.0260   63.7080 O.2   229  ASP229     -0.2867
    150  CB        28.7910  114.5230   65.5660 C.3   229  ASP229      0.1410
    151  CG        28.0510  113.4640   66.3660 C.2   229  ASP229      0.3668
    152  OD1       28.4180  113.2530   67.5440 O.co2 229  ASP229     -0.2456
    153  OD2       27.1030  112.8440   65.8210 O.co2 229  ASP229     -0.2456
@<TRIPOS>BOND
     1   146   147    1
     2   148   149    2
     3   148   147    1
     4    38    37    2
     5   134   135    1
     6   147   150    1
     7    37    36    1
     8   135   136    1
     9   135   138    1
    10   137   136    2
    11   143   141   ar
    12   143   144   ar
    13   145   144    1
    14   141   139   ar
    15   144   142   ar
    16    35    36    1
    17   150   151    1
    18    36    39    1
    19   139   138    1
    20   139   140   ar
    21   142   140   ar
    22   153   151   ar
    23   126   125    2
    24   151   152   ar
    25    40    39    1
    26    40    42    1
    27   125   124    1
    28    39    41    1
    29    43    44    1
    30   124   123    1
    31   124   127    1
    32    53    55   ar
    33    53    50   ar
    34    33    32    2
    35    55    56   ar
    36    45    44    1
    37    45    46    2
    38    47    44    1
    39    47    48    1
    40    66    65    1
    41   132   133   ar
    42   132   130   ar
    43   133   131   ar
    44   130   128   ar
    45    32    31    1
    46    77    76    1
    47    50    48   ar
    48    50    52   ar
    49    34    31    1
    50   131   129   ar
    51   128   127    1
    52   128   129   ar
    53    48    49   ar
    54    56    54   ar
    55    65    62    1
    56    78    76    1
    57    31    30    1
    58    76    73    1
    59    10     9    2
    60    30    25   am
    61    52    54   ar
    62    52    51   ar
    63    63    62    1
    64    63    64    2
    65    49    51   ar
    66    62    61    1
    67    18    17    2
    68     9     8    1
    69    61    59   am
    70    57    58    1
    71    73    74    1
    72    73    72    1
    73    25    24    1
    74    25    26    2
    75    74    75    2
    76    24    23    1
    77    24    27    1
    78    14    12    1
    79    17    23   am
    80    17    16    1
    81     8    11    1
    82     8     7    1
    83    72    69   am
    84    59    58    1
    85    59    60    2
    86    15    16    1
    87    11    12    1
    88    23    29    1
    89    27    28    1
    90   121   122    1
    91   121   118    1
    92    12    13    1
    93    16    19    1
    94    19    20    1
    95    22    20    1
    96    28    29    1
    97    20    21    1
    98     7     3   am
    99   120   119    2
   100    69    70    2
   101    69    68    1
   102    67    68    1
   103   119   118    1
   104    85    86    1
   105    85    84    1
   106   118   117    1
   107     4     3    2
   108    83    80    1
   109    83    84    1
   110    81    82    2
   111    81    80    1
   112    71    68    1
   113     3     2    1
   114   117   115   am
   115    80    79    1
   116     2     1    1
   117     2     5    1
   118   115   114    1
   119   115   116    2
   120   114   113    1
   121   102   100    1
   122     5     6    1
   123   112   110   ar
   124   112   111   ar
   125    94    92    1
   126   101   100    1
   127    93    92    1
   128   110   108   ar
   129   100    99    1
   130   111   109   ar
   131    92    91    1
   132   108   109   ar
   133   108   107    1
   134    99    96    1
   135    91    88    1
   136    98    97    2
   137   104   107    1
   138   104   103    1
   139   104   105    1
   140    97   103   am
   141    97    96    1
   142   106   105    2
   143    88    89    1
   144    88    87    1
   145    96    95    1
   146    90    89    2
