@<TRIPOS>MOLECULE
tmp/3l71C04.pdb
 207 201 0 0 0
SMALL
GASTEIGER

@<TRIPOS>ATOM
      1  N         15.7690  120.9020   83.3990 N.3   122  LEU122     -0.1245
      2  CA        15.2840  121.8870   84.3550 C.3   122  LEU122      0.1561
      3  C         16.2820  123.0330   84.4990 C.2   122  LEU122      0.2260
      4  O         15.9060  124.2000   84.5070 O.2   122  LEU122     -0.2867
      5  CB        15.0540  121.2500   85.7170 C.3   122  LEU122      0.0270
      6  CG        14.0520  120.1080   85.7750 C.3   122  LEU122      0.0019
      7  CD1       13.9180  119.6500   87.2180 C.3   122  LEU122      0.0001
      8  CD2       12.7270  120.5700   85.2230 C.3   122  LEU122      0.0001
      9  N         16.1200  125.3660   81.5320 N.3   125  MET125     -0.1245
     10  CA        14.9410  126.2150   81.5490 C.3   125  MET125      0.1570
     11  C         15.1420  127.3850   82.4900 C.2   125  MET125      0.2261
     12  O         14.8790  128.5250   82.1200 O.2   125  MET125     -0.2867
     13  CB        13.7220  125.4120   81.9640 C.3   125  MET125      0.0387
     14  CG        13.4140  124.2710   81.0100 C.3   125  MET125      0.0595
     15  SD        11.8990  123.3510   81.4120 S.3   125  MET125     -0.1393
     16  CE        10.8610  123.8950   80.0520 C.3   125  MET125      0.0692
     17  N         17.5330  129.8470   80.7910 N.3   128  ALA128     -0.1231
     18  CA        16.8830  130.6670   79.7680 C.3   128  ALA128      0.1694
     19  C         15.8820  131.6520   80.3740 C.2   128  ALA128      0.2592
     20  O         15.7730  132.7800   79.9100 O.2   128  ALA128     -0.2718
     21  CB        16.2050  129.7910   78.7240 C.3   128  ALA128      0.0304
     22  N         15.1800  131.2340   81.4280 N.am  129  PHE129     -0.1976
     23  CA        14.2070  132.0900   82.0780 C.3   129  PHE129      0.1639
     24  C         14.8440  133.3430   82.6510 C.2   129  PHE129      0.2290
     25  O         14.4020  134.4420   82.3580 O.2   129  PHE129     -0.2864
     26  CB        13.5080  131.3430   83.1980 C.3   129  PHE129      0.0560
     27  CG        12.5250  132.1870   83.9520 C.ar  129  PHE129     -0.0200
     28  CD1       11.3100  132.5500   83.3650 C.ar  129  PHE129     -0.0042
     29  CD2       12.8120  132.6300   85.2430 C.ar  129  PHE129     -0.0042
     30  CE1       10.3920  133.3420   84.0530 C.ar  129  PHE129     -0.0003
     31  CE2       11.9020  133.4300   85.9490 C.ar  129  PHE129     -0.0003
     32  CZ        10.6920  133.7870   85.3580 C.ar  129  PHE129     -0.0000
     33  N         16.4150  135.6450   79.9890 N.3   132  TYR132     -0.1227
     34  CA        15.4200  136.4340   79.2770 C.3   132  TYR132      0.1736
     35  C         15.1140  137.7620   79.9570 C.2   132  TYR132      0.2595
     36  O         14.7120  138.7200   79.3030 O.2   132  TYR132     -0.2718
     37  CB        14.1200  135.6340   79.1390 C.3   132  TYR132      0.0548
     38  CG        13.1550  136.2310   78.1550 C.ar  132  TYR132     -0.0200
     39  CD1       13.4390  136.2280   76.7940 C.ar  132  TYR132     -0.0009
     40  CD2       11.9570  136.8170   78.5800 C.ar  132  TYR132     -0.0009
     41  CE1       12.5570  136.7880   75.8790 C.ar  132  TYR132      0.0417
     42  CE2       11.0660  137.3800   77.6710 C.ar  132  TYR132      0.0417
     43  CZ        11.3740  137.3570   76.3200 C.ar  132  TYR132      0.1957
     44  OH        10.4970  137.8650   75.3950 O.3   132  TYR132     -0.2866
     45  N         15.2920  137.8280   81.2670 N.am  133  VAL133     -0.1980
     46  CA        15.0040  139.0610   81.9780 C.3   133  VAL133      0.1595
     47  C         16.0610  140.1410   81.7800 C.2   133  VAL133      0.2287
     48  O         15.7540  141.3230   81.8070 O.2   133  VAL133     -0.2864
     49  CB        14.8820  138.8030   83.4920 C.3   133  VAL133      0.0276
     50  CG1       14.5200  140.0730   84.2180 C.3   133  VAL133      0.0022
     51  CG2       13.8400  137.7560   83.7500 C.3   133  VAL133      0.0022
     52  N          8.4570  142.3380   77.8910 N.3   139  MET139     -0.1230
     53  CA         8.1490  140.9400   78.1400 C.3   139  MET139      0.1702
     54  C          9.1100  140.3890   79.1640 C.2   139  MET139      0.2593
     55  O          8.7930  139.4220   79.8400 O.2   139  MET139     -0.2718
     56  CB         8.2270  140.1050   76.8650 C.3   139  MET139      0.0401
     57  CG         7.3190  138.8800   76.9270 C.3   139  MET139      0.0596
     58  SD         5.5260  139.2690   77.3800 S.3   139  MET139     -0.1393
     59  CE         4.9050  139.7690   75.7640 C.3   139  MET139      0.0692
     60  N         10.2820  141.0110   79.2810 N.am  140  SER140     -0.1952
     61  CA        11.2920  140.5760   80.2520 C.3   140  SER140      0.1924
     62  C         10.6870  140.7640   81.6290 C.2   140  SER140      0.2314
     63  O         10.5600  139.8380   82.4210 O.2   140  SER140     -0.2863
     64  CB        12.5580  141.4400   80.1530 C.3   140  SER140      0.2116
     65  OG        13.1430  141.4070   78.8580 O.3   140  SER140     -0.2180
     66  N          7.0680  138.9320   82.0700 N.3   143  GLY143     -0.1210
     67  CA         7.1800  137.4920   82.1600 C.3   143  GLY143      0.1956
     68  C          7.6740  137.1810   83.5660 C.2   143  GLY143      0.2611
     69  O          7.1250  136.3190   84.2650 O.2   143  GLY143     -0.2717
     70  N          8.7080  137.8980   83.9940 N.am  144  ALA144     -0.1979
     71  CA         9.2550  137.6890   85.3230 C.3   144  ALA144      0.1597
     72  C          8.1610  137.8500   86.3860 C.2   144  ALA144      0.2287
     73  O          8.0400  137.0340   87.3150 O.2   144  ALA144     -0.2864
     74  CB        10.3800  138.6790   85.5830 C.3   144  ALA144      0.0319
     75  N          4.6790  137.8310   86.0350 N.3   146  VAL146     -0.1231
     76  CA         3.6410  136.8210   85.9730 C.3   146  VAL146      0.1692
     77  C          4.1120  135.5350   86.6510 C.2   146  VAL146      0.2591
     78  O          3.5740  135.1220   87.6700 O.2   146  VAL146     -0.2718
     79  CB         3.2880  136.4980   84.5190 C.3   146  VAL146      0.0266
     80  CG1        2.5540  135.1870   84.4460 C.3   146  VAL146      0.0020
     81  CG2        2.4530  137.6180   83.9300 C.3   146  VAL146      0.0020
     82  N          5.1370  134.9130   86.0820 N.am  147  ILE147     -0.1980
     83  CA         5.6500  133.6610   86.6050 C.3   147  ILE147      0.1595
     84  C          6.0560  133.6450   88.0650 C.2   147  ILE147      0.2287
     85  O          5.6270  132.7620   88.7970 O.2   147  ILE147     -0.2864
     86  CB         6.8180  133.1730   85.7710 C.3   147  ILE147      0.0276
     87  CG1        6.3800  133.0260   84.3060 C.3   147  ILE147      0.0022
     88  CG2        7.3050  131.8490   86.3030 C.3   147  ILE147      0.0022
     89  CD1        5.3960  131.8940   84.0460 C.3   147  ILE147      0.0001
     90  N          3.2500  133.4270   90.6420 N.3   150  LEU150     -0.1231
     91  CA         2.5220  132.1800   90.7500 C.3   150  LEU150      0.1693
     92  C          2.8160  131.5240   92.0770 C.2   150  LEU150      0.2592
     93  O          1.9340  130.9580   92.7070 O.2   150  LEU150     -0.2718
     94  CB         2.9040  131.2170   89.6220 C.3   150  LEU150      0.0284
     95  CG         2.5470  131.6710   88.2090 C.3   150  LEU150      0.0019
     96  CD1        2.8150  130.5510   87.2100 C.3   150  LEU150      0.0001
     97  CD2        1.0850  132.0680   88.1850 C.3   150  LEU150      0.0001
     98  N          4.0580  131.6300   92.5200 N.am  151  PHE151     -0.1976
     99  CA         4.4430  130.9700   93.7490 C.3   151  PHE151      0.1639
    100  C          3.9420  131.5410   95.0490 C.2   151  PHE151      0.2290
    101  O          4.0430  130.8880   96.0900 O.2   151  PHE151     -0.2864
    102  CB         5.9550  130.7870   93.7590 C.3   151  PHE151      0.0560
    103  CG         6.4400  130.0160   92.5720 C.ar  151  PHE151     -0.0200
    104  CD1        7.1150  130.6540   91.5460 C.ar  151  PHE151     -0.0042
    105  CD2        6.1200  128.6640   92.4290 C.ar  151  PHE151     -0.0042
    106  CE1        7.4610  129.9620   90.3940 C.ar  151  PHE151     -0.0003
    107  CE2        6.4600  127.9650   91.2830 C.ar  151  PHE151     -0.0003
    108  CZ         7.1300  128.6120   90.2620 C.ar  151  PHE151     -0.0000
    109  N          0.8750  138.7450   77.4140 N.3   269  ILE269     -0.1231
    110  CA         2.0410  138.2550   78.1140 C.3   269  ILE269      0.1692
    111  C          2.2100  136.7690   77.8130 C.2   269  ILE269      0.2592
    112  O          1.5390  135.9290   78.4080 O.2   269  ILE269     -0.2718
    113  CB         1.8760  138.4200   79.6220 C.3   269  ILE269      0.0266
    114  CG1        1.8660  139.9020   79.9790 C.3   269  ILE269      0.0019
    115  CG2        2.9680  137.6600   80.3630 C.3   269  ILE269      0.0020
    116  CD1        1.7790  140.1720   81.4760 C.3   269  ILE269      0.0001
    117  N          3.1010  136.4380   76.8880 N.am  270  LYS270     -0.1966
    118  CA         3.3250  135.0450   76.5550 C.3   270  LYS270      0.1713
    119  C          4.8250  134.7910   76.4460 C.2   270  LYS270      0.2458
    120  O          5.5960  135.6850   76.1210 O.2   270  LYS270     -0.2730
    121  CB         2.6160  134.6930   75.2380 C.3   270  LYS270      0.0311
    122  CG         3.0330  135.5410   74.0550 C.3   270  LYS270      0.0038
    123  CD         2.6190  134.8820   72.7720 C.3   270  LYS270      0.0206
    124  CE         3.6600  135.0860   71.6590 C.3   270  LYS270      0.1093
    125  NZ         5.0060  134.4220   71.9410 N.3   270  LYS270     -0.1314
    126  N          5.2610  133.5640   76.7220 N.am  271  PRO271     -0.2716
    127  CA         6.6780  133.2130   76.6530 C.3   271  PRO271      0.1536
    128  C          7.2630  132.9790   75.2800 C.2   271  PRO271      0.2598
    129  O          6.6520  133.2710   74.2570 O.2   271  PRO271     -0.2715
    130  CB         6.7520  131.9640   77.5140 C.3   271  PRO271      0.0310
    131  CG         5.4410  131.3260   77.2700 C.3   271  PRO271      0.0237
    132  CD         4.4940  132.4910   77.3660 C.3   271  PRO271      0.0939
    133  N          8.4860  132.4690   75.2810 N.am  272  GLU272     -0.1978
    134  CA         9.1960  132.1300   74.0630 C.3   272  GLU272      0.1602
    135  C          8.6020  130.8100   73.5970 C.2   272  GLU272      0.2287
    136  O          8.0870  130.0260   74.3890 O.2   272  GLU272     -0.2864
    137  CB        10.6730  131.9740   74.3550 C.3   272  GLU272      0.0415
    138  CG        11.3930  133.2930   74.5360 C.3   272  GLU272      0.1163
    139  CD        11.4570  134.1010   73.2400 C.2   272  GLU272      0.3649
    140  OE1       12.0480  133.6080   72.2460 O.co2 272  GLU272     -0.2457
    141  OE2       10.9100  135.2300   73.2150 O.co2 272  GLU272     -0.2457
    142  N          9.5260  127.9000   73.1420 N.3   274  TYR274     -0.1227
    143  CA         9.8730  126.7040   73.9100 C.3   274  TYR274      0.1736
    144  C          9.2630  126.5680   75.2890 C.2   274  TYR274      0.2595
    145  O          9.4920  125.5690   75.9650 O.2   274  TYR274     -0.2718
    146  CB        11.4040  126.5410   73.9850 C.3   274  TYR274      0.0548
    147  CG        12.1670  127.7670   74.4530 C.ar  274  TYR274     -0.0200
    148  CD1       12.2650  128.0820   75.8150 C.ar  274  TYR274     -0.0009
    149  CD2       12.8070  128.6050   73.5290 C.ar  274  TYR274     -0.0009
    150  CE1       12.9900  129.2050   76.2480 C.ar  274  TYR274      0.0417
    151  CE2       13.5320  129.7260   73.9440 C.ar  274  TYR274      0.0417
    152  CZ        13.6180  130.0140   75.3060 C.ar  274  TYR274      0.1957
    153  OH        14.3380  131.1000   75.7240 O.3   274  TYR274     -0.2866
    154  N          8.4710  127.5510   75.6970 N.am  275  PHE275     -0.1976
    155  CA         7.8100  127.5150   77.0030 C.3   275  PHE275      0.1639
    156  C          6.2840  127.5240   76.8390 C.2   275  PHE275      0.2290
    157  O          5.5510  127.2630   77.7870 O.2   275  PHE275     -0.2864
    158  CB         8.1970  128.7440   77.8160 C.3   275  PHE275      0.0560
    159  CG         9.4560  128.5970   78.5940 C.ar  275  PHE275     -0.0200
    160  CD1       10.0020  129.6910   79.2390 C.ar  275  PHE275     -0.0042
    161  CD2       10.0950  127.3800   78.7050 C.ar  275  PHE275     -0.0042
    162  CE1       11.1650  129.5840   79.9850 C.ar  275  PHE275     -0.0003
    163  CE2       11.2690  127.2680   79.4550 C.ar  275  PHE275     -0.0003
    164  CZ        11.7970  128.3830   80.0940 C.ar  275  PHE275     -0.0000
    165  N          4.0020  124.7810   78.0680 N.3   278  ALA278     -0.1231
    166  CA         3.8420  124.7640   79.5270 C.3   278  ALA278      0.1694
    167  C          2.9370  125.8960   79.9920 C.2   278  ALA278      0.2592
    168  O          2.2110  125.7980   80.9950 O.2   278  ALA278     -0.2718
    169  CB         5.2000  124.8960   80.2070 C.3   278  ALA278      0.0304
    170  N          3.0170  126.9940   79.2660 N.am  279  TYR279     -0.1976
    171  CA         2.2010  128.1260   79.5950 C.3   279  TYR279      0.1639
    172  C          0.7290  127.7090   79.3840 C.2   279  TYR279      0.2290
    173  O         -0.1530  128.0670   80.1760 O.2   279  TYR279     -0.2864
    174  CB         2.5760  129.2740   78.6870 C.3   279  TYR279      0.0560
    175  CG         2.1110  130.6060   79.1840 C.ar  279  TYR279     -0.0198
    176  CD1        2.3550  131.0130   80.4940 C.ar  279  TYR279     -0.0009
    177  CD2        1.5190  131.5090   78.3110 C.ar  279  TYR279     -0.0009
    178  CE1        2.0290  132.2960   80.9120 C.ar  279  TYR279      0.0417
    179  CE2        1.1920  132.7870   78.7080 C.ar  279  TYR279      0.0417
    180  CZ         1.4480  133.1770   79.9970 C.ar  279  TYR279      0.1957
    181  OH         1.1470  134.4770   80.3340 O.3   279  TYR279     -0.2866
    182  N          1.7200  123.1330   86.0920 N.3   295  LEU295     -0.1231
    183  CA         2.8640  123.6400   85.3410 C.3   295  LEU295      0.1693
    184  C          4.0910  122.8160   85.6980 C.2   295  LEU295      0.2591
    185  O          4.7420  122.2360   84.8270 O.2   295  LEU295     -0.2718
    186  CB         3.1120  125.1160   85.6790 C.3   295  LEU295      0.0284
    187  CG         4.2890  125.8380   85.0060 C.3   295  LEU295      0.0019
    188  CD1        4.3040  125.5670   83.4940 C.3   295  LEU295      0.0001
    189  CD2        4.1850  127.3350   85.2950 C.3   295  LEU295      0.0001
    190  N          4.3970  122.7800   86.9920 N.am  296  ALA296     -0.1980
    191  CA         5.5140  122.0260   87.5170 C.3   296  ALA296      0.1597
    192  C          5.4620  120.6070   86.9580 C.2   296  ALA296      0.2287
    193  O          6.4240  120.1160   86.3800 O.2   296  ALA296     -0.2864
    194  CB         5.4180  121.9850   89.0290 C.3   296  ALA296      0.0319
    195  N          4.1110  119.4250   84.3710 N.3   298  SER298     -0.1202
    196  CA         4.2850  119.2920   82.9320 C.3   298  SER298      0.2020
    197  C          5.7010  118.8690   82.5720 C.2   298  SER298      0.2618
    198  O          5.9250  118.2730   81.5310 O.2   298  SER298     -0.2717
    199  CB         3.9650  120.6030   82.2320 C.3   298  SER298      0.2103
    200  OG         4.9720  121.5510   82.4990 O.3   298  SER298     -0.2182
    201  N          6.6620  119.1850   83.4260 N.am  299  VAL299     -0.1979
    202  CA         8.0380  118.8250   83.1530 C.3   299  VAL299      0.1595
    203  C          8.5070  117.7420   84.1100 C.2   299  VAL299      0.2287
    204  O          9.2140  116.8210   83.7100 O.2   299  VAL299     -0.2864
    205  CB         8.9520  120.0420   83.2740 C.3   299  VAL299      0.0276
    206  CG1       10.3910  119.6180   83.1270 C.3   299  VAL299      0.0022
    207  CG2        8.6130  121.0300   82.1980 C.3   299  VAL299      0.0022
@<TRIPOS>BOND
     1   124   125    1
     2   124   123    1
     3   140   139   ar
     4   123   122    1
     5   142   143    1
     6   141   139   ar
     7   139   138    1
     8   149   151   ar
     9   149   147   ar
    10   135   134    1
    11   135   136    2
    12   143   146    1
    13   143   144    1
    14   151   152   ar
    15   146   147    1
    16   122   121    1
    17   134   137    1
    18   134   133    1
    19   129   128    2
    20   137   138    1
    21   147   148   ar
    22   121   118    1
    23   128   133   am
    24   128   127    1
    25   144   154   am
    26   144   145    2
    27   152   153    1
    28   152   150   ar
    29    44    43    1
    30   154   155    1
    31    59    58    1
    32   148   150   ar
    33    41    43   ar
    34    41    39   ar
    35   120   119    2
    36    43    42   ar
    37   119   118    1
    38   119   126   am
    39   118   117    1
    40   127   126    1
    41   127   130    1
    42   126   132    1
    43    39    38   ar
    44   156   155    1
    45   156   157    2
    46    56    57    1
    47    56    53    1
    48   117   111   am
    49    57    58    1
    50   155   158    1
    51   131   132    1
    52   131   130    1
    53   109   110    1
    54    42    40   ar
    55   111   110    1
    56   111   112    2
    57   158   159    1
    58    52    53    1
    59   165   166    1
    60   110   113    1
    61    53    54    1
    62    38    40   ar
    63    38    37    1
    64   177   179   ar
    65   177   175   ar
    66   159   161   ar
    67   159   160   ar
    68   174   175    1
    69   174   171    1
    70   161   163   ar
    71   179   180   ar
    72    21    18    1
    73    65    64    1
    74    37    34    1
    75    54    60   am
    76    54    55    2
    77   175   176   ar
    78   160   162   ar
    79   170   171    1
    80   170   167   am
    81    34    35    1
    82    34    33    1
    83    60    61    1
    84    36    35    2
    85   172   171    1
    86   172   173    2
    87   163   164   ar
    88   166   167    1
    89   166   169    1
    90   113   114    1
    91   113   115    1
    92    18    19    1
    93    18    17    1
    94    20    19    2
    95    35    45   am
    96   114   116    1
    97   162   164   ar
    98   167   168    2
    99   180   181    1
   100   180   178   ar
   101    16    15    1
   102    64    61    1
   103    61    62    1
   104    19    22   am
   105   176   178   ar
   106    14    15    1
   107    14    13    1
   108    45    46    1
   109    22    23    1
   110   198   197    2
   111     9    10    1
   112    10    13    1
   113    10    11    1
   114    62    63    2
   115    47    48    2
   116    47    46    1
   117    46    49    1
   118    66    67    1
   119    23    24    1
   120    23    26    1
   121    12    11    2
   122    67    68    1
   123   207   205    1
   124   199   200    1
   125   199   196    1
   126    25    24    2
   127   197   196    1
   128   197   201   am
   129   196   195    1
   130   206   205    1
   131   202   205    1
   132   202   201    1
   133   202   203    1
   134    26    27    1
   135    28    27   ar
   136    28    30   ar
   137     1     2    1
   138    49    51    1
   139    49    50    1
   140   188   187    1
   141    68    70   am
   142    68    69    2
   143   204   203    2
   144    81    79    1
   145    27    29   ar
   146    70    71    1
   147    89    87    1
   148    30    32   ar
   149    87    86    1
   150     2     3    1
   151     2     5    1
   152    80    79    1
   153     3     4    2
   154    79    76    1
   155   185   184    2
   156   187   189    1
   157   187   186    1
   158     8     6    1
   159    29    31   ar
   160    71    74    1
   161    71    72    1
   162   183   186    1
   163   183   184    1
   164   183   182    1
   165    32    31   ar
   166   184   190   am
   167     5     6    1
   168    86    88    1
   169    86    83    1
   170     6     7    1
   171    76    75    1
   172    76    77    1
   173    82    83    1
   174    82    77   am
   175   193   192    2
   176    72    73    2
   177    83    84    1
   178    77    78    2
   179   192   191    1
   180   190   191    1
   181    96    95    1
   182   191   194    1
   183    84    85    2
   184    97    95    1
   185    95    94    1
   186    94    91    1
   187   108   106   ar
   188   108   107   ar
   189   106   104   ar
   190    90    91    1
   191    91    92    1
   192   107   105   ar
   193   104   103   ar
   194    92    98   am
   195    92    93    2
   196   105   103   ar
   197    98    99    1
   198   103   102    1
   199    99   102    1
   200    99   100    1
   201   100   101    2
