@<TRIPOS>MOLECULE
tmp/3l73M04.pdb
 167 163 0 0 0
SMALL
GASTEIGER

@<TRIPOS>ATOM
      1  N         46.3470  135.5800   91.1870 N.3   124  MET124     -0.1230
      2  CA        46.8900  136.9350   91.1580 C.3   124  MET124      0.1702
      3  C         46.0090  137.8190   90.2940 C.2   124  MET124      0.2592
      4  O         45.5370  138.8720   90.7470 O.2   124  MET124     -0.2718
      5  CB        48.3120  136.9250   90.6120 C.3   124  MET124      0.0401
      6  CG        49.3110  136.2960   91.5850 C.3   124  MET124      0.0596
      7  SD        51.0060  136.2190   90.9580 S.3   124  MET124     -0.1393
      8  CE        51.5960  137.8650   91.3750 C.3   124  MET124      0.0692
      9  N         45.7760  137.3760   89.0540 N.am  125  ALA125     -0.1980
     10  CA        44.9260  138.1110   88.1210 C.3   125  ALA125      0.1597
     11  C         43.5520  138.3260   88.7480 C.2   125  ALA125      0.2287
     12  O         43.0130  139.4270   88.7120 O.2   125  ALA125     -0.2864
     13  CB        44.7900  137.3510   86.8230 C.3   125  ALA125      0.0319
     14  N         42.6070  138.6410   91.8430 N.3   127  ALA127     -0.1231
     15  CA        42.6230  139.7130   92.8470 C.3   127  ALA127      0.1694
     16  C         42.8860  141.0570   92.1960 C.2   127  ALA127      0.2592
     17  O         42.2390  142.0460   92.5150 O.2   127  ALA127     -0.2718
     18  CB        43.6690  139.4350   93.9210 C.3   127  ALA127      0.0304
     19  N         43.8290  141.0950   91.2730 N.am  128  PHE128     -0.1976
     20  CA        44.1250  142.3460   90.6230 C.3   128  PHE128      0.1639
     21  C         42.8760  143.0190   90.0520 C.2   128  PHE128      0.2290
     22  O         42.6880  144.2220   90.2220 O.2   128  PHE128     -0.2864
     23  CB        45.1320  142.1370   89.5100 C.3   128  PHE128      0.0560
     24  CG        45.5930  143.4060   88.8970 C.ar  128  PHE128     -0.0200
     25  CD1       46.5640  144.1750   89.5210 C.ar  128  PHE128     -0.0042
     26  CD2       45.0180  143.8660   87.7230 C.ar  128  PHE128     -0.0042
     27  CE1       46.9550  145.3900   88.9830 C.ar  128  PHE128     -0.0003
     28  CE2       45.4000  145.0840   87.1730 C.ar  128  PHE128     -0.0003
     29  CZ        46.3710  145.8470   87.8040 C.ar  128  PHE128     -0.0000
     30  N         40.1460  144.0200   92.8890 N.3   131  TYR131     -0.1227
     31  CA        40.5430  145.2300   93.5790 C.3   131  TYR131      0.1736
     32  C         40.1070  146.4750   92.8160 C.2   131  TYR131      0.2595
     33  O         39.7360  147.4670   93.4140 O.2   131  TYR131     -0.2718
     34  CB        42.0650  145.2470   93.7590 C.3   131  TYR131      0.0548
     35  CG        42.5720  146.3160   94.7160 C.ar  131  TYR131     -0.0200
     36  CD1       42.1110  146.3660   96.0360 C.ar  131  TYR131     -0.0009
     37  CD2       43.4840  147.2920   94.2940 C.ar  131  TYR131     -0.0009
     38  CE1       42.5310  147.3500   96.9110 C.ar  131  TYR131      0.0417
     39  CE2       43.9190  148.2890   95.1690 C.ar  131  TYR131      0.0417
     40  CZ        43.4330  148.3080   96.4790 C.ar  131  TYR131      0.1957
     41  OH        43.8550  149.2740   97.3680 O.3   131  TYR131     -0.2866
     42  N         40.1450  146.4440   91.4950 N.am  132  VAL132     -0.1980
     43  CA        39.7390  147.6280   90.7560 C.3   132  VAL132      0.1595
     44  C         38.2510  147.9700   90.9300 C.2   132  VAL132      0.2287
     45  O         37.8740  149.1360   90.9260 O.2   132  VAL132     -0.2864
     46  CB        40.0660  147.4750   89.2460 C.3   132  VAL132      0.0276
     47  CG1       39.5750  148.6710   88.4650 C.3   132  VAL132      0.0022
     48  CG2       41.5540  147.3270   89.0620 C.3   132  VAL132      0.0022
     49  N         43.1760  154.1670   94.9140 N.3   138  MET138     -0.1230
     50  CA        44.1900  153.1660   94.6760 C.3   138  MET138      0.1702
     51  C         43.6990  152.1540   93.6640 C.2   138  MET138      0.2593
     52  O         44.5020  151.5570   92.9440 O.2   138  MET138     -0.2718
     53  CB        44.5930  152.4810   95.9770 C.3   138  MET138      0.0401
     54  CG        46.0420  151.9870   95.9560 C.3   138  MET138      0.0596
     55  SD        47.2590  153.2760   95.4290 S.3   138  MET138     -0.1393
     56  CE        47.6360  154.0210   96.9770 C.3   138  MET138      0.0692
     57  N         42.3820  151.9640   93.6010 N.am  139  SER139     -0.1952
     58  CA        41.8040  151.0250   92.6400 C.3   139  SER139      0.1924
     59  C         42.1920  151.4680   91.2340 C.2   139  SER139      0.2314
     60  O         42.7180  150.6900   90.4310 O.2   139  SER139     -0.2863
     61  CB        40.2740  151.0150   92.7350 C.3   139  SER139      0.2116
     62  OG        39.8160  150.5400   93.9860 O.3   139  SER139     -0.2180
     63  N         46.2640  151.8490   90.6480 N.3   142  GLY142     -0.1210
     64  CA        46.9650  150.5860   90.5720 C.3   142  GLY142      0.1956
     65  C         46.6910  150.0570   89.1730 C.2   142  GLY142      0.2611
     66  O         47.6000  149.6490   88.4410 O.2   142  GLY142     -0.2717
     67  N         45.4150  150.0880   88.7940 N.am  143  ALA143     -0.1979
     68  CA        44.9900  149.6230   87.4840 C.3   143  ALA143      0.1597
     69  C         45.8230  150.3320   86.4130 C.2   143  ALA143      0.2287
     70  O         46.3860  149.6850   85.5150 O.2   143  ALA143     -0.2864
     71  CB        43.5010  149.9110   87.2880 C.3   143  ALA143      0.0319
     72  N         48.8000  152.2080   86.6580 N.3   145  VAL145     -0.1231
     73  CA        50.2200  151.9310   86.7520 C.3   145  VAL145      0.1692
     74  C         50.6370  150.6130   86.1190 C.2   145  VAL145      0.2591
     75  O         51.5350  150.5730   85.2850 O.2   145  VAL145     -0.2718
     76  CB        50.6390  151.9240   88.2190 C.3   145  VAL145      0.0266
     77  CG1       51.7970  150.9820   88.4380 C.3   145  VAL145      0.0020
     78  CG2       50.9990  153.3260   88.6360 C.3   145  VAL145      0.0020
     79  N         49.9770  149.5350   86.5140 N.am  146  ILE146     -0.1980
     80  CA        50.3240  148.2190   86.0100 C.3   146  ILE146      0.1595
     81  C         49.9180  147.8840   84.5840 C.2   146  ILE146      0.2287
     82  O         50.6490  147.1830   83.8900 O.2   146  ILE146     -0.2864
     83  CB        49.7790  147.1340   86.9330 C.3   146  ILE146      0.0276
     84  CG1       50.2740  147.3850   88.3610 C.3   146  ILE146      0.0022
     85  CG2       50.2340  145.7660   86.4510 C.3   146  ILE146      0.0022
     86  CD1       51.7820  147.3610   88.4970 C.3   146  ILE146      0.0001
     87  N         51.7780  155.2320   95.5200 N.3   268  ILE268     -0.1231
     88  CA        51.0520  154.1990   94.8050 C.3   268  ILE268      0.1692
     89  C         51.7360  152.8650   95.0810 C.2   268  ILE268      0.2592
     90  O         52.6540  152.4470   94.3570 O.2   268  ILE268     -0.2718
     91  CB        51.0570  154.4900   93.2870 C.3   268  ILE268      0.0266
     92  CG1       50.1320  155.6610   93.0000 C.3   268  ILE268      0.0019
     93  CG2       50.6200  153.2820   92.5000 C.3   268  ILE268      0.0020
     94  CD1       49.9720  155.9440   91.5400 C.3   268  ILE268      0.0001
     95  N         51.3030  152.2120   96.1530 N.am  269  LYS269     -0.1966
     96  CA        51.8650  150.9210   96.5110 C.3   269  LYS269      0.1713
     97  C         50.7380  149.8840   96.5310 C.2   269  LYS269      0.2458
     98  O         49.5860  150.2180   96.8300 O.2   269  LYS269     -0.2730
     99  CB        52.5550  150.9950   97.8770 C.3   269  LYS269      0.0311
    100  CG        51.6130  151.2070   99.0390 C.3   269  LYS269      0.0038
    101  CD        52.3820  151.1780  100.3520 C.3   269  LYS269      0.0206
    102  CE        51.4760  150.8290  101.5330 C.3   269  LYS269      0.1093
    103  NZ        50.8770  149.4560  101.3850 N.3   269  LYS269     -0.1314
    104  N         51.0580  148.6170   96.1960 N.am  270  PRO270     -0.2716
    105  CA        50.0980  147.5190   96.1640 C.3   270  PRO270      0.1536
    106  C         49.7310  146.9500   97.5170 C.2   270  PRO270      0.2598
    107  O         50.2450  147.3710   98.5480 O.2   270  PRO270     -0.2715
    108  CB        50.8100  146.4860   95.3040 C.3   270  PRO270      0.0310
    109  CG        52.2060  146.6540   95.7050 C.3   270  PRO270      0.0237
    110  CD        52.3580  148.1590   95.6720 C.3   270  PRO270      0.0939
    111  N         48.8110  145.9960   97.4940 N.am  271  GLU271     -0.1978
    112  CA        48.3920  145.2970   98.6910 C.3   271  GLU271      0.1602
    113  C         49.6170  144.4980   99.0940 C.2   271  GLU271      0.2287
    114  O         50.4590  144.1710   98.2510 O.2   271  GLU271     -0.2864
    115  CB        47.2590  144.3480   98.3610 C.3   271  GLU271      0.0415
    116  CG        45.9990  145.0570   98.0620 C.3   271  GLU271      0.1163
    117  CD        45.4890  145.7530   99.2860 C.2   271  GLU271      0.3649
    118  OE1       45.1640  145.0310  100.2540 O.co2 271  GLU271     -0.2457
    119  OE2       45.4250  147.0090   99.2860 O.co2 271  GLU271     -0.2457
    120  N         50.4300  141.3790   99.5770 N.3   273  TYR273     -0.1227
    121  CA        50.7560  140.2330   98.7320 C.3   273  TYR273      0.1736
    122  C         51.3570  140.4920   97.3570 C.2   273  TYR273      0.2595
    123  O         51.6850  139.5440   96.6530 O.2   273  TYR273     -0.2718
    124  CB        49.5420  139.3060   98.5970 C.3   273  TYR273      0.0548
    125  CG        48.2270  139.9750   98.2190 C.ar  273  TYR273     -0.0200
    126  CD1       47.9470  140.3520   96.8950 C.ar  273  TYR273     -0.0009
    127  CD2       47.2380  140.1760   99.1840 C.ar  273  TYR273     -0.0009
    128  CE1       46.7040  140.9030   96.5520 C.ar  273  TYR273      0.0417
    129  CE2       46.0020  140.7240   98.8570 C.ar  273  TYR273      0.0417
    130  CZ        45.7360  141.0790   97.5510 C.ar  273  TYR273      0.1957
    131  OH        44.4850  141.5750   97.2850 O.3   273  TYR273     -0.2866
    132  N         51.5160  141.7520   96.9650 N.am  274  PHE274     -0.1976
    133  CA        52.1130  142.0500   95.6610 C.3   274  PHE274      0.1639
    134  C         53.3740  142.8690   95.8340 C.2   274  PHE274      0.2290
    135  O         54.1530  143.0270   94.8790 O.2   274  PHE274     -0.2864
    136  CB        51.1610  142.8510   94.7740 C.3   274  PHE274      0.0560
    137  CG        50.0890  142.0400   94.1420 C.ar  274  PHE274     -0.0200
    138  CD1       49.0740  142.6600   93.4390 C.ar  274  PHE274     -0.0042
    139  CD2       50.0850  140.6610   94.2550 C.ar  274  PHE274     -0.0042
    140  CE1       48.0760  141.9200   92.8630 C.ar  274  PHE274     -0.0003
    141  CE2       49.0890  139.9120   93.6800 C.ar  274  PHE274     -0.0003
    142  CZ        48.0820  140.5430   92.9830 C.ar  274  PHE274     -0.0000
    143  N         56.7510  141.7590   94.4780 N.3   277  ALA277     -0.1231
    144  CA        56.8560  141.7930   93.0290 C.3   277  ALA277      0.1694
    145  C         56.9720  143.2030   92.5340 C.2   277  ALA277      0.2592
    146  O         57.5780  143.4650   91.5000 O.2   277  ALA277     -0.2718
    147  CB        55.6540  141.1350   92.4130 C.3   277  ALA277      0.0304
    148  N         56.3710  144.1200   93.2750 N.am  278  TYR278     -0.1976
    149  CA        56.4180  145.5230   92.8930 C.3   278  TYR278      0.1639
    150  C         57.8440  146.0020   93.0980 C.2   278  TYR278      0.2290
    151  O         58.3440  146.8360   92.3430 O.2   278  TYR278     -0.2864
    152  CB        55.4370  146.3340   93.7540 C.3   278  TYR278      0.0560
    153  CG        55.2170  147.7510   93.2760 C.ar  278  TYR278     -0.0198
    154  CD1       55.1340  148.0500   91.9080 C.ar  278  TYR278     -0.0009
    155  CD2       55.0810  148.7970   94.1900 C.ar  278  TYR278     -0.0009
    156  CE1       54.9260  149.3660   91.4640 C.ar  278  TYR278      0.0417
    157  CE2       54.8680  150.1120   93.7640 C.ar  278  TYR278      0.0417
    158  CZ        54.7970  150.3940   92.4000 C.ar  278  TYR278      0.1957
    159  OH        54.6370  151.7030   91.9850 O.3   278  TYR278     -0.2866
    160  N         59.8720  141.2300   86.5400 N.3   294  LEU294     -0.1245
    161  CA        58.6140  140.9290   87.2190 C.3   294  LEU294      0.1561
    162  C         58.1060  139.5800   86.7540 C.2   294  LEU294      0.2260
    163  O         57.8100  138.7070   87.5600 O.2   294  LEU294     -0.2867
    164  CB        57.5710  141.9950   86.9010 C.3   294  LEU294      0.0270
    165  CG        56.1670  141.7370   87.4440 C.3   294  LEU294      0.0019
    166  CD1       56.2160  141.2790   88.9040 C.3   294  LEU294      0.0001
    167  CD2       55.3740  143.0170   87.3080 C.3   294  LEU294      0.0001
@<TRIPOS>BOND
     1    82    81    2
     2    81    80    1
     3    75    74    2
     4    70    69    2
     5    80    79    1
     6    80    83    1
     7    74    79   am
     8    74    73    1
     9    69    68    1
    10    85    83    1
    11   160   161    1
    12    72    73    1
    13    73    76    1
    14   162   161    1
    15   162   163    2
    16    13    10    1
    17   164   161    1
    18   164   165    1
    19    83    84    1
    20    28    26   ar
    21    28    29   ar
    22    71    68    1
    23   167   165    1
    24   165   166    1
    25    68    67    1
    26    26    24   ar
    27    29    27   ar
    28    10    11    1
    29    10     9    1
    30    76    77    1
    31    76    78    1
    32    84    86    1
    33    66    65    2
    34    47    46    1
    35    12    11    2
    36    67    65   am
    37    24    23    1
    38    24    25   ar
    39    27    25   ar
    40     9     3   am
    41    48    46    1
    42    65    64    1
    43    46    43    1
    44    23    20    1
    45    21    22    2
    46    21    20    1
    47     3     4    2
    48     3     2    1
    49    60    59    2
    50    64    63    1
    51     5     2    1
    52     5     6    1
    53    20    19    1
    54    43    44    1
    55    43    42    1
    56    45    44    2
    57     7     8    1
    58     7     6    1
    59     2     1    1
    60    59    58    1
    61    19    16   am
    62   156   154   ar
    63   156   158   ar
    64    42    32   am
    65   146   145    2
    66    94    92    1
    67    14    15    1
    68   154   153   ar
    69   159   158    1
    70    16    17    2
    71    16    15    1
    72   151   150    2
    73   158   157   ar
    74   147   144    1
    75    93    91    1
    76   145   144    1
    77   145   148   am
    78    58    61    1
    79    58    57    1
    80    61    62    1
    81    32    33    2
    82    32    31    1
    83    15    18    1
    84   140   142   ar
    85   140   138   ar
    86    30    31    1
    87   149   150    1
    88   149   148    1
    89   149   152    1
    90    52    51    2
    91   142   141   ar
    92    92    91    1
    93   144   143    1
    94   153   152    1
    95   153   155   ar
    96    91    88    1
    97   138   137   ar
    98    31    34    1
    99    57    51   am
   100    51    50    1
   101   141   139   ar
   102    34    35    1
   103   157   155   ar
   104   137   139   ar
   105   137   136    1
   106    37    35   ar
   107    37    39   ar
   108    90    89    2
   109    50    49    1
   110    50    53    1
   111    35    36   ar
   112   136   133    1
   113    88    89    1
   114    88    87    1
   115   135   134    2
   116    89    95   am
   117    39    40   ar
   118   108   109    1
   119   108   105    1
   120    55    54    1
   121    55    56    1
   122   133   134    1
   123   133   132    1
   124   110   109    1
   125   110   104    1
   126    54    53    1
   127    36    38   ar
   128    95    96    1
   129   105   104    1
   130   105   106    1
   131   104    97   am
   132    40    38   ar
   133    40    41    1
   134    96    97    1
   135    96    99    1
   136    97    98    2
   137   128   126   ar
   138   128   130   ar
   139   123   122    2
   140   126   125   ar
   141   132   122   am
   142   131   130    1
   143   122   121    1
   144   111   106   am
   145   111   112    1
   146   106   107    2
   147   130   129   ar
   148    99   100    1
   149   116   115    1
   150   116   117    1
   151   125   124    1
   152   125   127   ar
   153   114   113    2
   154   115   112    1
   155   124   121    1
   156   112   113    1
   157   121   120    1
   158   129   127   ar
   159   100   101    1
   160   117   119   ar
   161   117   118   ar
   162   101   102    1
   163   103   102    1
