@<TRIPOS>MOLECULE
tmp/3l74M04.pdb
 192 188 0 0 0
SMALL
GASTEIGER

@<TRIPOS>ATOM
      1  N         47.7830  133.5400   97.6400 N.3    91  PHE91      -0.1241
      2  CA        49.1770  133.7000   97.2540 C.3    91  PHE91       0.1605
      3  C         50.1430  133.1950   98.3110 C.2    91  PHE91       0.2264
      4  O         51.1900  132.6350   97.9810 O.2    91  PHE91      -0.2867
      5  CB        49.4730  135.1530   96.9160 C.3    91  PHE91       0.0534
      6  CG        49.0370  135.5370   95.5380 C.ar   91  PHE91      -0.0203
      7  CD1       47.8060  136.1400   95.3300 C.ar   91  PHE91      -0.0042
      8  CD2       49.8380  135.2400   94.4360 C.ar   91  PHE91      -0.0042
      9  CE1       47.3810  136.4390   94.0480 C.ar   91  PHE91      -0.0003
     10  CE2       49.4200  135.5340   93.1480 C.ar   91  PHE91      -0.0003
     11  CZ        48.1930  136.1320   92.9510 C.ar   91  PHE91      -0.0000
     12  N         47.5970  134.5480   88.6620 N.3   124  MET124     -0.1230
     13  CA        48.1090  135.9140   88.5590 C.3   124  MET124      0.1702
     14  C         47.1820  136.7820   87.7110 C.2   124  MET124      0.2592
     15  O         46.7590  137.8580   88.1360 O.2   124  MET124     -0.2718
     16  CB        49.5100  135.9100   87.9590 C.3   124  MET124      0.0401
     17  CG        50.5590  135.3180   88.8940 C.3   124  MET124      0.0596
     18  SD        52.2140  135.2410   88.1450 S.3   124  MET124     -0.1393
     19  CE        52.8740  136.9980   88.5660 C.3   124  MET124      0.0692
     20  N         46.8590  136.3110   86.5120 N.am  125  ALA125     -0.1980
     21  CA        45.9560  137.0550   85.6400 C.3   125  ALA125      0.1597
     22  C         44.6290  137.3210   86.3640 C.2   125  ALA125      0.2287
     23  O         44.0620  138.4170   86.2670 O.2   125  ALA125     -0.2864
     24  CB        45.7000  136.2730   84.3650 C.3   125  ALA125      0.0319
     25  N         43.9750  137.5470   89.6460 N.3   127  ALA127     -0.1231
     26  CA        44.1820  138.5580   90.6820 C.3   127  ALA127      0.1694
     27  C         44.2700  139.9460   90.0560 C.2   127  ALA127      0.2592
     28  O         43.6660  140.9090   90.5330 O.2   127  ALA127     -0.2718
     29  CB        45.4420  138.2440   91.4520 C.3   127  ALA127      0.0304
     30  N         45.0240  140.0370   88.9730 N.am  128  PHE128     -0.1976
     31  CA        45.1740  141.2970   88.2820 C.3   128  PHE128      0.1639
     32  C         43.8560  141.8870   87.7970 C.2   128  PHE128      0.2290
     33  O         43.5030  143.0000   88.1970 O.2   128  PHE128     -0.2864
     34  CB        46.1100  141.1480   87.1000 C.3   128  PHE128      0.0560
     35  CG        46.1240  142.3400   86.2030 C.ar  128  PHE128     -0.0200
     36  CD1       46.2870  143.6160   86.7290 C.ar  128  PHE128     -0.0042
     37  CD2       45.9810  142.1940   84.8200 C.ar  128  PHE128     -0.0042
     38  CE1       46.3130  144.7420   85.8970 C.ar  128  PHE128     -0.0003
     39  CE2       46.0030  143.3240   83.9670 C.ar  128  PHE128     -0.0003
     40  CZ        46.1720  144.6010   84.5140 C.ar  128  PHE128     -0.0000
     41  N         41.6200  142.8350   90.6790 N.3   131  TYR131     -0.1227
     42  CA        42.0780  144.0000   91.4310 C.3   131  TYR131      0.1736
     43  C         41.6510  145.3100   90.7920 C.2   131  TYR131      0.2595
     44  O         41.4280  146.3070   91.4920 O.2   131  TYR131     -0.2718
     45  CB        43.6050  143.9890   91.5710 C.3   131  TYR131      0.0548
     46  CG        44.1080  145.0970   92.4540 C.ar  131  TYR131     -0.0200
     47  CD1       43.8330  145.0940   93.8280 C.ar  131  TYR131     -0.0009
     48  CD2       44.8040  146.1800   91.9190 C.ar  131  TYR131     -0.0009
     49  CE1       44.2330  146.1450   94.6480 C.ar  131  TYR131      0.0417
     50  CE2       45.2170  147.2400   92.7230 C.ar  131  TYR131      0.0417
     51  CZ        44.9250  147.2200   94.0900 C.ar  131  TYR131      0.1957
     52  OH        45.3030  148.2730   94.8960 O.3   131  TYR131     -0.2866
     53  N         41.5430  145.3030   89.4670 N.am  132  VAL132     -0.1980
     54  CA        41.1490  146.4930   88.7260 C.3   132  VAL132      0.1595
     55  C         39.6790  146.8930   88.8870 C.2   132  VAL132      0.2287
     56  O         39.3530  148.0770   88.8050 O.2   132  VAL132     -0.2864
     57  CB        41.4300  146.3200   87.2150 C.3   132  VAL132      0.0276
     58  CG1       41.0110  147.5610   86.4530 C.3   132  VAL132      0.0022
     59  CG2       42.9130  146.0580   86.9890 C.3   132  VAL132      0.0022
     60  N         44.5730  153.0880   92.6260 N.3   138  MET138     -0.1230
     61  CA        45.5450  152.0370   92.4570 C.3   138  MET138      0.1702
     62  C         45.0800  151.0250   91.4070 C.2   138  MET138      0.2593
     63  O         45.8790  150.5350   90.6030 O.2   138  MET138     -0.2718
     64  CB        45.8280  151.3680   93.8020 C.3   138  MET138      0.0401
     65  CG        47.2380  150.8170   93.8950 C.3   138  MET138      0.0596
     66  SD        48.4330  151.9730   93.2020 S.3   138  MET138     -0.1393
     67  CE        48.9300  152.8470   94.6950 C.3   138  MET138      0.0692
     68  N         43.7840  150.7260   91.4020 N.am  139  SER139     -0.1952
     69  CA        43.2240  149.7940   90.4270 C.3   139  SER139      0.1924
     70  C         43.5000  150.3390   89.0240 C.2   139  SER139      0.2314
     71  O         43.9530  149.6130   88.1190 O.2   139  SER139     -0.2863
     72  CB        41.7110  149.6600   90.6320 C.3   139  SER139      0.2116
     73  OG        41.4020  149.0370   91.8680 O.3   139  SER139     -0.2180
     74  N         47.5660  150.7360   88.3010 N.3   142  GLY142     -0.1210
     75  CA        48.1980  149.4350   88.2210 C.3   142  GLY142      0.1956
     76  C         47.8090  148.8180   86.8850 C.2   142  GLY142      0.2611
     77  O         48.6320  148.2230   86.1810 O.2   142  GLY142     -0.2717
     78  N         46.5370  148.9720   86.5330 N.am  143  ALA143     -0.1979
     79  CA        46.0160  148.4480   85.2830 C.3   143  ALA143      0.1597
     80  C         46.7450  149.1190   84.1280 C.2   143  ALA143      0.2287
     81  O         46.9620  148.5100   83.0820 O.2   143  ALA143     -0.2864
     82  CB        44.5190  148.7120   85.1930 C.3   143  ALA143      0.0319
     83  N         49.9770  150.4900   84.2630 N.3   145  VAL145     -0.1231
     84  CA        51.3510  150.0170   84.2500 C.3   145  VAL145      0.1692
     85  C         51.3980  148.6140   83.6540 C.2   145  VAL145      0.2591
     86  O         52.0810  148.3870   82.6460 O.2   145  VAL145     -0.2718
     87  CB        51.9580  150.0010   85.6750 C.3   145  VAL145      0.0266
     88  CG1       53.3700  149.4220   85.6310 C.3   145  VAL145      0.0020
     89  CG2       52.0050  151.4250   86.2400 C.3   145  VAL145      0.0020
     90  N         50.6500  147.6890   84.2570 N.am  146  ILE146     -0.1980
     91  CA        50.6290  146.3100   83.7900 C.3   146  ILE146      0.1595
     92  C         50.2960  146.1520   82.3180 C.2   146  ILE146      0.2287
     93  O         51.0300  145.4890   81.5840 O.2   146  ILE146     -0.2864
     94  CB        49.6460  145.4370   84.5980 C.3   146  ILE146      0.0276
     95  CG1       50.0890  145.3800   86.0630 C.3   146  ILE146      0.0022
     96  CG2       49.5910  144.0120   83.9960 C.3   146  ILE146      0.0022
     97  CD1       51.4600  144.7940   86.2500 C.3   146  ILE146      0.0001
     98  N         52.9480  147.0370   79.9380 N.3   149  LEU149     -0.1231
     99  CA        54.1190  146.1850   79.8880 C.3   149  LEU149      0.1693
    100  C         54.1860  145.5410   78.5120 C.2   149  LEU149      0.2592
    101  O         55.2430  145.4620   77.8970 O.2   149  LEU149     -0.2718
    102  CB        54.0500  145.0990   80.9550 C.3   149  LEU149      0.0284
    103  CG        54.1960  145.5250   82.4180 C.3   149  LEU149      0.0019
    104  CD1       53.9570  144.3180   83.3060 C.3   149  LEU149      0.0001
    105  CD2       55.5800  146.1090   82.6680 C.3   149  LEU149      0.0001
    106  N         53.0350  145.1050   78.0230 N.am  150  PHE150     -0.1976
    107  CA        52.9350  144.4390   76.7270 C.3   150  PHE150      0.1639
    108  C         53.3000  145.3050   75.5390 C.2   150  PHE150      0.2290
    109  O         53.6110  144.7950   74.4600 O.2   150  PHE150     -0.2864
    110  CB        51.5220  143.8700   76.5590 C.3   150  PHE150      0.0560
    111  CG        51.2040  142.7750   77.5370 C.ar  150  PHE150     -0.0200
    112  CD1       51.3050  141.4360   77.1600 C.ar  150  PHE150     -0.0042
    113  CD2       50.8630  143.0790   78.8570 C.ar  150  PHE150     -0.0042
    114  CE1       51.0750  140.4110   78.0880 C.ar  150  PHE150     -0.0003
    115  CE2       50.6320  142.0660   79.7920 C.ar  150  PHE150     -0.0003
    116  CZ        50.7390  140.7290   79.4080 C.ar  150  PHE150     -0.0000
    117  N         53.1870  154.6620   93.3650 N.3   268  ILE268     -0.1231
    118  CA        52.4650  153.5490   92.8030 C.3   268  ILE268      0.1692
    119  C         53.1690  152.3000   93.2940 C.2   268  ILE268      0.2592
    120  O         54.3040  152.0330   92.8950 O.2   268  ILE268     -0.2718
    121  CB        52.5170  153.6450   91.2540 C.3   268  ILE268      0.0266
    122  CG1       51.2470  154.3240   90.7510 C.3   268  ILE268      0.0019
    123  CG2       52.7420  152.2920   90.6190 C.3   268  ILE268      0.0020
    124  CD1       51.2280  154.5750   89.2570 C.3   268  ILE268      0.0001
    125  N         52.5220  151.5600   94.1910 N.am  269  LYS269     -0.1966
    126  CA        53.1170  150.3240   94.6890 C.3   269  LYS269      0.1713
    127  C         52.1100  149.1790   94.6280 C.2   269  LYS269      0.2458
    128  O         50.9970  149.2860   95.1540 O.2   269  LYS269     -0.2730
    129  CB        53.6570  150.4830   96.1260 C.3   269  LYS269      0.0311
    130  CG        52.6570  150.1650   97.2220 C.3   269  LYS269      0.0038
    131  CD        53.3310  149.9320   98.5660 C.3   269  LYS269      0.0206
    132  CE        52.2730  149.6130   99.6320 C.3   269  LYS269      0.1093
    133  NZ        52.8420  149.1750  100.9490 N.3   269  LYS269     -0.1314
    134  N         52.4980  148.0680   93.9690 N.am  270  PRO270     -0.2716
    135  CA        51.6750  146.8680   93.8000 C.3   270  PRO270      0.1536
    136  C         51.3890  146.1040   95.0730 C.2   270  PRO270      0.2598
    137  O         51.9940  146.3490   96.1060 O.2   270  PRO270     -0.2715
    138  CB        52.4800  146.0330   92.8010 C.3   270  PRO270      0.0310
    139  CG        53.8780  146.4120   93.1060 C.3   270  PRO270      0.0237
    140  CD        53.7890  147.9070   93.2720 C.3   270  PRO270      0.0939
    141  N         50.4420  145.1840   94.9860 N.am  271  GLU271     -0.1978
    142  CA        50.0800  144.3520   96.1160 C.3   271  GLU271      0.1602
    143  C         51.3260  143.5710   96.5280 C.2   271  GLU271      0.2287
    144  O         52.2090  143.2960   95.7070 O.2   271  GLU271     -0.2864
    145  CB        48.9370  143.4090   95.7250 C.3   271  GLU271      0.0415
    146  CG        47.6120  144.1240   95.5070 C.3   271  GLU271      0.1163
    147  CD        47.0790  144.7680   96.7890 C.2   271  GLU271      0.3649
    148  OE1       46.6240  144.0180   97.6820 O.co2 271  GLU271     -0.2457
    149  OE2       47.1210  146.0200   96.9060 O.co2 271  GLU271     -0.2457
    150  N         52.1470  140.4880   97.0080 N.3   273  TYR273     -0.1227
    151  CA        52.5400  139.2880   96.2830 C.3   273  TYR273      0.1736
    152  C         53.1340  139.5180   94.9070 C.2   273  TYR273      0.2595
    153  O         53.5230  138.5550   94.2330 O.2   273  TYR273     -0.2718
    154  CB        51.3640  138.3030   96.2070 C.3   273  TYR273      0.0548
    155  CG        50.0500  138.9060   95.7420 C.ar  273  TYR273     -0.0200
    156  CD1       49.8080  139.1530   94.3840 C.ar  273  TYR273     -0.0009
    157  CD2       49.0530  139.2440   96.6610 C.ar  273  TYR273     -0.0009
    158  CE1       48.6160  139.7180   93.9570 C.ar  273  TYR273      0.0417
    159  CE2       47.8500  139.8080   96.2460 C.ar  273  TYR273      0.0417
    160  CZ        47.6370  140.0440   94.8920 C.ar  273  TYR273      0.1957
    161  OH        46.4450  140.6080   94.4760 O.3   273  TYR273     -0.2866
    162  N         53.2270  140.7760   94.4850 N.am  274  PHE274     -0.1976
    163  CA        53.8140  141.0590   93.1780 C.3   274  PHE274      0.1639
    164  C         55.1010  141.8900   93.3050 C.2   274  PHE274      0.2290
    165  O         55.8350  142.0800   92.3290 O.2   274  PHE274     -0.2864
    166  CB        52.7920  141.7850   92.2890 C.3   274  PHE274      0.0560
    167  CG        53.3140  142.1280   90.9200 C.ar  274  PHE274     -0.0200
    168  CD1       53.6470  141.1270   90.0200 C.ar  274  PHE274     -0.0042
    169  CD2       53.4690  143.4540   90.5340 C.ar  274  PHE274     -0.0042
    170  CE1       54.1280  141.4370   88.7460 C.ar  274  PHE274     -0.0003
    171  CE2       53.9490  143.7790   89.2600 C.ar  274  PHE274     -0.0003
    172  CZ        54.2780  142.7620   88.3630 C.ar  274  PHE274     -0.0000
    173  N         58.0610  142.9820   90.7090 N.3   278  TYR278     -0.1241
    174  CA        58.1000  144.3840   90.3290 C.3   278  TYR278      0.1605
    175  C         59.5440  144.8350   90.4750 C.2   278  TYR278      0.2264
    176  O         60.0970  145.4860   89.5790 O.2   278  TYR278     -0.2867
    177  CB        57.1810  145.2030   91.2410 C.3   278  TYR278      0.0534
    178  CG        56.9030  146.6140   90.7580 C.ar  278  TYR278     -0.0201
    179  CD1       56.5160  146.8650   89.4420 C.ar  278  TYR278     -0.0009
    180  CD2       57.0060  147.6960   91.6250 C.ar  278  TYR278     -0.0009
    181  CE1       56.2410  148.1680   89.0040 C.ar  278  TYR278      0.0417
    182  CE2       56.7360  148.9870   91.2070 C.ar  278  TYR278      0.0417
    183  CZ        56.3540  149.2240   89.8950 C.ar  278  TYR278      0.1957
    184  OH        56.0960  150.5210   89.4780 O.3   278  TYR278     -0.2866
    185  N         61.2180  140.3670   83.9290 N.3   294  LEU294     -0.1245
    186  CA        60.0130  140.0480   84.6670 C.3   294  LEU294      0.1561
    187  C         59.4190  138.7320   84.1850 C.2   294  LEU294      0.2260
    188  O         59.0730  137.8680   84.9890 O.2   294  LEU294     -0.2867
    189  CB        58.9840  141.1680   84.5130 C.3   294  LEU294      0.0270
    190  CG        57.6110  140.9300   85.1640 C.3   294  LEU294      0.0019
    191  CD1       57.7810  140.4510   86.6050 C.3   294  LEU294      0.0001
    192  CD2       56.8070  142.2160   85.1020 C.3   294  LEU294      0.0001
@<TRIPOS>BOND
     1   109   108    2
     2   108   107    1
     3   110   107    1
     4   110   111    1
     5   107   106    1
     6   112   111   ar
     7   112   114   ar
     8   111   113   ar
     9   101   100    2
    10   106   100   am
    11   114   116   ar
    12   100    99    1
    13   113   115   ar
    14   116   115   ar
    15    99    98    1
    16    99   102    1
    17   102   103    1
    18    93    92    2
    19    92    91    1
    20   103   105    1
    21   103   104    1
    22    86    85    2
    23    81    80    2
    24    85    84    1
    25    85    90   am
    26    91    90    1
    27    91    94    1
    28   185   186    1
    29    39    40   ar
    30    39    37   ar
    31    96    94    1
    32    80    79    1
    33   187   186    1
    34   187   188    2
    35    84    83    1
    36    84    87    1
    37    24    21    1
    38   189   186    1
    39   189   190    1
    40    40    38   ar
    41    94    95    1
    42    37    35   ar
    43   192   190    1
    44   190   191    1
    45    82    79    1
    46    79    78    1
    47    88    87    1
    48    21    22    1
    49    21    20    1
    50    87    89    1
    51    38    36   ar
    52    95    97    1
    53    77    76    2
    54    35    36   ar
    55    35    34    1
    56    23    22    2
    57    58    57    1
    58    20    14   am
    59    78    76   am
    60    76    75    1
    61    59    57    1
    62    34    31    1
    63    57    54    1
    64    14    15    2
    65    14    13    1
    66    32    33    2
    67    32    31    1
    68    16    13    1
    69    16    17    1
    70    71    70    2
    71    18    19    1
    72    18    17    1
    73    75    74    1
    74    31    30    1
    75   172   170   ar
    76   172   171   ar
    77    13    12    1
    78    54    55    1
    79    54    53    1
    80   170   168   ar
    81    56    55    2
    82    30    27   am
    83   181   179   ar
    84   181   183   ar
    85    70    69    1
    86   124   122    1
    87   171   169   ar
    88   179   178   ar
    89    53    43   am
    90   184   183    1
    91   176   175    2
    92    25    26    1
    93   183   182   ar
    94   168   167   ar
    95    27    28    2
    96    27    26    1
    97   174   175    1
    98   174   173    1
    99   174   177    1
   100    69    72    1
   101    69    68    1
   102   169   167   ar
   103    63    62    2
   104   123   121    1
   105    72    73    1
   106    41    42    1
   107    26    29    1
   108   122   121    1
   109   178   177    1
   110   178   180   ar
   111    43    42    1
   112    43    44    2
   113   167   166    1
   114   182   180   ar
   115   121   118    1
   116    68    62   am
   117    62    61    1
   118    42    45    1
   119    45    46    1
   120    48    46   ar
   121    48    50   ar
   122   166   163    1
   123   165   164    2
   124    46    47   ar
   125    61    60    1
   126    61    64    1
   127    50    51   ar
   128   138   139    1
   129   138   135    1
   130   118   119    1
   131   118   117    1
   132   120   119    2
   133    11    10   ar
   134    11     9   ar
   135   139   140    1
   136    10     8   ar
   137   163   164    1
   138   163   162    1
   139    66    65    1
   140    66    67    1
   141   140   134    1
   142   119   125   am
   143   135   134    1
   144   135   136    1
   145    64    65    1
   146    47    49   ar
   147   158   156   ar
   148   158   160   ar
   149   134   127   am
   150     9     7   ar
   151    51    49   ar
   152    51    52    1
   153   125   126    1
   154   153   152    2
   155   156   155   ar
   156     8     6   ar
   157   161   160    1
   158   162   152   am
   159   127   126    1
   160   127   128    2
   161   126   129    1
   162   160   159   ar
   163   152   151    1
   164   141   136   am
   165   141   142    1
   166   136   137    2
   167     7     6   ar
   168   146   145    1
   169   146   147    1
   170     6     5    1
   171   144   143    2
   172   145   142    1
   173   155   154    1
   174   155   157   ar
   175   142   143    1
   176   129   130    1
   177   154   151    1
   178   159   157   ar
   179   151   150    1
   180   147   149   ar
   181   147   148   ar
   182     5     2    1
   183   130   131    1
   184     2     1    1
   185     2     3    1
   186     4     3    2
   187   131   132    1
   188   132   133    1
