@<TRIPOS>MOLECULE
tmp/3l75E00.pdb
 98 95 0 0 0
SMALL
GASTEIGER

@<TRIPOS>ATOM
      1  N         40.5210  113.0620   47.3880 N.3    37  TYR37      -0.1241
      2  CA        41.3300  114.0120   48.1470 C.3    37  TYR37       0.1605
      3  C         41.0820  115.4390   47.6600 C.2    37  TYR37       0.2264
      4  O         41.2730  116.3930   48.4130 O.2    37  TYR37      -0.2867
      5  CB        42.8230  113.6830   48.0340 C.3    37  TYR37       0.0534
      6  CG        43.2450  112.4730   48.8500 C.ar   37  TYR37      -0.0201
      7  CD1       44.2870  111.6460   48.4260 C.ar   37  TYR37      -0.0009
      8  CD2       42.5680  112.1200   50.0130 C.ar   37  TYR37      -0.0009
      9  CE1       44.6300  110.4920   49.1360 C.ar   37  TYR37       0.0417
     10  CE2       42.9070  110.9730   50.7290 C.ar   37  TYR37       0.0417
     11  CZ        43.9290  110.1620   50.2850 C.ar   37  TYR37       0.1957
     12  OH        44.2130  109.0080   50.9750 O.3    37  TYR37      -0.2866
     13  N         38.1480  116.7200   49.6560 N.3    40  THR40      -0.1218
     14  CA        38.5930  116.9990   51.0090 C.3    40  THR40       0.1862
     15  C         39.3840  118.3020   51.0910 C.2    40  THR40       0.2287
     16  O         39.1050  119.1520   51.9410 O.2    40  THR40      -0.2866
     17  CB        39.4730  115.8730   51.5310 C.3    40  THR40       0.1770
     18  OG1       38.7230  114.6530   51.5400 O.3    40  THR40      -0.2211
     19  CG2       39.9600  116.1920   52.9200 C.3    40  THR40       0.0375
     20  N         37.0890  121.2040   50.8590 N.3    43  ALA43      -0.1231
     21  CA        36.3270  121.4250   52.0840 C.3    43  ALA43       0.1694
     22  C         37.2130  122.1550   53.1050 C.2    43  ALA43       0.2592
     23  O         36.7520  123.0300   53.8390 O.2    43  ALA43      -0.2718
     24  CB        35.8480  120.1120   52.6470 C.3    43  ALA43       0.0304
     25  N         38.4900  121.8020   53.1540 N.am   44  CYS44      -0.1970
     26  CA        39.3960  122.4800   54.0710 C.3    44  CYS44       0.1712
     27  C         39.5330  123.9540   53.6740 C.2    44  CYS44       0.2296
     28  O         39.5640  124.8350   54.5320 O.2    44  CYS44      -0.2864
     29  CB        40.7750  121.8230   54.0570 C.3    44  CYS44       0.0983
     30  SG        40.8700  120.2530   54.9230 S.3    44  CYS44      -0.0798
     31  N         36.3560  125.7010   54.6410 N.3    47  THR47      -0.1203
     32  CA        36.3930  125.7840   56.0920 C.3    47  THR47       0.1994
     33  C         37.3810  126.8320   56.6080 C.2    47  THR47       0.2618
     34  O         37.0660  127.5990   57.5170 O.2    47  THR47      -0.2717
     35  CB        36.7620  124.4390   56.7130 C.3    47  THR47       0.1784
     36  OG1       35.6650  123.5270   56.5540 O.3    47  THR47      -0.2211
     37  CG2       37.0870  124.6130   58.1860 C.3    47  THR47       0.0376
     38  N         38.5780  126.8590   56.0360 N.am   48  ALA48      -0.1965
     39  CA        39.5790  127.8220   56.4690 C.3    48  ALA48       0.1728
     40  C         39.0370  129.2300   56.2290 C.2    48  ALA48       0.2616
     41  O         39.1670  130.1230   57.0770 O.2    48  ALA48      -0.2715
     42  CB        40.8650  127.6040   55.7000 C.3    48  ALA48       0.0334
     43  N         38.4130  129.4110   55.0670 N.am   49  TYR49      -0.1960
     44  CA        37.8390  130.6990   54.7000 C.3    49  TYR49       0.1771
     45  C         36.8470  131.1360   55.7760 C.2    49  TYR49       0.2619
     46  O         36.9200  132.2580   56.2870 O.2    49  TYR49      -0.2715
     47  CB        37.1180  130.6000   53.3510 C.3    49  TYR49       0.0574
     48  CG        36.2690  131.8100   53.0330 C.ar   49  TYR49      -0.0198
     49  CD1       36.8330  132.9690   52.5010 C.ar   49  TYR49      -0.0009
     50  CD2       34.8990  131.8080   53.2990 C.ar   49  TYR49      -0.0009
     51  CE1       36.0470  134.1000   52.2400 C.ar   49  TYR49       0.0417
     52  CE2       34.1060  132.9240   53.0420 C.ar   49  TYR49       0.0417
     53  CZ        34.6810  134.0630   52.5120 C.ar   49  TYR49       0.1957
     54  OH        33.8890  135.1520   52.2260 O.3    49  TYR49      -0.2866
     55  N         35.9230  130.2420   56.1150 N.am   50  ALA50      -0.1963
     56  CA        34.9200  130.5350   57.1260 C.3    50  ALA50       0.1728
     57  C         35.5730  130.8530   58.4730 C.2    50  ALA50       0.2616
     58  O         35.2520  131.8520   59.1090 O.2    50  ALA50      -0.2715
     59  CB        33.9840  129.3540   57.2680 C.3    50  ALA50       0.0334
     60  N         36.4980  130.0040   58.9020 N.am   51  ALA51      -0.1963
     61  CA        37.1700  130.2110   60.1780 C.3    51  ALA51       0.1728
     62  C         37.9040  131.5480   60.2270 C.2    51  ALA51       0.2616
     63  O         37.7520  132.3060   61.1880 O.2    51  ALA51      -0.2715
     64  CB        38.1340  129.0780   60.4460 C.3    51  ALA51       0.0334
     65  N         38.6950  131.8400   59.1980 N.am   52  LYS52      -0.1977
     66  CA        39.4410  133.0910   59.1630 C.3    52  LYS52       0.1596
     67  C         38.4920  134.2680   59.3660 C.2    52  LYS52       0.2287
     68  O         38.7520  135.1570   60.1790 O.2    52  LYS52      -0.2864
     69  CB        40.1970  133.2170   57.8300 C.3    52  LYS52       0.0298
     70  CG        40.9100  134.5380   57.5870 C.3    52  LYS52       0.0038
     71  CD        39.9310  135.5660   57.0460 C.3    52  LYS52       0.0206
     72  CE        40.5920  136.9160   56.8290 C.3    52  LYS52       0.1093
     73  NZ        41.6600  136.7850   55.8130 N.3    52  LYS52      -0.1314
     74  N         35.2410  134.3370   60.6870 N.3    54  VAL54      -0.1231
     75  CA        34.6360  134.3800   62.0160 C.3    54  VAL54       0.1692
     76  C         35.6090  134.8340   63.1090 C.2    54  VAL54       0.2591
     77  O         35.2480  135.6520   63.9670 O.2    54  VAL54      -0.2718
     78  CB        34.0580  133.0200   62.4230 C.3    54  VAL54       0.0266
     79  CG1       33.5950  133.0730   63.8770 C.3    54  VAL54       0.0020
     80  CG2       32.8950  132.6630   61.5170 C.3    54  VAL54       0.0020
     81  N         36.8330  134.3020   63.0910 N.am   55  VAL55      -0.1980
     82  CA        37.8490  134.6800   64.0760 C.3    55  VAL55       0.1595
     83  C         38.1920  136.1530   63.9190 C.2    55  VAL55       0.2287
     84  O         38.3200  136.8800   64.9000 O.2    55  VAL55      -0.2864
     85  CB        39.1210  133.8380   63.9050 C.3    55  VAL55       0.0276
     86  CG1       40.2630  134.4170   64.7310 C.3    55  VAL55       0.0022
     87  CG2       38.8260  132.4030   64.3220 C.3    55  VAL55       0.0022
     88  N         35.2180  138.1410   65.4150 N.3    58  PHE58      -0.1241
     89  CA        35.2340  138.1030   66.8700 C.3    58  PHE58       0.1605
     90  C         36.4020  138.8930   67.4270 C.2    58  PHE58       0.2264
     91  O         36.2110  139.7090   68.3190 O.2    58  PHE58      -0.2867
     92  CB        35.2510  136.6630   67.3810 C.3    58  PHE58       0.0534
     93  CG        33.9420  135.9370   67.1830 C.ar   58  PHE58      -0.0203
     94  CD1       33.7720  134.6380   67.6540 C.ar   58  PHE58      -0.0042
     95  CD2       32.8990  136.5320   66.4680 C.ar   58  PHE58      -0.0042
     96  CE1       32.5960  133.9380   67.4120 C.ar   58  PHE58      -0.0003
     97  CE2       31.7150  135.8430   66.2200 C.ar   58  PHE58      -0.0003
     98  CZ        31.5670  134.5400   66.6930 C.ar   58  PHE58      -0.0000
@<TRIPOS>BOND
     1     1     2    1
     2     3     2    1
     3     3     4    2
     4     5     2    1
     5     5     6    1
     6     7     6   ar
     7     7     9   ar
     8     6     8   ar
     9     9    11   ar
    10    13    14    1
    11     8    10   ar
    12    11    10   ar
    13    11    12    1
    14    20    21    1
    15    14    15    1
    16    14    17    1
    17    15    16    2
    18    17    18    1
    19    17    19    1
    20    21    24    1
    21    21    22    1
    22    54    53    1
    23    51    49   ar
    24    51    53   ar
    25    49    48   ar
    26    53    52   ar
    27    48    50   ar
    28    48    47    1
    29    52    50   ar
    30    22    25   am
    31    22    23    2
    32    25    26    1
    33    47    44    1
    34    27    26    1
    35    27    28    2
    36    29    26    1
    37    29    30    1
    38    31    32    1
    39    44    43    1
    40    44    45    1
    41    43    40   am
    42    42    39    1
    43    45    55   am
    44    45    46    2
    45    73    72    1
    46    38    39    1
    47    38    33   am
    48    32    33    1
    49    32    35    1
    50    55    56    1
    51    40    39    1
    52    40    41    2
    53    36    35    1
    54    33    34    2
    55    35    37    1
    56    72    71    1
    57    71    70    1
    58    56    59    1
    59    56    57    1
    60    70    69    1
    61    69    66    1
    62    57    60   am
    63    57    58    2
    64    60    61    1
    65    66    65    1
    66    66    67    1
    67    65    62   am
    68    67    68    2
    69    61    62    1
    70    61    64    1
    71    62    63    2
    72    74    75    1
    73    80    78    1
    74    75    78    1
    75    75    76    1
    76    78    79    1
    77    81    76   am
    78    81    82    1
    79    76    77    2
    80    85    82    1
    81    85    87    1
    82    85    86    1
    83    83    82    1
    84    83    84    2
    85    88    89    1
    86    97    95   ar
    87    97    98   ar
    88    95    93   ar
    89    98    96   ar
    90    89    92    1
    91    89    90    1
    92    93    92    1
    93    93    94   ar
    94    96    94   ar
    95    90    91    2
