@<TRIPOS>MOLECULE
tmp/3l75D04.pdb
 97 96 0 0 0
SMALL
GASTEIGER

@<TRIPOS>ATOM
      1  N         19.0290  148.7230   51.1030 N.3    21  LEU21      -0.1245
      2  CA        18.1670  149.8720   51.2800 C.3    21  LEU21       0.1561
      3  C         18.4920  150.8440   50.1400 C.2    21  LEU21       0.2260
      4  O         19.6280  150.8940   49.6690 O.2    21  LEU21      -0.2867
      5  CB        18.5010  150.5630   52.6000 C.3    21  LEU21       0.0270
      6  CG        18.1150  149.9610   53.9430 C.3    21  LEU21       0.0019
      7  CD1       18.9060  150.6570   55.0130 C.3    21  LEU21       0.0001
      8  CD2       16.6170  150.1280   54.1870 C.3    21  LEU21       0.0001
      9  N         19.4810  154.0910   49.2810 N.3    23  HIS23      -0.1241
     10  CA        20.0620  155.1870   50.0390 C.3    23  HIS23       0.1621
     11  C         19.5510  156.5770   49.7280 C.2    23  HIS23       0.2264
     12  O         19.5940  157.4730   50.5820 O.2    23  HIS23      -0.2867
     13  CB        21.5820  155.0940   49.9670 C.3    23  HIS23       0.0745
     14  CG        22.1210  153.9450   50.7560 C.ar   23  HIS23       0.0817
     15  ND1       23.0150  154.1040   51.7940 N.ar   23  HIS23      -0.2268
     16  CD2       21.7960  152.6290   50.7370 C.ar   23  HIS23       0.1154
     17  CE1       23.2100  152.9390   52.3860 C.ar   23  HIS23       0.1986
     18  NE2       22.4820  152.0280   51.7640 N.ar   23  HIS23      -0.2212
     19  N         28.9200  158.4350   54.7690 N.3    53  GLY53      -0.1210
     20  CA        29.1580  157.2270   54.0030 C.3    53  GLY53       0.1956
     21  C         27.9360  156.3680   53.8310 C.2    53  GLY53       0.2611
     22  O         28.0080  155.2790   53.2740 O.2    53  GLY53      -0.2717
     23  N         26.8030  156.8590   54.3090 N.am   54  VAL54      -0.1979
     24  CA        25.5430  156.1360   54.2070 C.3    54  VAL54       0.1595
     25  C         24.5910  157.0000   53.4040 C.2    54  VAL54       0.2287
     26  O         24.0760  156.5810   52.3650 O.2    54  VAL54      -0.2864
     27  CB        24.9110  155.8980   55.5930 C.3    54  VAL54       0.0276
     28  CG1       23.5770  155.1780   55.4520 C.3    54  VAL54       0.0022
     29  CG2       25.8510  155.1170   56.4550 C.3    54  VAL54       0.0022
     30  N         16.3460  152.0100   58.3830 N.3   192  TRP192     -0.1241
     31  CA        17.7710  152.1940   58.5230 C.3   192  TRP192      0.1605
     32  C         18.1520  152.5090   59.9720 C.2   192  TRP192      0.2264
     33  O         19.0480  151.8840   60.5370 O.2   192  TRP192     -0.2867
     34  CB        18.2530  153.3370   57.6390 C.3   192  TRP192      0.0550
     35  CG        19.6910  153.6330   57.8510 C.ar  192  TRP192      0.0003
     36  CD1       20.7420  152.8760   57.4440 C.ar  192  TRP192      0.0946
     37  CD2       20.2470  154.7210   58.6050 C.ar  192  TRP192      0.0152
     38  NE1       21.9220  153.4160   57.9000 N.ar  192  TRP192     -0.2442
     39  CE2       21.6480  154.5490   58.6170 C.ar  192  TRP192      0.0810
     40  CE3       19.6980  155.8180   59.2770 C.ar  192  TRP192      0.0012
     41  CZ2       22.5100  155.4320   59.2720 C.ar  192  TRP192      0.0191
     42  CZ3       20.5590  156.6990   59.9360 C.ar  192  TRP192      0.0001
     43  CH2       21.9510  156.4960   59.9240 C.ar  192  TRP192      0.0015
     44  N         21.0900  149.7260   61.2810 N.3   196  PRO196     -0.2102
     45  CA        22.1590  150.2960   60.4700 C.3   196  PRO196      0.1504
     46  C         22.9720  149.2220   59.7980 C.2   196  PRO196      0.2576
     47  O         23.6110  149.4760   58.8060 O.2   196  PRO196     -0.2718
     48  CB        22.9820  151.0710   61.4830 C.3   196  PRO196      0.0282
     49  CG        21.9580  151.4790   62.5000 C.3   196  PRO196      0.0208
     50  CD        21.1460  150.2380   62.6610 C.3   196  PRO196      0.0893
     51  N         22.9470  148.0140   60.3240 N.am  197  GLU197     -0.1966
     52  CA        23.7390  146.9550   59.7230 C.3   197  GLU197      0.1733
     53  C         22.9690  146.2260   58.6510 C.2   197  GLU197      0.2616
     54  O         23.4660  145.2720   58.0630 O.2   197  GLU197     -0.2715
     55  CB        24.1920  145.9490   60.7830 C.3   197  GLU197      0.0429
     56  CG        23.1010  145.0410   61.3300 C.3   197  GLU197      0.1163
     57  CD        22.0630  145.7580   62.2190 C.2   197  GLU197      0.3649
     58  OE1       22.3360  146.8680   62.7490 O.co2 197  GLU197     -0.2457
     59  OE2       20.9690  145.1760   62.4040 O.co2 197  GLU197     -0.2457
     60  N         21.7480  146.6780   58.3970 N.am  198  HIS198     -0.1959
     61  CA        20.8980  146.0400   57.4090 C.3   198  HIS198      0.1787
     62  C         21.6540  145.5240   56.1950 C.2   198  HIS198      0.2620
     63  O         21.7370  144.3260   55.9850 O.2   198  HIS198     -0.2715
     64  CB        19.7940  147.0050   56.9780 C.3   198  HIS198      0.0785
     65  CG        18.8410  146.4310   55.9770 C.ar  198  HIS198      0.0821
     66  ND1       19.1000  146.4170   54.6240 N.ar  198  HIS198     -0.2267
     67  CD2       17.6360  145.8350   56.1340 C.ar  198  HIS198      0.1154
     68  CE1       18.0970  145.8400   53.9900 C.ar  198  HIS198      0.1986
     69  NE2       17.1940  145.4770   54.8830 N.ar  198  HIS198     -0.2212
     70  N         22.2240  146.4240   55.4100 N.am  199  ASP199     -0.1957
     71  CA        22.9320  146.0320   54.1970 C.3   199  ASP199      0.1840
     72  C         24.0700  145.0480   54.4050 C.2   199  ASP199      0.2621
     73  O         24.1140  144.0120   53.7460 O.2   199  ASP199     -0.2715
     74  CB        23.4500  147.2690   53.4650 C.3   199  ASP199      0.1450
     75  CG        22.3360  148.0600   52.7740 C.2   199  ASP199      0.3671
     76  OD1       21.1490  147.6820   52.8990 O.co2 199  ASP199     -0.2456
     77  OD2       22.6490  149.0630   52.0960 O.co2 199  ASP199     -0.2456
     78  N         24.9980  145.3520   55.3020 N.am  200  GLN200     -0.1977
     79  CA        26.0990  144.4310   55.5390 C.3   200  GLN200      0.1601
     80  C         25.5740  143.0480   55.9460 C.2   200  GLN200      0.2287
     81  O         26.0870  142.0220   55.5160 O.2   200  GLN200     -0.2864
     82  CB        27.0190  144.9960   56.6130 C.3   200  GLN200      0.0394
     83  CG        28.2020  144.1190   56.9230 C.3   200  GLN200      0.0908
     84  CD        28.9690  144.6010   58.1390 C.2   200  GLN200      0.2608
     85  OE1       28.3790  144.9540   59.1680 O.2   200  GLN200     -0.2717
     86  NE2       30.2950  144.6050   58.0370 N.am  200  GLN200     -0.0878
     87  N         24.7540  141.2190   52.8890 N.3   203  ARG203     -0.1245
     88  CA        25.8850  140.8630   52.0460 C.3   203  ARG203      0.1563
     89  C         26.4890  139.5850   52.6470 C.2   203  ARG203      0.2260
     90  O         26.8870  138.6720   51.9240 O.2   203  ARG203     -0.2867
     91  CB        26.9110  141.9950   52.0080 C.3   203  ARG203      0.0307
     92  CG        27.9460  141.8420   50.8980 C.3   203  ARG203      0.0489
     93  CD        29.0010  142.9520   50.9550 C.3   203  ARG203      0.2205
     94  NE        28.4050  144.2840   50.8630 N.pl3 203  ARG203     -0.0865
     95  CZ        28.3670  145.0250   49.7570 C.cat 203  ARG203      0.5346
     96  NH1       28.8970  144.5760   48.6280 N.pl3 203  ARG203      0.1354
     97  NH2       27.7830  146.2220   49.7790 N.pl3 203  ARG203      0.1354
@<TRIPOS>BOND
     1    96    95    1
     2     9    10    1
     3     4     3    2
     4    11    10    1
     5    11    12    2
     6    95    97    1
     7    95    94    2
     8    13    10    1
     9    13    14    1
    10     3     2    1
    11    16    14   ar
    12    16    18   ar
    13    14    15   ar
    14    94    93    1
    15    92    93    1
    16    92    91    1
    17     1     2    1
    18     2     5    1
    19    18    17   ar
    20    15    17   ar
    21    90    89    2
    22    91    88    1
    23    88    89    1
    24    88    87    1
    25    77    75   ar
    26    26    25    2
    27     5     6    1
    28    75    76   ar
    29    75    74    1
    30    22    21    2
    31    25    24    1
    32    74    71    1
    33    73    72    2
    34    21    20    1
    35    21    23   am
    36     6     8    1
    37     6     7    1
    38    68    66   ar
    39    68    69   ar
    40    20    19    1
    41    71    72    1
    42    71    70    1
    43    24    23    1
    44    24    27    1
    45    72    78   am
    46    66    65   ar
    47    69    67   ar
    48    78    79    1
    49    70    62   am
    50    28    27    1
    51    81    80    2
    52    79    80    1
    53    79    82    1
    54    27    29    1
    55    65    67   ar
    56    65    64    1
    57    63    62    2
    58    62    61    1
    59    82    83    1
    60    83    84    1
    61    64    61    1
    62    61    60    1
    63    36    35   ar
    64    36    38   ar
    65    34    35    1
    66    34    31    1
    67    35    37   ar
    68    38    39   ar
    69    86    84   am
    70    54    53    2
    71    84    85    2
    72    30    31    1
    73    60    53   am
    74    31    32    1
    75    37    39   ar
    76    37    40   ar
    77    39    41   ar
    78    53    52    1
    79    47    46    2
    80    41    43   ar
    81    40    42   ar
    82    52    51    1
    83    52    55    1
    84    46    51   am
    85    46    45    1
    86    43    42   ar
    87    32    33    2
    88    45    44    1
    89    45    48    1
    90    55    56    1
    91    44    50    1
    92    56    57    1
    93    48    49    1
    94    57    59   ar
    95    57    58   ar
    96    49    50    1
