@<TRIPOS>MOLECULE
tmp/3l75C04.pdb
 149 146 0 0 0
SMALL
GASTEIGER

@<TRIPOS>ATOM
      1  N         17.0580  125.9280   81.0160 N.3   125  MET125     -0.1245
      2  CA        15.9160  126.8050   81.1090 C.3   125  MET125      0.1570
      3  C         16.1370  127.9740   82.0380 C.2   125  MET125      0.2261
      4  O         15.7520  129.1100   81.7270 O.2   125  MET125     -0.2867
      5  CB        14.6940  126.0210   81.5390 C.3   125  MET125      0.0387
      6  CG        13.6860  125.8560   80.4140 C.3   125  MET125      0.0595
      7  SD        12.6830  124.4650   80.8310 S.3   125  MET125     -0.1393
      8  CE        11.4430  125.1910   82.0640 C.3   125  MET125      0.0692
      9  N         18.3710  130.4730   80.1970 N.3   128  ALA128     -0.1231
     10  CA        17.6690  131.2810   79.2040 C.3   128  ALA128      0.1694
     11  C         16.8160  132.3530   79.8910 C.2   128  ALA128      0.2592
     12  O         16.7560  133.5040   79.4480 O.2   128  ALA128     -0.2718
     13  CB        16.8000  130.3880   78.3390 C.3   128  ALA128      0.0304
     14  N         16.1570  131.9710   80.9780 N.am  129  PHE129     -0.1976
     15  CA        15.3280  132.9100   81.6980 C.3   129  PHE129      0.1639
     16  C         16.1570  134.0910   82.2070 C.2   129  PHE129      0.2290
     17  O         15.8800  135.2380   81.8610 O.2   129  PHE129     -0.2864
     18  CB        14.6260  132.1950   82.8600 C.3   129  PHE129      0.0560
     19  CG        13.8570  133.1180   83.7740 C.ar  129  PHE129     -0.0200
     20  CD1       12.7400  133.8110   83.3170 C.ar  129  PHE129     -0.0042
     21  CD2       14.2750  133.3110   85.0910 C.ar  129  PHE129     -0.0042
     22  CE1       12.0600  134.6830   84.1620 C.ar  129  PHE129     -0.0003
     23  CE2       13.5990  134.1790   85.9360 C.ar  129  PHE129     -0.0003
     24  CZ        12.4930  134.8680   85.4770 C.ar  129  PHE129     -0.0000
     25  N         17.4870  136.1920   79.2950 N.3   132  TYR132     -0.1227
     26  CA        16.4800  136.9920   78.6120 C.3   132  TYR132      0.1736
     27  C         16.1270  138.2870   79.3500 C.2   132  TYR132      0.2595
     28  O         15.6400  139.2300   78.7310 O.2   132  TYR132     -0.2718
     29  CB        15.2170  136.1680   78.3940 C.3   132  TYR132      0.0548
     30  CG        14.2470  136.8260   77.4550 C.ar  132  TYR132     -0.0200
     31  CD1       14.5250  136.8920   76.0970 C.ar  132  TYR132     -0.0009
     32  CD2       13.0780  137.4300   77.9190 C.ar  132  TYR132     -0.0009
     33  CE1       13.6770  137.5420   75.2160 C.ar  132  TYR132      0.0417
     34  CE2       12.2200  138.0850   77.0430 C.ar  132  TYR132      0.0417
     35  CZ        12.5300  138.1420   75.6810 C.ar  132  TYR132      0.1957
     36  OH        11.7240  138.8190   74.7720 O.3   132  TYR132     -0.2866
     37  N         16.3680  138.3420   80.6540 N.am  133  VAL133     -0.1980
     38  CA        16.0810  139.5640   81.4140 C.3   133  VAL133      0.1595
     39  C         17.0340  140.7170   81.1190 C.2   133  VAL133      0.2287
     40  O         16.6250  141.8750   81.1030 O.2   133  VAL133     -0.2864
     41  CB        16.1930  139.3640   82.9300 C.3   133  VAL133      0.0276
     42  CG1       15.8490  140.6380   83.6330 C.3   133  VAL133      0.0022
     43  CG2       15.2830  138.2910   83.3820 C.3   133  VAL133      0.0022
     44  N          9.2260  143.0960   77.5330 N.3   139  MET139     -0.1230
     45  CA         8.9760  141.6850   77.6760 C.3   139  MET139      0.1702
     46  C          9.9100  141.0890   78.7270 C.2   139  MET139      0.2593
     47  O          9.4960  140.2380   79.5030 O.2   139  MET139     -0.2718
     48  CB         9.1290  140.9840   76.3280 C.3   139  MET139      0.0401
     49  CG         8.2030  139.7870   76.2070 C.3   139  MET139      0.0596
     50  SD         6.4930  140.1450   76.8280 S.3   139  MET139     -0.1393
     51  CE         5.7430  140.8170   75.3840 C.3   139  MET139      0.0692
     52  N         11.1630  141.5440   78.7600 N.am  140  SER140     -0.1952
     53  CA        12.1400  141.0600   79.7510 C.3   140  SER140      0.1924
     54  C         11.5980  141.2970   81.1650 C.2   140  SER140      0.2314
     55  O         11.5460  140.4040   82.0130 O.2   140  SER140     -0.2863
     56  CB        13.4670  141.8360   79.6350 C.3   140  SER140      0.2116
     57  OG        14.1260  141.6110   78.4010 O.3   140  SER140     -0.2180
     58  N          7.8890  139.5290   81.8200 N.3   143  GLY143     -0.1210
     59  CA         7.9890  138.0820   81.8760 C.3   143  GLY143      0.1956
     60  C          8.6950  137.6790   83.1650 C.2   143  GLY143      0.2611
     61  O          8.2920  136.7210   83.8480 O.2   143  GLY143     -0.2717
     62  N          9.7620  138.4130   83.4970 N.am  144  ALA144     -0.1979
     63  CA        10.5060  138.1620   84.7250 C.3   144  ALA144      0.1597
     64  C          9.5650  138.4040   85.9100 C.2   144  ALA144      0.2287
     65  O          9.6910  137.7650   86.9390 O.2   144  ALA144     -0.2864
     66  CB        11.7120  139.0750   84.8160 C.3   144  ALA144      0.0319
     67  N          6.0970  137.9740   85.8460 N.3   146  VAL146     -0.1231
     68  CA         5.1630  136.8530   85.8630 C.3   146  VAL146      0.1692
     69  C          5.8140  135.5910   86.4270 C.2   146  VAL146      0.2591
     70  O          5.2370  134.9050   87.2700 O.2   146  VAL146     -0.2718
     71  CB         4.6290  136.5220   84.4330 C.3   146  VAL146      0.0266
     72  CG1        3.9520  135.1820   84.4150 C.3   146  VAL146      0.0020
     73  CG2        3.6490  137.5700   83.9810 C.3   146  VAL146      0.0020
     74  N          7.0190  135.2860   85.9630 N.am  147  ILE147     -0.1980
     75  CA         7.7010  134.0860   86.4090 C.3   147  ILE147      0.1595
     76  C          8.1040  134.1200   87.8700 C.2   147  ILE147      0.2287
     77  O          7.8090  133.1820   88.6170 O.2   147  ILE147     -0.2864
     78  CB         8.9450  133.8140   85.5700 C.3   147  ILE147      0.0276
     79  CG1        8.5430  133.5730   84.1170 C.3   147  ILE147      0.0022
     80  CG2        9.6940  132.6160   86.1230 C.3   147  ILE147      0.0022
     81  CD1        7.7450  132.3340   83.8970 C.3   147  ILE147      0.0001
     82  N          1.2260  139.5800   76.8410 N.3   269  ILE269     -0.1231
     83  CA         2.4200  139.0590   77.4390 C.3   269  ILE269      0.1692
     84  C          2.5070  137.5900   77.0630 C.2   269  ILE269      0.2592
     85  O          1.7570  136.7590   77.5860 O.2   269  ILE269     -0.2718
     86  CB         2.3430  139.2260   78.9750 C.3   269  ILE269      0.0266
     87  CG1        2.8700  140.6040   79.3500 C.3   269  ILE269      0.0019
     88  CG2        3.0770  138.1150   79.6900 C.3   269  ILE269      0.0020
     89  CD1        2.8870  140.8830   80.8260 C.3   269  ILE269      0.0001
     90  N          3.4000  137.2700   76.1340 N.am  270  LYS270     -0.1966
     91  CA         3.5780  135.8890   75.7450 C.3   270  LYS270      0.1713
     92  C          5.0700  135.5880   75.8280 C.2   270  LYS270      0.2458
     93  O          5.8970  136.4540   75.5430 O.2   270  LYS270     -0.2730
     94  CB         3.0340  135.6430   74.3280 C.3   270  LYS270      0.0311
     95  CG         3.9700  135.9650   73.1790 C.3   270  LYS270      0.0038
     96  CD         3.4890  135.2780   71.9100 C.3   270  LYS270      0.0206
     97  CE         4.4400  135.4930   70.7330 C.3   270  LYS270      0.1093
     98  NZ         4.0870  134.6400   69.5410 N.3   270  LYS270     -0.1314
     99  N          5.4370  134.3690   76.2600 N.am  271  PRO271     -0.2716
    100  CA         6.8300  133.9390   76.3890 C.3   271  PRO271      0.1536
    101  C          7.4820  133.4980   75.0990 C.2   271  PRO271      0.2598
    102  O          6.8250  133.3710   74.0790 O.2   271  PRO271     -0.2715
    103  CB         6.7430  132.8100   77.4040 C.3   271  PRO271      0.0310
    104  CG         5.4010  132.2570   77.1810 C.3   271  PRO271      0.0237
    105  CD         4.5540  133.4760   77.0260 C.3   271  PRO271      0.0939
    106  N          8.7910  133.2840   75.1510 N.am  272  GLU272     -0.1978
    107  CA         9.5520  132.8350   74.0000 C.3   272  GLU272      0.1602
    108  C          8.9870  131.4970   73.5470 C.2   272  GLU272      0.2287
    109  O          8.4800  130.7150   74.3480 O.2   272  GLU272     -0.2864
    110  CB        11.0140  132.7100   74.3810 C.3   272  GLU272      0.0415
    111  CG        11.6880  134.0520   74.6240 C.3   272  GLU272      0.1163
    112  CD        11.7660  134.9020   73.3620 C.2   272  GLU272      0.3649
    113  OE1       12.3670  134.4360   72.3710 O.co2 272  GLU272     -0.2457
    114  OE2       11.2260  136.0350   73.3440 O.co2 272  GLU272     -0.2457
    115  N         10.0310  128.5830   72.9950 N.3   274  TYR274     -0.1227
    116  CA        10.3740  127.3230   73.6730 C.3   274  TYR274      0.1736
    117  C          9.7900  127.1450   75.0630 C.2   274  TYR274      0.2595
    118  O          9.9660  126.1070   75.7010 O.2   274  TYR274     -0.2718
    119  CB        11.8910  127.1000   73.6930 C.3   274  TYR274      0.0548
    120  CG        12.6670  128.3160   74.1070 C.ar  274  TYR274     -0.0200
    121  CD1       12.7990  128.6540   75.4420 C.ar  274  TYR274     -0.0009
    122  CD2       13.2320  129.1630   73.1490 C.ar  274  TYR274     -0.0009
    123  CE1       13.4660  129.8040   75.8200 C.ar  274  TYR274      0.0417
    124  CE2       13.9090  130.3250   73.5180 C.ar  274  TYR274      0.0417
    125  CZ        14.0120  130.6320   74.8560 C.ar  274  TYR274      0.1957
    126  OH        14.6250  131.7970   75.2350 O.3   274  TYR274     -0.2866
    127  N          9.0670  128.1410   75.5360 N.am  275  PHE275     -0.1976
    128  CA         8.4550  128.0020   76.8400 C.3   275  PHE275      0.1639
    129  C          6.9130  128.0680   76.7160 C.2   275  PHE275      0.2290
    130  O          6.1860  127.9170   77.6940 O.2   275  PHE275     -0.2864
    131  CB         8.9790  129.0950   77.7770 C.3   275  PHE275      0.0560
    132  CG         8.4920  128.9540   79.1780 C.ar  275  PHE275     -0.0200
    133  CD1        8.8670  127.8590   79.9490 C.ar  275  PHE275     -0.0042
    134  CD2        7.6240  129.8910   79.7290 C.ar  275  PHE275     -0.0042
    135  CE1        8.3810  127.7010   81.2600 C.ar  275  PHE275     -0.0003
    136  CE2        7.1290  129.7440   81.0370 C.ar  275  PHE275     -0.0003
    137  CZ         7.5110  128.6470   81.8000 C.ar  275  PHE275     -0.0000
    138  N          3.7670  127.2760   79.3070 N.3   279  TYR279     -0.1241
    139  CA         2.9330  128.3870   79.7200 C.3   279  TYR279      0.1605
    140  C          1.4760  127.9700   79.5630 C.2   279  TYR279      0.2264
    141  O          0.6520  128.2000   80.4550 O.2   279  TYR279     -0.2867
    142  CB         3.2280  129.6080   78.8600 C.3   279  TYR279      0.0534
    143  CG         2.7130  130.9090   79.4200 C.ar  279  TYR279     -0.0201
    144  CD1        3.0240  131.3000   80.7210 C.ar  279  TYR279     -0.0009
    145  CD2        1.9830  131.7900   78.6190 C.ar  279  TYR279     -0.0009
    146  CE1        2.6310  132.5380   81.2070 C.ar  279  TYR279      0.0417
    147  CE2        1.5800  133.0270   79.0880 C.ar  279  TYR279      0.0417
    148  CZ         1.9080  133.4000   80.3780 C.ar  279  TYR279      0.1957
    149  OH         1.5200  134.6460   80.8280 O.3   279  TYR279     -0.2866
@<TRIPOS>BOND
     1    98    97    1
     2    97    96    1
     3    96    95    1
     4   113   112   ar
     5   115   116    1
     6   122   124   ar
     7   122   120   ar
     8    95    94    1
     9   114   112   ar
    10   112   111    1
    11   124   125   ar
    12   108   107    1
    13   108   109    2
    14   116   119    1
    15   116   117    1
    16   119   120    1
    17   107   110    1
    18   107   106    1
    19   102   101    2
    20   120   121   ar
    21    94    91    1
    22   110   111    1
    23    36    35    1
    24   125   126    1
    25   125   123   ar
    26   117   127   am
    27   117   118    2
    28   101   106   am
    29   101   100    1
    30    33    35   ar
    31    33    31   ar
    32    51    50    1
    33   121   123   ar
    34   127   128    1
    35    93    92    2
    36    35    34   ar
    37    91    92    1
    38    91    90    1
    39    92    99   am
    40    31    30   ar
    41    90    84   am
    42    49    48    1
    43    49    50    1
    44    99   100    1
    45    99   105    1
    46    48    45    1
    47   100   103    1
    48   129   128    1
    49   129   130    2
    50   128   131    1
    51    82    83    1
    52   105   104    1
    53    34    32   ar
    54    84    83    1
    55    84    85    2
    56   104   103    1
    57    83    86    1
    58    30    32   ar
    59    30    29    1
    60    44    45    1
    61    45    46    1
    62   131   132    1
    63    13    10    1
    64    29    26    1
    65    57    56    1
    66    26    25    1
    67    26    27    1
    68   145   147   ar
    69   145   143   ar
    70    46    52   am
    71    46    47    2
    72    28    27    2
    73    52    53    1
    74   142   143    1
    75   142   139    1
    76    86    87    1
    77    86    88    1
    78   147   148   ar
    79   132   134   ar
    80   132   133   ar
    81    10    11    1
    82    10     9    1
    83   138   139    1
    84    27    37   am
    85    87    89    1
    86   143   144   ar
    87    12    11    2
    88   140   139    1
    89   140   141    2
    90    56    53    1
    91   134   136   ar
    92    53    54    1
    93    11    14   am
    94   133   135   ar
    95   148   149    1
    96   148   146   ar
    97     6     7    1
    98     6     5    1
    99    37    38    1
   100   144   146   ar
   101     7     8    1
   102    14    15    1
   103     1     2    1
   104   136   137   ar
   105    40    39    2
   106     2     5    1
   107     2     3    1
   108    39    38    1
   109    54    55    2
   110   135   137   ar
   111    38    41    1
   112    15    16    1
   113    15    18    1
   114     4     3    2
   115    58    59    1
   116    17    16    2
   117    59    60    1
   118    18    19    1
   119    41    43    1
   120    41    42    1
   121    60    62   am
   122    60    61    2
   123    20    19   ar
   124    20    22   ar
   125    62    63    1
   126    19    21   ar
   127    81    79    1
   128    73    71    1
   129    79    78    1
   130    22    24   ar
   131    72    71    1
   132    71    68    1
   133    63    66    1
   134    63    64    1
   135    21    23   ar
   136    24    23   ar
   137    78    80    1
   138    78    75    1
   139    67    68    1
   140    68    69    1
   141    64    65    2
   142    74    75    1
   143    74    69   am
   144    75    76    1
   145    69    70    2
   146    76    77    2
