@<TRIPOS>MOLECULE
tmp/3l75C08.pdb
 80 76 0 0 0
SMALL
GASTEIGER

@<TRIPOS>ATOM
      1  N         42.1750  109.9800   77.5690 N.3    14  MET14      -0.1230
      2  CA        40.7970  110.4040   77.7450 C.3    14  MET14       0.1702
      3  C         40.1080  110.8150   76.4520 C.2    14  MET14       0.2592
      4  O         38.9520  110.4560   76.2290 O.2    14  MET14      -0.2718
      5  CB        40.7380  111.5530   78.7420 C.3    14  MET14       0.0401
      6  CG        41.1260  111.1490   80.1410 C.3    14  MET14       0.0596
      7  SD        40.7620  112.4710   81.2920 S.3    14  MET14      -0.1393
      8  CE        38.8750  112.3420   81.3820 C.3    14  MET14       0.0692
      9  N         40.8050  111.5750   75.6120 N.am   15  ILE15      -0.1980
     10  CA        40.2370  112.0050   74.3410 C.3    15  ILE15       0.1595
     11  C         40.0350  110.7870   73.4460 C.2    15  ILE15       0.2287
     12  O         39.0660  110.7000   72.6920 O.2    15  ILE15      -0.2864
     13  CB        41.1680  112.9850   73.6410 C.3    15  ILE15       0.0276
     14  CG1       41.3810  114.1990   74.5380 C.3    15  ILE15       0.0022
     15  CG2       40.5810  113.4040   72.3130 C.3    15  ILE15       0.0022
     16  CD1       42.4320  115.1620   74.0300 C.3    15  ILE15       0.0001
     17  N         39.5470  107.5970   74.5170 N.3    17  ASN17      -0.1225
     18  CA        38.4870  106.7240   75.0070 C.3    17  ASN17       0.1785
     19  C         37.0820  107.3020   74.8940 C.2    17  ASN17       0.2598
     20  O         36.1030  106.6250   75.2280 O.2    17  ASN17      -0.2718
     21  CB        38.7320  106.3340   76.4670 C.3    17  ASN17       0.1169
     22  CG        39.9690  105.4720   76.6520 C.2    17  ASN17       0.2627
     23  OD1       40.3820  104.7410   75.7460 O.2    17  ASN17      -0.2716
     24  ND2       40.5550  105.5370   77.8450 N.am   17  ASN17      -0.0877
     25  N         36.9650  108.5420   74.4300 N.am   18  SER18      -0.1938
     26  CA        35.6490  109.1560   74.3120 C.3    18  SER18       0.2055
     27  C         35.3840  109.7900   72.9550 C.2    18  SER18       0.2642
     28  O         34.2500  110.1640   72.6530 O.2    18  SER18      -0.2714
     29  CB        35.4540  110.2000   75.4190 C.3    18  SER18       0.2130
     30  OG        36.4340  111.2170   75.3480 O.3    18  SER18      -0.2179
     31  N         36.4130  109.9010   72.1250 N.am   19  LEU19      -0.1977
     32  CA        36.2170  110.5040   70.8140 C.3    19  LEU19       0.1596
     33  C         37.0020  109.9030   69.6550 C.2    19  LEU19       0.2287
     34  O         36.9410  110.4110   68.5410 O.2    19  LEU19      -0.2864
     35  CB        36.5090  112.0040   70.8890 C.3    19  LEU19       0.0297
     36  CG        35.4400  112.8420   71.5800 C.3    19  LEU19       0.0022
     37  CD1       35.9050  114.2820   71.7070 C.3    19  LEU19       0.0001
     38  CD2       34.1540  112.7440   70.7760 C.3    19  LEU19       0.0001
     39  N         29.5580  116.7170   81.3110 N.3   195  ILE195     -0.1245
     40  CA        30.6040  115.7050   81.5440 C.3   195  ILE195      0.1561
     41  C         30.0050  114.5390   82.3450 C.2   195  ILE195      0.2260
     42  O         30.2360  113.3660   82.0160 O.2   195  ILE195     -0.2867
     43  CB        31.8110  116.2630   82.3640 C.3   195  ILE195      0.0252
     44  CG1       32.4710  117.4460   81.6360 C.3   195  ILE195      0.0019
     45  CG2       32.8510  115.1690   82.5670 C.3   195  ILE195      0.0019
     46  CD1       32.9920  117.1000   80.2610 C.3   195  ILE195      0.0001
     47  N         27.7210  112.5210   79.9660 N.3   198  LEU198     -0.1231
     48  CA        28.5280  111.6440   79.1420 C.3   198  LEU198      0.1693
     49  C         29.2550  110.5490   79.9260 C.2   198  LEU198      0.2592
     50  O         29.4760  109.4460   79.4160 O.2   198  LEU198     -0.2718
     51  CB        29.5150  112.4690   78.3410 C.3   198  LEU198      0.0284
     52  CG        28.8400  113.3480   77.2870 C.3   198  LEU198      0.0019
     53  CD1       29.9100  114.0150   76.4340 C.3   198  LEU198      0.0001
     54  CD2       27.9240  112.4850   76.4020 C.3   198  LEU198      0.0001
     55  N         29.6210  110.8350   81.1660 N.am  199  THR199     -0.1953
     56  CA        30.2830  109.8240   81.9720 C.3   199  THR199      0.1897
     57  C         29.3500  108.6410   82.2810 C.2   199  THR199      0.2313
     58  O         29.7540  107.4830   82.2010 O.2   199  THR199     -0.2863
     59  CB        30.8040  110.4410   83.2690 C.3   199  THR199      0.1794
     60  OG1       32.0320  111.1070   82.9860 O.3   199  THR199     -0.2208
     61  CG2       31.0260  109.3750   84.3470 C.3   199  THR199      0.0378
     62  N         28.8190  106.5680   79.0070 N.3   202  HIS202     -0.1226
     63  CA        29.8490  105.6210   78.6070 C.3   202  HIS202      0.1752
     64  C         29.8840  104.3180   79.3700 C.2   202  HIS202      0.2595
     65  O         30.5650  103.3830   78.9590 O.2   202  HIS202     -0.2718
     66  CB        31.2180  106.2890   78.6170 C.3   202  HIS202      0.0759
     67  CG        31.3390  107.3820   77.6040 C.ar  202  HIS202      0.0818
     68  ND1       32.3800  108.2830   77.5970 N.ar  202  HIS202     -0.2268
     69  CD2       30.5260  107.7390   76.5800 C.ar  202  HIS202      0.1154
     70  CE1       32.2010  109.1520   76.6160 C.ar  202  HIS202      0.1986
     71  NE2       31.0840  108.8430   75.9840 N.ar  202  HIS202     -0.2212
     72  N         29.1430  104.2380   80.4680 N.am  203  GLU203     -0.1979
     73  CA        29.1050  102.9980   81.2310 C.3   203  GLU203      0.1602
     74  C         28.4880  101.9110   80.3690 C.2   203  GLU203      0.2287
     75  O         28.7750  100.7330   80.5410 O.2   203  GLU203     -0.2864
     76  CB        28.2550  103.1580   82.4910 C.3   203  GLU203      0.0415
     77  CG        28.8870  104.0170   83.5580 C.3   203  GLU203      0.1163
     78  CD        30.2270  103.4640   83.9950 C.2   203  GLU203      0.3649
     79  OE1       30.2430  102.3890   84.6460 O.co2 203  GLU203     -0.2457
     80  OE2       31.2620  104.0930   83.6700 O.co2 203  GLU203     -0.2457
@<TRIPOS>BOND
     1    34    33    2
     2    33    32    1
     3    38    36    1
     4    32    35    1
     5    32    31    1
     6    35    36    1
     7    36    37    1
     8    31    27   am
     9    15    13    1
    10    28    27    2
    11    12    11    2
    12    27    26    1
    13    11    10    1
    14    13    10    1
    15    13    14    1
    16    16    14    1
    17    26    25    1
    18    26    29    1
    19    10     9    1
    20    25    19   am
    21    17    18    1
    22    19    18    1
    23    19    20    2
    24    18    21    1
    25    30    29    1
    26     9     3   am
    27    23    22    2
    28    71    69   ar
    29    71    70   ar
    30     4     3    2
    31    54    52    1
    32    53    52    1
    33     3     2    1
    34    21    22    1
    35    69    67   ar
    36    70    68   ar
    37    22    24   am
    38    52    51    1
    39     1     2    1
    40    68    67   ar
    41    67    66    1
    42     2     5    1
    43    51    48    1
    44    63    66    1
    45    63    62    1
    46    63    64    1
    47     5     6    1
    48    65    64    2
    49    48    49    1
    50    48    47    1
    51    64    72   am
    52    50    49    2
    53    49    55   am
    54     6     7    1
    55    46    44    1
    56    74    75    2
    57    74    73    1
    58    72    73    1
    59    55    56    1
    60    73    76    1
    61     7     8    1
    62    39    40    1
    63    40    41    1
    64    40    43    1
    65    44    43    1
    66    56    57    1
    67    56    59    1
    68    42    41    2
    69    58    57    2
    70    43    45    1
    71    76    77    1
    72    60    59    1
    73    59    61    1
    74    77    78    1
    75    80    78   ar
    76    78    79   ar
