@<TRIPOS>MOLECULE
tmp/3l76A02.pdb
 127 124 0 0 0
SMALL
GASTEIGER

@<TRIPOS>ATOM
      1  N         26.8510  116.8950   47.2640 N.3   285  VAL285     -0.1231
      2  CA        28.2190  116.3910   47.3770 C.3   285  VAL285      0.1692
      3  C         28.2080  114.9340   47.8200 C.2   285  VAL285      0.2592
      4  O         27.8560  114.6250   48.9630 O.2   285  VAL285     -0.2718
      5  CB        29.0310  117.2120   48.4050 C.3   285  VAL285      0.0266
      6  CG1       30.3400  116.5070   48.7720 C.3   285  VAL285      0.0020
      7  CG2       29.2710  118.6440   47.9060 C.3   285  VAL285      0.0020
      8  N         28.5900  114.0340   46.9170 N.am  286  ASP286     -0.1960
      9  CA        28.6780  112.6260   47.2780 C.3   286  ASP286      0.1840
     10  C         29.9100  112.3480   48.1350 C.2   286  ASP286      0.2622
     11  O         30.9980  112.8750   47.8770 O.2   286  ASP286     -0.2715
     12  CB        28.6840  111.7340   46.0420 C.3   286  ASP286      0.1450
     13  CG        28.7220  110.2700   46.3960 C.2   286  ASP286      0.3671
     14  OD1       27.7400  109.7710   46.9860 O.co2 286  ASP286     -0.2456
     15  OD2       29.7410  109.6220   46.0950 O.co2 286  ASP286     -0.2456
     16  N         29.7320  111.5110   49.1520 N.am  287  ILE287     -0.1963
     17  CA        30.8230  111.1670   50.0640 C.3   287  ILE287      0.1727
     18  C         31.2500  109.6760   49.9680 C.2   287  ILE287      0.2616
     19  O         30.4260  108.7910   49.7490 O.2   287  ILE287     -0.2715
     20  CB        30.4300  111.4930   51.5200 C.3   287  ILE287      0.0290
     21  CG1       30.1190  112.9810   51.6590 C.3   287  ILE287      0.0022
     22  CG2       31.5200  111.0370   52.4960 C.3   287  ILE287      0.0023
     23  CD1       30.1780  113.4790   53.0640 C.3   287  ILE287      0.0001
     24  N         32.5440  109.4180   50.1240 N.am  288  ASP288     -0.1971
     25  CA        33.0670  108.0600   50.2170 C.3   288  ASP288      0.1709
     26  C         33.2880  107.6080   51.6650 C.2   288  ASP288      0.2293
     27  O         32.3710  107.1080   52.2940 O.2   288  ASP288     -0.2864
     28  CB        34.3850  107.9270   49.4560 C.3   288  ASP288      0.1436
     29  CG        34.9350  106.5080   49.5060 C.2   288  ASP288      0.3671
     30  OD1       34.1190  105.5940   49.7110 O.co2 288  ASP288     -0.2456
     31  OD2       36.1620  106.3140   49.3580 O.co2 288  ASP288     -0.2456
     32  N         33.6080  107.7350   55.6260 N.3   290  ILE290     -0.1245
     33  CA        33.2770  108.4660   56.8380 C.3   290  ILE290      0.1561
     34  C         33.8940  107.7350   58.0330 C.2   290  ILE290      0.2260
     35  O         33.5720  106.5720   58.3140 O.2   290  ILE290     -0.2867
     36  CB        31.7570  108.6500   57.0290 C.3   290  ILE290      0.0252
     37  CG1       31.1410  109.2950   55.7880 C.3   290  ILE290      0.0019
     38  CG2       31.4640  109.4910   58.2940 C.3   290  ILE290      0.0019
     39  CD1       29.6540  109.5280   55.9080 C.3   290  ILE290      0.0001
     40  N         24.1230  103.3440   47.3540 N.3   522  MET522     -0.1230
     41  CA        24.5890  104.5280   48.0660 C.3   522  MET522      0.1702
     42  C         25.8320  105.1360   47.4110 C.2   522  MET522      0.2592
     43  O         26.2340  106.2500   47.7330 O.2   522  MET522     -0.2718
     44  CB        24.7870  104.2540   49.5640 C.3   522  MET522      0.0401
     45  CG        26.0730  103.5330   49.9470 C.3   522  MET522      0.0596
     46  SD        26.2750  103.3890   51.7410 S.3   522  MET522     -0.1393
     47  CE        24.7430  102.6340   52.2240 C.3   522  MET522      0.0692
     48  N         26.4100  104.4100   46.4620 N.am  523  ILE523     -0.1966
     49  CA        27.5630  104.8900   45.7140 C.3   523  ILE523      0.1727
     50  C         27.1760  106.0000   44.7250 C.2   523  ILE523      0.2617
     51  O         26.2850  105.8310   43.8870 O.2   523  ILE523     -0.2715
     52  CB        28.2270  103.7410   44.9450 C.3   523  ILE523      0.0290
     53  CG1       28.7340  102.6680   45.9080 C.3   523  ILE523      0.0022
     54  CG2       29.3680  104.2480   44.1030 C.3   523  ILE523      0.0023
     55  CD1       29.3340  101.4520   45.1950 C.3   523  ILE523      0.0001
     56  N         27.8520  107.1380   44.8190 N.am  524  GLY524     -0.1940
     57  CA        27.5190  108.2740   43.9780 C.3   524  GLY524      0.2014
     58  C         26.1090  108.7690   44.2270 C.2   524  GLY524      0.2639
     59  O         25.4310  109.1960   43.3030 O.2   524  GLY524     -0.2714
     60  N         25.6760  108.7080   45.4830 N.am  525  HIS525     -0.1959
     61  CA        24.3250  109.0950   45.8700 C.3   525  HIS525      0.1772
     62  C         24.3660  109.9400   47.1540 C.2   525  HIS525      0.2462
     63  O         24.3780  109.4110   48.2610 O.2   525  HIS525     -0.2730
     64  CB        23.4780  107.8340   46.0690 C.3   525  HIS525      0.0785
     65  CG        22.0120  108.0970   46.2130 C.ar  525  HIS525      0.0821
     66  ND1       21.4280  108.4050   47.4220 N.ar  525  HIS525     -0.2267
     67  CD2       21.0140  108.0950   45.3020 C.ar  525  HIS525      0.1154
     68  CE1       20.1310  108.5850   47.2500 C.ar  525  HIS525      0.1986
     69  NE2       19.8540  108.4040   45.9720 N.ar  525  HIS525     -0.2212
     70  N         24.4100  111.2680   47.0080 N.am  526  PRO526     -0.2716
     71  CA        24.5620  112.1150   48.1950 C.3   526  PRO526      0.1536
     72  C         23.3860  111.9990   49.1620 C.2   526  PRO526      0.2599
     73  O         22.2650  111.7270   48.7400 O.2   526  PRO526     -0.2715
     74  CB        24.6460  113.5310   47.6110 C.3   526  PRO526      0.0310
     75  CG        25.1540  113.3330   46.2230 C.3   526  PRO526      0.0237
     76  CD        24.5370  112.0340   45.7610 C.3   526  PRO526      0.0939
     77  N         23.6630  112.1710   50.4520 N.am  527  GLY527     -0.1941
     78  CA        22.6240  112.2030   51.4610 C.3   527  GLY527      0.2014
     79  C         22.2030  110.8840   52.0850 C.2   527  GLY527      0.2639
     80  O         21.2900  110.8880   52.9140 O.2   527  GLY527     -0.2714
     81  N         22.8350  109.7660   51.7140 N.am  528  VAL528     -0.1963
     82  CA        22.4860  108.4900   52.3420 C.3   528  VAL528      0.1727
     83  C         22.9670  108.4390   53.7940 C.2   528  VAL528      0.2616
     84  O         22.2070  108.1710   54.7250 O.2   528  VAL528     -0.2715
     85  CB        23.0480  107.2800   51.5830 C.3   528  VAL528      0.0290
     86  CG1       22.8080  106.0120   52.3790 C.3   528  VAL528      0.0023
     87  CG2       22.4100  107.1710   50.2100 C.3   528  VAL528      0.0023
     88  N         24.2460  108.6860   53.9930 N.am  529  ALA529     -0.1963
     89  CA        24.7490  108.7450   55.3490 C.3   529  ALA529      0.1728
     90  C         23.9790  109.7950   56.1660 C.2   529  ALA529      0.2616
     91  O         23.6770  109.5790   57.3420 O.2   529  ALA529     -0.2715
     92  CB        26.2280  109.0430   55.3450 C.3   529  ALA529      0.0334
     93  N         23.6500  110.9230   55.5400 N.am  530  ALA530     -0.1977
     94  CA        22.9750  111.9890   56.2610 C.3   530  ALA530      0.1597
     95  C         21.6160  111.5240   56.7620 C.2   530  ALA530      0.2287
     96  O         21.2350  111.7880   57.9030 O.2   530  ALA530     -0.2864
     97  CB        22.8450  113.2320   55.4010 C.3   530  ALA530      0.0319
     98  N         32.9980  102.9710   57.6400 N.3   548  THR548     -0.1203
     99  CA        32.3580  102.9310   56.3430 C.3   548  THR548      0.1994
    100  C         33.0670  102.0080   55.3340 C.2   548  THR548      0.2619
    101  O         34.2490  101.6960   55.4770 O.2   548  THR548     -0.2717
    102  CB        32.2370  104.3830   55.8250 C.3   548  THR548      0.1784
    103  OG1       30.8660  104.7100   55.5760 O.3   548  THR548     -0.2211
    104  CG2       33.0760  104.6110   54.6200 C.3   548  THR548      0.0376
    105  N         32.3140  101.5150   54.3590 N.am  549  SER549     -0.1937
    106  CA        32.8860  101.1010   53.0740 C.3   549  SER549      0.2055
    107  C         32.0460  101.7810   51.9960 C.2   549  SER549      0.2642
    108  O         31.1860  102.5970   52.3090 O.2   549  SER549     -0.2714
    109  CB        32.9070   99.5780   52.9090 C.3   549  SER549      0.2130
    110  OG        31.6180   99.0510   52.7100 O.3   549  SER549     -0.2179
    111  N         32.2770  101.4780   50.7310 N.am  550  GLU550     -0.1976
    112  CA        31.4760  102.1290   49.6890 C.3   550  GLU550      0.1602
    113  C         29.9770  101.8320   49.7990 C.2   550  GLU550      0.2287
    114  O         29.1610  102.5990   49.3070 O.2   550  GLU550     -0.2864
    115  CB        31.9670  101.7560   48.2870 C.3   550  GLU550      0.0415
    116  CG        33.4490  102.0170   48.0330 C.3   550  GLU550      0.1163
    117  CD        34.3300  100.9650   48.6520 C.2   550  GLU550      0.3649
    118  OE1       33.7840   99.9840   49.2000 O.co2 550  GLU550     -0.2457
    119  OE2       35.5630  101.1130   48.5710 O.co2 550  GLU550     -0.2457
    120  N         27.5000  101.4800   55.9140 N.3   553  ILE553     -0.1245
    121  CA        27.7500  102.4240   57.0010 C.3   553  ILE553      0.1561
    122  C         27.3920  101.7540   58.3230 C.2   553  ILE553      0.2260
    123  O         26.2980  101.2110   58.4670 O.2   553  ILE553     -0.2867
    124  CB        26.9530  103.7430   56.8630 C.3   553  ILE553      0.0252
    125  CG1       27.2190  104.4110   55.5130 C.3   553  ILE553      0.0019
    126  CG2       27.3420  104.7020   57.9710 C.3   553  ILE553      0.0019
    127  CD1       26.0660  105.2680   55.0260 C.3   553  ILE553      0.0001
@<TRIPOS>BOND
     1    59    58    2
     2    51    50    2
     3    57    58    1
     4    57    56    1
     5    54    52    1
     6    58    60   am
     7    50    56   am
     8    50    49    1
     9    52    49    1
    10    52    53    1
    11    55    53    1
    12    67    69   ar
    13    67    65   ar
    14    60    61    1
    15    49    48    1
    16    76    75    1
    17    76    70    1
    18    61    64    1
    19    61    62    1
    20    69    68   ar
    21    12    13    1
    22    12     9    1
    23    64    65    1
    24    15    13   ar
    25    65    66   ar
    26    75    74    1
    27    13    14   ar
    28    48    42   am
    29     8     9    1
    30     8     3   am
    31    70    62   am
    32    70    71    1
    33    62    63    2
    34    68    66   ar
    35     1     2    1
    36     9    10    1
    37    40    41    1
    38     2     3    1
    39     2     5    1
    40    42    43    2
    41    42    41    1
    42    74    71    1
    43     3     4    2
    44    11    10    2
    45     7     5    1
    46   116   115    1
    47   116   117    1
    48    41    44    1
    49    10    16   am
    50    71    72    1
    51   115   112    1
    52     5     6    1
    53   119   117   ar
    54   117   118   ar
    55    73    72    2
    56    16    17    1
    57    72    77   am
    58   114   113    2
    59    31    29   ar
    60    28    29    1
    61    28    25    1
    62    29    30   ar
    63    44    45    1
    64   112   113    1
    65   112   111    1
    66    19    18    2
    67    45    46    1
    68    18    17    1
    69    18    24   am
    70    17    20    1
    71    24    25    1
    72    87    85    1
    73    25    26    1
    74    77    78    1
    75   111   107   am
    76    78    79    1
    77    20    21    1
    78    20    22    1
    79    85    82    1
    80    85    86    1
    81    21    23    1
    82    26    27    2
    83    81    79   am
    84    81    82    1
    85    46    47    1
    86   107   108    2
    87   107   106    1
    88    79    80    2
    89    82    83    1
    90   110   109    1
    91   109   106    1
    92   106   105    1
    93    83    88   am
    94    83    84    2
    95    88    89    1
    96   105   100   am
    97   104   102    1
    98   127   125    1
    99   100   101    2
   100   100    99    1
   101    92    89    1
   102    89    90    1
   103    97    94    1
   104   125   124    1
   105    93    90   am
   106    93    94    1
   107   103   102    1
   108    32    33    1
   109    37    39    1
   110    37    36    1
   111   102    99    1
   112   120   121    1
   113    90    91    2
   114    94    95    1
   115    99    98    1
   116    95    96    2
   117    33    36    1
   118    33    34    1
   119   124   121    1
   120   124   126    1
   121   121   122    1
   122    36    38    1
   123    34    35    2
   124   122   123    2
