@<TRIPOS>MOLECULE
tmp/3l76A03.pdb
 143 140 0 0 0
SMALL
GASTEIGER

@<TRIPOS>ATOM
      1  N         37.5640   86.7520   55.4890 N.3   353  MET353     -0.1230
      2  CA        38.1090   87.4650   56.6410 C.3   353  MET353      0.1702
      3  C         37.0590   87.5270   57.7390 C.2   353  MET353      0.2592
      4  O         37.3800   87.7400   58.9020 O.2   353  MET353     -0.2718
      5  CB        38.5960   88.8740   56.2650 C.3   353  MET353      0.0401
      6  CG        37.4710   89.9150   56.1020 C.3   353  MET353      0.0596
      7  SD        37.9930   91.6450   55.9340 S.3   353  MET353     -0.1393
      8  CE        39.0490   91.5830   54.4780 C.3   353  MET353      0.0692
      9  N         35.8000   87.3310   57.3630 N.am  354  ILE354     -0.1966
     10  CA        34.7120   87.2590   58.3370 C.3   354  ILE354      0.1727
     11  C         34.9860   86.2210   59.4380 C.2   354  ILE354      0.2617
     12  O         35.0890   85.0350   59.1640 O.2   354  ILE354     -0.2715
     13  CB        33.3740   86.9240   57.6520 C.3   354  ILE354      0.0290
     14  CG1       33.1020   87.9020   56.5070 C.3   354  ILE354      0.0022
     15  CG2       32.2390   86.9060   58.6650 C.3   354  ILE354      0.0023
     16  CD1       31.6970   87.8500   55.9680 C.3   354  ILE354      0.0001
     17  N         35.1180   86.6770   60.6770 N.am  355  GLY355     -0.1940
     18  CA        35.2950   85.7770   61.8000 C.3   355  GLY355      0.2014
     19  C         36.6890   85.2050   61.9300 C.2   355  GLY355      0.2639
     20  O         36.9880   84.4760   62.8650 O.2   355  GLY355     -0.2714
     21  N         37.5590   85.5390   60.9950 N.am  356  ARG356     -0.1963
     22  CA        38.8960   84.9660   60.9850 C.3   356  ARG356      0.1714
     23  C         39.9590   85.9450   61.4960 C.2   356  ARG356      0.2458
     24  O         39.9820   87.1020   61.1030 O.2   356  ARG356     -0.2730
     25  CB        39.2300   84.4780   59.5720 C.3   356  ARG356      0.0347
     26  CG        40.6230   83.9540   59.4070 C.3   356  ARG356      0.0492
     27  CD        40.7370   83.2070   58.1130 C.3   356  ARG356      0.2205
     28  NE        42.1180   82.8610   57.8190 N.pl3 356  ARG356     -0.0865
     29  CZ        42.5050   82.2350   56.7160 C.cat 356  ARG356      0.5346
     30  NH1       41.6080   81.8910   55.7970 N.pl3 356  ARG356      0.1354
     31  NH2       43.7890   81.9670   56.5330 N.pl3 356  ARG356      0.1354
     32  N         40.8410   85.4790   62.3830 N.am  357  PRO357     -0.2716
     33  CA        41.8560   86.3330   63.0000 C.3   357  PRO357      0.1536
     34  C         43.0630   86.5570   62.1090 C.2   357  PRO357      0.2599
     35  O         43.2990   85.7730   61.1950 O.2   357  PRO357     -0.2715
     36  CB        42.2960   85.5180   64.2290 C.3   357  PRO357      0.0310
     37  CG        41.2770   84.4490   64.3830 C.3   357  PRO357      0.0237
     38  CD        40.8060   84.1530   63.0090 C.3   357  PRO357      0.0939
     39  N         43.8140   87.6190   62.3910 N.am  358  GLY358     -0.1941
     40  CA        45.1120   87.8620   61.7800 C.3   358  GLY358      0.2014
     41  C         45.1160   88.4980   60.4030 C.2   358  GLY358      0.2639
     42  O         46.1750   88.7880   59.8440 O.2   358  GLY358     -0.2714
     43  N         43.9350   88.7200   59.8430 N.am  359  ILE359     -0.1963
     44  CA        43.8670   89.2740   58.4970 C.3   359  ILE359      0.1727
     45  C         44.2220   90.7700   58.4730 C.2   359  ILE359      0.2616
     46  O         45.1060   91.2080   57.7350 O.2   359  ILE359     -0.2715
     47  CB        42.4890   89.0450   57.8620 C.3   359  ILE359      0.0290
     48  CG1       42.0730   87.5670   58.0060 C.3   359  ILE359      0.0022
     49  CG2       42.4990   89.5450   56.4130 C.3   359  ILE359      0.0023
     50  CD1       43.1550   86.5780   57.6030 C.3   359  ILE359      0.0001
     51  N         43.5330   91.5480   59.2970 N.am  360  ALA360     -0.1963
     52  CA        43.8340   92.9610   59.4360 C.3   360  ALA360      0.1728
     53  C         45.2920   93.1380   59.8430 C.2   360  ALA360      0.2616
     54  O         46.0200   93.9920   59.3090 O.2   360  ALA360     -0.2715
     55  CB        42.8900   93.5980   60.4500 C.3   360  ALA360      0.0334
     56  N         45.7250   92.2900   60.7680 N.am  361  ALA361     -0.1977
     57  CA        47.0770   92.3620   61.3040 C.3   361  ALA361      0.1597
     58  C         48.1180   92.1590   60.2100 C.2   361  ALA361      0.2287
     59  O         49.1540   92.8320   60.1700 O.2   361  ALA361     -0.2864
     60  CB        47.2510   91.3350   62.3970 C.3   361  ALA361      0.0319
     61  N         36.8590   99.7570   58.7530 N.3   379  THR379     -0.1203
     62  CA        36.4010   98.4280   58.3800 C.3   379  THR379      0.1994
     63  C         34.9200   98.3380   58.0000 C.2   379  THR379      0.2619
     64  O         34.0660   99.0540   58.5320 O.2   379  THR379     -0.2717
     65  CB        36.6880   97.3760   59.4680 C.3   379  THR379      0.1784
     66  OG1       36.0930   97.7830   60.7060 O.3   379  THR379     -0.2211
     67  CG2       38.1770   97.1960   59.6410 C.3   379  THR379      0.0376
     68  N         34.6330   97.4510   57.0460 N.am  380  SER380     -0.1937
     69  CA        33.2690   96.9600   56.8460 C.3   380  SER380      0.2055
     70  C         33.2410   95.4790   57.2290 C.2   380  SER380      0.2642
     71  O         34.0960   95.0150   57.9810 O.2   380  SER380     -0.2714
     72  CB        32.7490   97.2260   55.4120 C.3   380  SER380      0.2130
     73  OG        33.5030   96.5450   54.4190 O.3   380  SER380     -0.2179
     74  N         32.2770   94.7260   56.7190 N.am  381  GLU381     -0.1976
     75  CA        32.2620   93.2920   56.9900 C.3   381  GLU381      0.1602
     76  C         33.3600   92.5480   56.2400 C.2   381  GLU381      0.2287
     77  O         33.9630   91.6350   56.7730 O.2   381  GLU381     -0.2864
     78  CB        30.9140   92.6890   56.6240 C.3   381  GLU381      0.0415
     79  CG        30.7210   91.3160   57.1980 C.3   381  GLU381      0.1163
     80  CD        30.5430   91.3620   58.7010 C.2   381  GLU381      0.3649
     81  OE1       31.4750   90.9750   59.4380 O.co2 381  GLU381     -0.2457
     82  OE2       29.4670   91.8000   59.1440 O.co2 381  GLU381     -0.2457
     83  N         35.7890   94.3340   54.1120 N.3   383  LYS383     -0.1231
     84  CA        36.9070   95.2030   53.7290 C.3   383  LYS383      0.1693
     85  C         37.5780   95.8260   54.9230 C.2   383  LYS383      0.2591
     86  O         36.9120   96.2950   55.8540 O.2   383  LYS383     -0.2718
     87  CB        36.4340   96.3570   52.8140 C.3   383  LYS383      0.0285
     88  CG        36.2400   95.9620   51.3740 C.3   383  LYS383      0.0035
     89  CD        35.9630   97.1580   50.5100 C.3   383  LYS383      0.0206
     90  CE        35.5370   96.7220   49.1220 C.3   383  LYS383      0.1093
     91  NZ        35.4440   97.8820   48.1920 N.3   383  LYS383     -0.1314
     92  N         38.8970   95.8650   54.8940 N.am  384  VAL384     -0.1980
     93  CA        39.6120   96.8400   55.7160 C.3   384  VAL384      0.1595
     94  C         40.2640   97.9140   54.8250 C.2   384  VAL384      0.2287
     95  O         41.0690   97.6120   53.9410 O.2   384  VAL384     -0.2864
     96  CB        40.5790   96.1910   56.7540 C.3   384  VAL384      0.0276
     97  CG1       41.0450   94.8500   56.2900 C.3   384  VAL384      0.0022
     98  CG2       41.7540   97.1170   57.0680 C.3   384  VAL384      0.0022
     99  N         42.2020   85.6710   68.8220 N.3   456  ILE456     -0.1231
    100  CA        41.0860   86.5900   68.9150 C.3   456  ILE456      0.1692
    101  C         40.8320   87.2700   67.5680 C.2   456  ILE456      0.2593
    102  O         41.7070   87.9180   67.0030 O.2   456  ILE456     -0.2718
    103  CB        41.3200   87.6570   69.9850 C.3   456  ILE456      0.0266
    104  CG1       41.5120   87.0000   71.3550 C.3   456  ILE456      0.0019
    105  CG2       40.1630   88.6560   69.9880 C.3   456  ILE456      0.0020
    106  CD1       42.0290   87.9510   72.4250 C.3   456  ILE456      0.0001
    107  N         39.6250   87.1030   67.0570 N.am  457  SER457     -0.1938
    108  CA        39.2260   87.7250   65.8110 C.3   457  SER457      0.2055
    109  C         38.6390   89.0900   66.1180 C.2   457  SER457      0.2643
    110  O         37.8920   89.2450   67.0810 O.2   457  SER457     -0.2714
    111  CB        38.1880   86.8550   65.0870 C.3   457  SER457      0.2130
    112  OG        37.5270   87.5800   64.0620 O.3   457  SER457     -0.2179
    113  N         38.9660   90.0750   65.2880 N.am  458  VAL458     -0.1963
    114  CA        38.4960   91.4380   65.4950 C.3   458  VAL458      0.1727
    115  C         37.4040   91.8020   64.4910 C.2   458  VAL458      0.2616
    116  O         37.5070   91.4760   63.3150 O.2   458  VAL458     -0.2715
    117  CB        39.6620   92.4280   65.3130 C.3   458  VAL458      0.0290
    118  CG1       39.2250   93.8850   65.3820 C.3   458  VAL458      0.0023
    119  CG2       40.8870   92.0650   66.1540 C.3   458  VAL458      0.0023
    120  N         36.3760   92.5050   64.9550 N.am  459  ASP459     -0.1957
    121  CA        35.2170   92.8210   64.1230 C.3   459  ASP459      0.1840
    122  C         35.3060   94.1860   63.4460 C.2   459  ASP459      0.2622
    123  O         34.8710   94.3450   62.3070 O.2   459  ASP459     -0.2715
    124  CB        33.9350   92.7560   64.9490 C.3   459  ASP459      0.1450
    125  CG        32.6950   93.1180   64.1420 C.2   459  ASP459      0.3671
    126  OD1       32.4270   92.4620   63.1150 O.co2 459  ASP459     -0.2456
    127  OD2       31.9750   94.0520   64.5440 O.co2 459  ASP459     -0.2456
    128  N         35.8480   95.1680   64.1670 N.am  460  MET460     -0.1963
    129  CA        35.9390   96.5370   63.6750 C.3   460  MET460      0.1736
    130  C         37.2260   97.1990   64.1160 C.2   460  MET460      0.2616
    131  O         37.7010   96.9700   65.2170 O.2   460  MET460     -0.2715
    132  CB        34.7430   97.3630   64.1390 C.3   460  MET460      0.0427
    133  CG        33.4010   96.8240   63.6480 C.3   460  MET460      0.0599
    134  SD        33.0170   97.2740   61.9380 S.3   460  MET460     -0.1393
    135  CE        32.5340   98.9810   62.2310 C.3   460  MET460      0.0692
    136  N         37.8000   98.0040   63.2310 N.am  461  ILE461     -0.1977
    137  CA        38.9350   98.8450   63.5790 C.3   461  ILE461      0.1596
    138  C         38.7170  100.2310   62.9930 C.2   461  ILE461      0.2287
    139  O         38.4690  100.3700   61.7930 O.2   461  ILE461     -0.2864
    140  CB        40.2450   98.3020   63.0360 C.3   461  ILE461      0.0276
    141  CG1       40.3760   96.8160   63.3580 C.3   461  ILE461      0.0022
    142  CG2       41.4310   99.1240   63.5880 C.3   461  ILE461      0.0022
    143  CD1       41.5970   96.1740   62.7680 C.3   461  ILE461      0.0001
@<TRIPOS>BOND
     1    91    90    1
     2    90    89    1
     3    89    88    1
     4    88    87    1
     5    87    84    1
     6    84    83    1
     7    84    85    1
     8    95    94    2
     9    73    72    1
    10     8     7    1
    11    94    93    1
    12    92    85   am
    13    92    93    1
    14    85    86    2
    15    72    69    1
    16     1     2    1
    17    93    96    1
    18    30    29    1
    19     7     6    1
    20    16    14    1
    21     6     5    1
    22    76    77    2
    23    76    75    1
    24     5     2    1
    25    97    96    1
    26    49    47    1
    27    14    13    1
    28    31    29    1
    29    78    75    1
    30    78    79    1
    31     2     3    1
    32    29    28    2
    33    74    75    1
    34    74    70   am
    35    96    98    1
    36    69    68    1
    37    69    70    1
    38    68    63   am
    39    79    80    1
    40    70    71    2
    41     9     3   am
    42     9    10    1
    43    50    48    1
    44    13    10    1
    45    13    15    1
    46    46    45    2
    47     3     4    2
    48    28    27    1
    49    47    48    1
    50    47    44    1
    51    63    62    1
    52    63    64    2
    53    27    26    1
    54    10    11    1
    55    62    61    1
    56    62    65    1
    57    45    44    1
    58    45    51   am
    59    44    43    1
    60    80    82   ar
    61    80    81   ar
    62    12    11    2
    63    51    52    1
    64    54    53    2
    65    26    25    1
    66    52    53    1
    67    52    55    1
    68    11    17   am
    69    65    67    1
    70    65    66    1
    71    25    22    1
    72    53    56   am
    73    43    41   am
    74    42    41    2
    75    59    58    2
    76    58    57    1
    77    41    40    1
    78    17    18    1
    79    56    57    1
    80    22    21    1
    81    22    23    1
    82    21    19   am
    83    24    23    2
    84    35    34    2
    85    57    60    1
    86    23    32   am
    87    40    39    1
    88   139   138    2
    89    18    19    1
    90    19    20    2
    91   134   135    1
    92   134   133    1
    93    34    39   am
    94    34    33    1
    95   123   122    2
    96    32    33    1
    97    32    38    1
    98   143   141    1
    99   138   137    1
   100    33    36    1
   101    38    37    1
   102   140   141    1
   103   140   137    1
   104   140   142    1
   105   126   125   ar
   106   136   137    1
   107   136   130   am
   108   116   115    2
   109   122   121    1
   110   122   128   am
   111   133   132    1
   112   129   130    1
   113   129   132    1
   114   129   128    1
   115   112   111    1
   116   130   131    2
   117   121   124    1
   118   121   120    1
   119   125   127   ar
   120   125   124    1
   121    36    37    1
   122   115   120   am
   123   115   114    1
   124   111   108    1
   125   113   114    1
   126   113   109   am
   127   117   118    1
   128   117   114    1
   129   117   119    1
   130   108   109    1
   131   108   107    1
   132   109   110    2
   133   102   101    2
   134   107   101   am
   135   101   100    1
   136    99   100    1
   137   100   103    1
   138   103   105    1
   139   103   104    1
   140   104   106    1
