@<TRIPOS>MOLECULE
tmp/3l76A01.pdb
 113 110 0 0 0
SMALL
GASTEIGER

@<TRIPOS>ATOM
      1  N         55.4030  101.9950   55.0140 N.3   372  VAL372     -0.1231
      2  CA        54.3320  102.9740   54.8290 C.3   372  VAL372      0.1692
      3  C         53.4600  103.1330   56.0700 C.2   372  VAL372      0.2592
      4  O         52.9860  102.1510   56.6380 O.2   372  VAL372     -0.2718
      5  CB        53.4900  102.7700   53.5180 C.3   372  VAL372      0.0266
      6  CG1       54.1580  101.7780   52.5820 C.3   372  VAL372      0.0020
      7  CG2       52.0730  102.3780   53.8100 C.3   372  VAL372      0.0020
      8  N         53.2960  104.3860   56.4910 N.am  373  ASN373     -0.1960
      9  CA        52.5310  104.7220   57.6750 C.3   373  ASN373      0.1819
     10  C         51.0370  104.7390   57.3790 C.2   373  ASN373      0.2621
     11  O         50.6100  105.2590   56.3510 O.2   373  ASN373     -0.2715
     12  CB        52.9630  106.0960   58.2180 C.3   373  ASN373      0.1195
     13  CG        52.2200  106.4760   59.4890 C.2   373  ASN373      0.2630
     14  OD1       52.4560  105.9010   60.5470 O.2   373  ASN373     -0.2716
     15  ND2       51.2990  107.4300   59.3800 N.am  373  ASN373     -0.0877
     16  N         50.2470  104.1890   58.2980 N.am  374  ILE374     -0.1977
     17  CA        48.7970  104.1890   58.1700 C.3   374  ILE374      0.1596
     18  C         48.2050  105.4060   58.8870 C.2   374  ILE374      0.2287
     19  O         48.3840  105.5730   60.0840 O.2   374  ILE374     -0.2864
     20  CB        48.1910  102.9070   58.7720 C.3   374  ILE374      0.0276
     21  CG1       48.8790  101.6710   58.1870 C.3   374  ILE374      0.0022
     22  CG2       46.6620  102.8990   58.5780 C.3   374  ILE374      0.0022
     23  CD1       48.5230  100.3780   58.8700 C.3   374  ILE374      0.0001
     24  N         48.4840  105.8700   70.3560 N.3   437  VAL437     -0.1231
     25  CA        49.4190  105.0000   69.6620 C.3   437  VAL437      0.1678
     26  C         50.3430  105.8930   68.8640 C.2   437  VAL437      0.2434
     27  O         49.8760  106.7550   68.1110 O.2   437  VAL437     -0.2733
     28  CB        48.6840  103.9950   68.7210 C.3   437  VAL437      0.0265
     29  CG1       49.6740  103.1570   67.9300 C.3   437  VAL437      0.0020
     30  CG2       47.7550  103.0900   69.5070 C.3   437  VAL437      0.0020
     31  N         51.6590  105.7150   69.0450 N.am  438  PRO438     -0.2718
     32  CA        52.6430  106.4730   68.2600 C.3   438  PRO438      0.1535
     33  C         52.3380  106.3690   66.7690 C.2   438  PRO438      0.2599
     34  O         52.2020  105.2600   66.2400 O.2   438  PRO438     -0.2715
     35  CB        53.9680  105.7640   68.5770 C.3   438  PRO438      0.0310
     36  CG        53.7580  105.1530   69.9270 C.3   438  PRO438      0.0237
     37  CD        52.2980  104.7470   69.9530 C.3   438  PRO438      0.0939
     38  N         52.2050  107.5130   66.1090 N.am  439  ASP439     -0.1958
     39  CA        51.8400  107.5330   64.7040 C.3   439  ASP439      0.1840
     40  C         53.0610  107.2550   63.8000 C.2   439  ASP439      0.2622
     41  O         53.5430  108.1270   63.0790 O.2   439  ASP439     -0.2715
     42  CB        51.1330  108.8510   64.3410 C.3   439  ASP439      0.1450
     43  CG        50.5600  108.8330   62.9250 C.2   439  ASP439      0.3671
     44  OD1       50.2320  107.7330   62.4610 O.co2 439  ASP439     -0.2456
     45  OD2       50.4330  109.8910   62.2710 O.co2 439  ASP439     -0.2456
     46  N         53.5510  106.0250   63.8600 N.am  440  ARG440     -0.1964
     47  CA        54.6670  105.5970   63.0230 C.3   440  ARG440      0.1714
     48  C         54.4340  104.1630   62.5760 C.2   440  ARG440      0.2458
     49  O         53.6850  103.4280   63.2130 O.2   440  ARG440     -0.2730
     50  CB        56.0060  105.7370   63.7640 C.3   440  ARG440      0.0347
     51  CG        56.3090  104.6450   64.7880 C.3   440  ARG440      0.0492
     52  CD        57.4170  103.7270   64.2840 C.3   440  ARG440      0.2205
     53  NE        58.1630  103.0900   65.3640 N.pl3 440  ARG440     -0.0865
     54  CZ        58.3780  101.7820   65.4420 C.cat 440  ARG440      0.5346
     55  NH1       57.8860  100.9790   64.5060 N.pl3 440  ARG440      0.1354
     56  NH2       59.0700  101.2740   66.4550 N.pl3 440  ARG440      0.1354
     57  N         55.0740  103.7580   61.4640 N.am  441  PRO441     -0.2716
     58  CA        54.8280  102.4270   60.8880 C.3   441  PRO441      0.1536
     59  C         55.0370  101.2810   61.8700 C.2   441  PRO441      0.2599
     60  O         55.9280  101.3540   62.7160 O.2   441  PRO441     -0.2715
     61  CB        55.8400  102.3500   59.7420 C.3   441  PRO441      0.0310
     62  CG        56.0890  103.8140   59.3590 C.3   441  PRO441      0.0237
     63  CD        56.0860  104.5120   60.6970 C.3   441  PRO441      0.0939
     64  N         54.2020  100.2490   61.7650 N.am  442  GLY442     -0.1941
     65  CA        54.3520   99.0560   62.5740 C.3   442  GLY442      0.2014
     66  C         53.6010   99.0210   63.9010 C.2   442  GLY442      0.2639
     67  O         53.4750   97.9670   64.5200 O.2   442  GLY442     -0.2714
     68  N         53.0940  100.1620   64.3480 N.am  443  MET443     -0.1963
     69  CA        52.3930  100.2050   65.6270 C.3   443  MET443      0.1736
     70  C         51.0930   99.3960   65.6110 C.2   443  MET443      0.2616
     71  O         50.9120   98.5180   66.4420 O.2   443  MET443     -0.2715
     72  CB        52.1600  101.6490   66.0650 C.3   443  MET443      0.0427
     73  CG        53.4510  102.4380   66.2630 C.3   443  MET443      0.0599
     74  SD        54.5030  101.7490   67.5770 S.3   443  MET443     -0.1393
     75  CE        55.7750  100.9590   66.6300 C.3   443  MET443      0.0692
     76  N         50.2030   99.6790   64.6620 N.am  444  ALA444     -0.1963
     77  CA        48.9780   98.8910   64.5000 C.3   444  ALA444      0.1728
     78  C         49.2830   97.4140   64.2390 C.2   444  ALA444      0.2616
     79  O         48.5880   96.5290   64.7280 O.2   444  ALA444     -0.2715
     80  CB        48.1200   99.4510   63.3630 C.3   444  ALA444      0.0334
     81  N         50.3040   97.1600   63.4310 N.am  445  ALA445     -0.1977
     82  CA        50.7430   95.8000   63.1600 C.3   445  ALA445      0.1597
     83  C         51.0160   95.0580   64.4550 C.2   445  ALA445      0.2287
     84  O         50.5170   93.9510   64.6660 O.2   445  ALA445     -0.2864
     85  CB        51.9980   95.7900   62.2680 C.3   445  ALA445      0.0319
     86  N         40.3270  104.2580   63.0220 N.3   463  GLN463     -0.1245
     87  CA        41.4290  105.1350   63.3600 C.3   463  GLN463      0.1566
     88  C         41.2880  106.4000   62.5290 C.2   463  GLN463      0.2260
     89  O         41.1170  106.3350   61.3080 O.2   463  GLN463     -0.2867
     90  CB        42.7730  104.4400   63.1140 C.3   463  GLN463      0.0367
     91  CG        43.9800  105.3360   63.3130 C.3   463  GLN463      0.0905
     92  CD        45.2710  104.6480   62.9340 C.2   463  GLN463      0.2608
     93  OE1       45.6120  103.6010   63.4790 O.2   463  GLN463     -0.2717
     94  NE2       46.0050  105.2410   61.9970 N.am  463  GLN463     -0.0878
     95  N         47.8520  108.6850   67.4310 N.3   476  ARG476     -0.1245
     96  CA        46.4280  108.6010   67.1390 C.3   476  ARG476      0.1563
     97  C         45.8270  107.5750   68.0930 C.2   476  ARG476      0.2260
     98  O         46.5340  106.7160   68.5800 O.2   476  ARG476     -0.2867
     99  CB        46.1920  108.1610   65.6880 C.3   476  ARG476      0.0307
    100  CG        46.8270  109.0270   64.6180 C.3   476  ARG476      0.0489
    101  CD        46.5760  108.4640   63.2010 C.3   476  ARG476      0.2205
    102  NE        47.4700  109.0950   62.2340 N.pl3 476  ARG476     -0.0865
    103  CZ        47.1330  110.1120   61.4490 C.cat 476  ARG476      0.5346
    104  NH1       45.8970  110.5930   61.4760 N.pl3 476  ARG476      0.1354
    105  NH2       48.0330  110.6380   60.6260 N.pl3 476  ARG476      0.1354
    106  N         43.3420  104.3630   68.6070 N.3   478  ILE478     -0.1245
    107  CA        42.8500  103.2580   67.8040 C.3   478  ILE478      0.1561
    108  C         41.7440  102.5770   68.5750 C.2   478  ILE478      0.2260
    109  O         41.9720  102.0940   69.6720 O.2   478  ILE478     -0.2867
    110  CB        43.9650  102.2210   67.4830 C.3   478  ILE478      0.0252
    111  CG1       45.0720  102.8590   66.6470 C.3   478  ILE478      0.0019
    112  CG2       43.3870  100.9930   66.7530 C.3   478  ILE478      0.0019
    113  CD1       46.1620  101.8820   66.2300 C.3   478  ILE478      0.0001
@<TRIPOS>BOND
     1     6     5    1
     2     5     7    1
     3     5     2    1
     4     2     1    1
     5     2     3    1
     6     3     8   am
     7     3     4    2
     8    11    10    2
     9     8     9    1
    10    10     9    1
    11    10    16   am
    12     9    12    1
    13    17    16    1
    14    17    20    1
    15    17    18    1
    16    21    20    1
    17    21    23    1
    18    12    13    1
    19    22    20    1
    20    18    19    2
    21    62    61    1
    22    62    63    1
    23    15    13   am
    24    13    14    2
    25    61    58    1
    26   105   103    1
    27    63    57    1
    28    58    57    1
    29    58    59    1
    30    89    88    2
    31   103   104    1
    32   103   102    2
    33    57    48   am
    34    64    59   am
    35    64    65    1
    36    59    60    2
    37    94    92   am
    38   102   101    1
    39    85    82    1
    40    45    43   ar
    41    44    43   ar
    42    88    87    1
    43    65    66    1
    44    48    47    1
    45    48    49    2
    46    43    42    1
    47    92    91    1
    48    92    93    2
    49    86    87    1
    50    47    50    1
    51    47    46    1
    52    41    40    2
    53    90    91    1
    54    90    87    1
    55    82    81    1
    56    82    83    1
    57   101   100    1
    58    80    77    1
    59    81    78   am
    60    50    51    1
    61    40    46   am
    62    40    39    1
    63    66    68   am
    64    66    67    2
    65    78    77    1
    66    78    79    2
    67    52    51    1
    68    52    53    1
    69    42    39    1
    70    68    69    1
    71    83    84    2
    72    77    76    1
    73    55    54    1
    74   100    99    1
    75    76    70   am
    76    39    38    1
    77    53    54    2
    78    54    56    1
    79    70    69    1
    80    70    71    2
    81    69    72    1
    82    99    96    1
    83    72    73    1
    84    38    33   am
    85   113   111    1
    86    34    33    2
    87    73    74    1
    88    75    74    1
    89   111   110    1
    90   112   110    1
    91    33    32    1
    92    96    95    1
    93    96    97    1
    94   110   107    1
    95   107   108    1
    96   107   106    1
    97    29    28    1
    98    97    98    2
    99    27    26    2
   100    32    35    1
   101    32    31    1
   102   108   109    2
   103    35    36    1
   104    28    30    1
   105    28    25    1
   106    26    31   am
   107    26    25    1
   108    31    37    1
   109    25    24    1
   110    36    37    1
