@<TRIPOS>MOLECULE
tmp/3l76A00.pdb
 111 108 0 0 0
SMALL
GASTEIGER

@<TRIPOS>ATOM
      1  N         34.4690  118.7360   67.5760 N.3   266  VAL266     -0.1231
      2  CA        33.0700  119.1080   67.5170 C.3   266  VAL266      0.1678
      3  C         32.4160  118.5310   68.7870 C.2   266  VAL266      0.2434
      4  O         32.9780  117.6380   69.4180 O.2   266  VAL266     -0.2733
      5  CB        32.4460  118.5550   66.1960 C.3   266  VAL266      0.0265
      6  CG1       31.8630  117.1770   66.4120 C.3   266  VAL266      0.0020
      7  CG2       31.4040  119.4870   65.6500 C.3   266  VAL266      0.0020
      8  N         31.2450  119.0550   69.1900 N.am  267  PRO267     -0.2718
      9  CA        30.6110  118.5360   70.4150 C.3   267  PRO267      0.1535
     10  C         30.1360  117.0880   70.2700 C.2   267  PRO267      0.2599
     11  O         29.5720  116.7150   69.2360 O.2   267  PRO267     -0.2715
     12  CB        29.4030  119.4730   70.6210 C.3   267  PRO267      0.0310
     13  CG        29.7320  120.7120   69.8480 C.3   267  PRO267      0.0237
     14  CD        30.5550  120.2520   68.6720 C.3   267  PRO267      0.0939
     15  N         30.3530  116.2800   71.3030 N.am  268  ASP268     -0.1958
     16  CA        29.9310  114.8800   71.2630 C.3   268  ASP268      0.1840
     17  C         28.5250  114.6840   71.7980 C.2   268  ASP268      0.2622
     18  O         28.3390  114.2070   72.9130 O.2   268  ASP268     -0.2715
     19  CB        30.9040  113.9880   72.0390 C.3   268  ASP268      0.1450
     20  CG        30.5060  112.5170   71.9970 C.2   268  ASP268      0.3671
     21  OD1       29.7620  112.1100   71.0700 O.co2 268  ASP268     -0.2456
     22  OD2       30.9370  111.7650   72.8910 O.co2 268  ASP268     -0.2456
     23  N         27.5370  115.0420   70.9910 N.am  269  ARG269     -0.1964
     24  CA        26.1440  114.9090   71.3760 C.3   269  ARG269      0.1714
     25  C         25.3040  114.5750   70.1480 C.2   269  ARG269      0.2458
     26  O         25.7270  114.8240   69.0280 O.2   269  ARG269     -0.2730
     27  CB        25.6500  116.2160   71.9970 C.3   269  ARG269      0.0347
     28  CG        25.7710  117.4180   71.0750 C.3   269  ARG269      0.0492
     29  CD        25.0350  118.6390   71.6200 C.3   269  ARG269      0.2205
     30  NE        25.1720  119.7740   70.7100 N.pl3 269  ARG269     -0.0865
     31  CZ        25.8780  120.8710   70.9650 C.cat 269  ARG269      0.5346
     32  NH1       26.5030  121.0160   72.1270 N.pl3 269  ARG269      0.1354
     33  NH2       25.9480  121.8280   70.0510 N.pl3 269  ARG269      0.1354
     34  N         24.1030  114.0190   70.3560 N.am  270  PRO270     -0.2716
     35  CA        23.2150  113.7340   69.2280 C.3   270  PRO270      0.1536
     36  C         22.9610  114.9670   68.3580 C.2   270  PRO270      0.2599
     37  O         22.8070  116.0760   68.8740 O.2   270  PRO270     -0.2715
     38  CB        21.9170  113.2930   69.9160 C.3   270  PRO270      0.0310
     39  CG        22.3490  112.7620   71.2160 C.3   270  PRO270      0.0237
     40  CD        23.5010  113.6210   71.6380 C.3   270  PRO270      0.0939
     41  N         22.9280  114.7660   67.0450 N.am  271  GLY271     -0.1941
     42  CA        22.5750  115.8230   66.1180 C.3   271  GLY271      0.2014
     43  C         23.7320  116.4060   65.3330 C.2   271  GLY271      0.2639
     44  O         23.5330  116.9690   64.2610 O.2   271  GLY271     -0.2714
     45  N         24.9430  116.2800   65.8630 N.am  272  VAL272     -0.1963
     46  CA        26.1040  116.8720   65.2230 C.3   272  VAL272      0.1727
     47  C         26.3710  116.2660   63.8390 C.2   272  VAL272      0.2616
     48  O         26.3750  116.9830   62.8300 O.2   272  VAL272     -0.2715
     49  CB        27.3490  116.7550   66.0950 C.3   272  VAL272      0.0290
     50  CG1       28.5110  117.4590   65.4280 C.3   272  VAL272      0.0023
     51  CG2       27.0870  117.3610   67.4580 C.3   272  VAL272      0.0023
     52  N         26.5850  114.9540   63.7760 N.am  273  ALA273     -0.1963
     53  CA        26.8900  114.3350   62.4850 C.3   273  ALA273      0.1728
     54  C         25.7270  114.5460   61.5360 C.2   273  ALA273      0.2616
     55  O         25.9280  114.8610   60.3660 O.2   273  ALA273     -0.2715
     56  CB        27.2130  112.8490   62.6320 C.3   273  ALA273      0.0334
     57  N         24.5110  114.3870   62.0550 N.am  274  SER274     -0.1950
     58  CA        23.3090  114.6490   61.2780 C.3   274  SER274      0.1924
     59  C         23.3880  115.9800   60.5240 C.2   274  SER274      0.2314
     60  O         23.2320  116.0120   59.3060 O.2   274  SER274     -0.2863
     61  CB        22.0820  114.6400   62.1780 C.3   274  SER274      0.2116
     62  OG        20.9070  114.7810   61.4060 O.3   274  SER274     -0.2180
     63  N         34.8140  108.0410   62.1530 N.3   292  GLN292     -0.1245
     64  CA        34.7690  108.6750   63.4530 C.3   292  GLN292      0.1566
     65  C         35.1500  107.6840   64.5380 C.2   292  GLN292      0.2260
     66  O         34.3860  106.7690   64.8550 O.2   292  GLN292     -0.2867
     67  CB        33.3880  109.2470   63.7250 C.3   292  GLN292      0.0367
     68  CG        33.2840  109.9390   65.0860 C.3   292  GLN292      0.0905
     69  CD        31.8680  110.3590   65.4020 C.2   292  GLN292      0.2608
     70  OE1       31.2440  111.1520   64.6660 O.2   292  GLN292     -0.2717
     71  NE2       31.3370  109.8210   66.4900 N.am  292  GLN292     -0.0878
     72  N         34.4050  115.0500   69.7270 N.3   300  ASN300     -0.1240
     73  CA        34.9840  114.0950   68.7830 C.3   300  ASN300      0.1653
     74  C         35.3980  114.7760   67.4850 C.2   300  ASN300      0.2266
     75  O         35.0730  115.9350   67.2710 O.2   300  ASN300     -0.2867
     76  CB        33.9880  112.9720   68.4780 C.3   300  ASN300      0.1155
     77  CG        34.6680  111.6560   68.1570 C.2   300  ASN300      0.2627
     78  OD1       35.8230  111.6210   67.7450 O.2   300  ASN300     -0.2716
     79  ND2       33.9490  110.5630   68.3530 N.am  300  ASN300     -0.0877
     80  N         35.2000  114.3780   63.1300 N.3   302  ILE302     -0.1245
     81  CA        34.5230  113.6910   62.0470 C.3   302  ILE302      0.1561
     82  C         35.3180  113.8580   60.7470 C.2   302  ILE302      0.2260
     83  O         35.6180  114.9780   60.3330 O.2   302  ILE302     -0.2867
     84  CB        33.1040  114.1800   61.8610 C.3   302  ILE302      0.0252
     85  CG1       32.3070  113.9850   63.1540 C.3   302  ILE302      0.0019
     86  CG2       32.4510  113.4430   60.7010 C.3   302  ILE302      0.0019
     87  CD1       30.8560  114.4300   63.0770 C.3   302  ILE302      0.0001
     88  N         19.6200  109.6560   69.7940 N.3   541  ILE541     -0.1231
     89  CA        20.5830  108.5770   69.9570 C.3   541  ILE541      0.1692
     90  C         21.9740  109.0960   69.5940 C.2   541  ILE541      0.2592
     91  O         22.2040  109.6140   68.4990 O.2   541  ILE541     -0.2718
     92  CB        20.1950  107.3510   69.0860 C.3   541  ILE541      0.0266
     93  CG1       18.9770  106.6510   69.6710 C.3   541  ILE541      0.0019
     94  CG2       21.3300  106.3590   68.9830 C.3   541  ILE541      0.0020
     95  CD1       18.4270  105.5450   68.7980 C.3   541  ILE541      0.0001
     96  N         22.9050  108.9890   70.5260 N.am  542  ASN542     -0.1960
     97  CA        24.2310  109.5120   70.2730 C.3   542  ASN542      0.1819
     98  C         25.0700  108.5350   69.4650 C.2   542  ASN542      0.2621
     99  O         25.0280  107.3260   69.6930 O.2   542  ASN542     -0.2715
    100  CB        24.9370  109.8630   71.5820 C.3   542  ASN542      0.1195
    101  CG        26.2700  110.5440   71.3530 C.2   542  ASN542      0.2630
    102  OD1       26.3530  111.5480   70.6450 O.2   542  ASN542     -0.2716
    103  ND2       27.3260  109.9940   71.9470 N.am  542  ASN542     -0.0877
    104  N         25.8450  109.0680   68.5300 N.am  543  ILE543     -0.1977
    105  CA        26.6870  108.2290   67.6960 C.3   543  ILE543      0.1596
    106  C         28.1130  108.2370   68.2240 C.2   543  ILE543      0.2287
    107  O         28.7960  109.2600   68.1690 O.2   543  ILE543     -0.2864
    108  CB        26.6590  108.6880   66.2320 C.3   543  ILE543      0.0276
    109  CG1       25.2180  108.7100   65.7110 C.3   543  ILE543      0.0022
    110  CG2       27.5460  107.7840   65.3780 C.3   543  ILE543      0.0022
    111  CD1       25.0810  109.3160   64.3390 C.3   543  ILE543      0.0001
@<TRIPOS>BOND
     1    60    59    2
     2    83    82    2
     3    55    54    2
     4    59    58    1
     5    86    84    1
     6    82    81    1
     7    58    57    1
     8    58    61    1
     9    62    61    1
    10    54    57   am
    11    54    53    1
    12    84    81    1
    13    84    85    1
    14    81    80    1
    15    63    64    1
    16    53    56    1
    17    53    52    1
    18    48    47    2
    19    87    85    1
    20    64    67    1
    21    64    65    1
    22    67    68    1
    23    52    47   am
    24    47    46    1
    25    44    43    2
    26   111   109    1
    27    65    66    2
    28    70    69    2
    29    68    69    1
    30    46    45    1
    31    46    49    1
    32    43    45   am
    33    43    42    1
    34   110   108    1
    35    69    71   am
    36    50    49    1
    37     7     5    1
    38   109   108    1
    39    49    51    1
    40    42    41    1
    41     5     6    1
    42     5     2    1
    43   108   105    1
    44    41    36   am
    45    75    74    2
    46    74    73    1
    47     2     1    1
    48     2     3    1
    49   105   106    1
    50   105   104    1
    51    78    77    2
    52    77    79   am
    53    77    76    1
    54   107   106    2
    55    36    37    2
    56    36    35    1
    57    76    73    1
    58    91    90    2
    59   104    98   am
    60    14     8    1
    61    14    13    1
    62    73    72    1
    63     3     8   am
    64     3     4    2
    65    95    93    1
    66    94    92    1
    67    26    25    2
    68    92    93    1
    69    92    89    1
    70     8     9    1
    71    35    38    1
    72    35    34    1
    73    11    10    2
    74    98    99    2
    75    98    97    1
    76    90    89    1
    77    90    96   am
    78    88    89    1
    79    13    12    1
    80    38    39    1
    81    33    31    1
    82    25    34   am
    83    25    24    1
    84    10     9    1
    85    10    15   am
    86    97    96    1
    87    97   100    1
    88    34    40    1
    89     9    12    1
    90   102   101    2
    91    30    31    2
    92    30    29    1
    93    31    32    1
    94    23    24    1
    95    23    17   am
    96    21    20   ar
    97    28    29    1
    98    28    27    1
    99    39    40    1
   100    16    15    1
   101    16    17    1
   102    16    19    1
   103   101   100    1
   104   101   103   am
   105    24    27    1
   106    17    18    2
   107    20    19    1
   108    20    22   ar
