@<TRIPOS>MOLECULE
tmp/3l77A01.pdb
 87 85 0 0 0
SMALL
GASTEIGER

@<TRIPOS>ATOM
      1  N        -42.7310  -18.4730   -4.6130 N.3    93  PHE93      -0.1241
      2  CA       -43.2080  -17.3360   -3.8560 C.3    93  PHE93       0.1605
      3  C        -44.2240  -17.7420   -2.8020 C.2    93  PHE93       0.2264
      4  O        -45.3390  -18.1650   -3.1060 O.2    93  PHE93      -0.2867
      5  CB       -43.7410  -16.2640   -4.8010 C.3    93  PHE93       0.0534
      6  CG       -42.6820  -15.7010   -5.6880 C.ar   93  PHE93      -0.0203
      7  CD1      -41.9350  -14.6060   -5.2820 C.ar   93  PHE93      -0.0042
      8  CD2      -42.3850  -16.3020   -6.9010 C.ar   93  PHE93      -0.0042
      9  CE1      -40.9360  -14.0940   -6.0910 C.ar   93  PHE93      -0.0003
     10  CE2      -41.3900  -15.7970   -7.7140 C.ar   93  PHE93      -0.0003
     11  CZ       -40.6630  -14.6920   -7.3070 C.ar   93  PHE93      -0.0000
     12  N        -39.6590   -7.9620   -1.1010 N.3   145  ILE145     -0.1231
     13  CA       -41.0730   -8.1290   -1.4070 C.3   145  ILE145      0.1678
     14  C        -41.7170   -9.1800   -0.4980 C.2   145  ILE145      0.2434
     15  O        -41.1120  -10.2000   -0.1860 O.2   145  ILE145     -0.2733
     16  CB       -41.2860   -8.5260   -2.8810 C.3   145  ILE145      0.0265
     17  CG1      -40.4980   -9.7970   -3.2110 C.3   145  ILE145      0.0019
     18  CG2      -40.8910   -7.3730   -3.8020 C.3   145  ILE145      0.0020
     19  CD1      -40.8940  -10.4390   -4.5180 C.3   145  ILE145      0.0001
     20  N        -42.9490   -8.9230   -0.0490 N.am  146  PRO146     -0.2718
     21  CA       -43.6430  -10.0110    0.6430 C.3   146  PRO146      0.1535
     22  C        -43.7650  -11.2460   -0.2650 C.2   146  PRO146      0.2598
     23  O        -43.8710  -11.1100   -1.4940 O.2   146  PRO146     -0.2715
     24  CB       -45.0290   -9.4170    0.9600 C.3   146  PRO146      0.0310
     25  CG       -45.1140   -8.1220    0.2030 C.3   146  PRO146      0.0237
     26  CD       -43.7100   -7.6620   -0.0400 C.3   146  PRO146      0.0939
     27  N        -43.7300  -12.4270    0.3480 N.am  147  TYR147     -0.1974
     28  CA       -43.7570  -13.7130   -0.3610 C.3   147  TYR147      0.1639
     29  C        -42.4650  -14.0120   -1.1080 C.2   147  TYR147      0.2290
     30  O        -42.3290  -15.0750   -1.7140 O.2   147  TYR147     -0.2864
     31  CB       -44.9250  -13.8030   -1.3490 C.3   147  TYR147      0.0560
     32  CG       -46.2780  -13.5060   -0.7570 C.ar  147  TYR147     -0.0198
     33  CD1      -46.9500  -14.4520    0.0050 C.ar  147  TYR147     -0.0009
     34  CD2      -46.8940  -12.2830   -0.9790 C.ar  147  TYR147     -0.0009
     35  CE1      -48.2000  -14.1790    0.5460 C.ar  147  TYR147      0.0417
     36  CE2      -48.1320  -12.0000   -0.4470 C.ar  147  TYR147      0.0417
     37  CZ       -48.7830  -12.9500    0.3180 C.ar  147  TYR147      0.1957
     38  OH       -50.0240  -12.6640    0.8430 O.3   147  TYR147     -0.2866
     39  N        -40.7510  -10.0160  -15.8730 N.3   182  VAL182     -0.1245
     40  CA       -40.6170  -10.2530  -17.3020 C.3   182  VAL182      0.1561
     41  C        -41.5730  -11.3650  -17.7160 C.2   182  VAL182      0.2260
     42  O        -41.7910  -12.3240  -16.9680 O.2   182  VAL182     -0.2867
     43  CB       -39.1680  -10.6540  -17.6700 C.3   182  VAL182      0.0252
     44  CG1      -38.9840  -10.7000  -19.1920 C.3   182  VAL182      0.0019
     45  CG2      -38.1760   -9.6900  -17.0280 C.3   182  VAL182      0.0019
     46  N        -41.0650  -17.9170  -15.8900 N.3   186  PHE186     -0.1227
     47  CA       -40.6670  -17.6890  -14.5060 C.3   186  PHE186      0.1736
     48  C        -41.8580  -17.7460  -13.5430 C.2   186  PHE186      0.2596
     49  O        -42.9350  -17.2270  -13.8320 O.2   186  PHE186     -0.2718
     50  CB       -39.9690  -16.3360  -14.3950 C.3   186  PHE186      0.0547
     51  CG       -39.4440  -16.0320  -13.0240 C.ar  186  PHE186     -0.0202
     52  CD1      -38.1960  -16.4960  -12.6220 C.ar  186  PHE186     -0.0042
     53  CD2      -40.1910  -15.2680  -12.1400 C.ar  186  PHE186     -0.0042
     54  CE1      -37.7130  -16.2110  -11.3550 C.ar  186  PHE186     -0.0003
     55  CE2      -39.7170  -14.9780  -10.8750 C.ar  186  PHE186     -0.0003
     56  CZ       -38.4740  -15.4480  -10.4780 C.ar  186  PHE186     -0.0000
     57  N        -41.6580  -18.3770  -12.3920 N.am  187  GLY187     -0.1957
     58  CA       -42.6850  -18.4030  -11.3640 C.3   187  GLY187      0.1869
     59  C        -43.8480  -19.3170  -11.7000 C.2   187  GLY187      0.2309
     60  O        -44.9550  -19.1340  -11.1920 O.2   187  GLY187     -0.2863
     61  N        -45.2170  -19.7230  -14.6530 N.3   189  SER189     -0.1217
     62  CA       -46.1040  -19.0400  -15.5820 C.3   189  SER189      0.1889
     63  C        -45.8180  -19.5080  -17.0040 C.2   189  SER189      0.2288
     64  O        -45.1360  -20.5130  -17.2070 O.2   189  SER189     -0.2866
     65  CB       -45.9060  -17.5230  -15.4680 C.3   189  SER189      0.2089
     66  OG       -46.8990  -16.7990  -16.1830 O.3   189  SER189     -0.2183
     67  N        -48.2580  -13.0230  -21.3880 N.3   193  LYS193     -0.1245
     68  CA       -48.8640  -12.0480  -20.4810 C.3   193  LYS193      0.1561
     69  C        -48.6350  -10.6300  -21.0030 C.2   193  LYS193      0.2260
     70  O        -47.5340  -10.2960  -21.4220 O.2   193  LYS193     -0.2867
     71  CB       -48.2900  -12.2060  -19.0670 C.3   193  LYS193      0.0271
     72  CG       -48.3650  -13.6350  -18.5370 C.3   193  LYS193      0.0035
     73  CD       -47.8530  -13.7550  -17.1010 C.3   193  LYS193      0.0206
     74  CE       -46.3400  -13.6260  -17.0240 C.3   193  LYS193      0.1093
     75  NZ       -45.6290  -14.6720  -17.8120 N.3   193  LYS193     -0.1314
     76  N        -45.2380   -6.3210  -17.0990 N.3   199  TYR199     -0.1241
     77  CA       -44.1810   -7.1930  -17.6030 C.3   199  TYR199      0.1605
     78  C        -43.3700   -6.5870  -18.7290 C.2   199  TYR199      0.2264
     79  O        -43.9100   -6.0650  -19.7020 O.2   199  TYR199     -0.2867
     80  CB       -44.7540   -8.5220  -18.1010 C.3   199  TYR199      0.0534
     81  CG       -45.4300   -9.3270  -17.0310 C.ar  199  TYR199     -0.0201
     82  CD1      -44.6950  -10.1210  -16.1630 C.ar  199  TYR199     -0.0009
     83  CD2      -46.8100   -9.2880  -16.8790 C.ar  199  TYR199     -0.0009
     84  CE1      -45.3170  -10.8540  -15.1720 C.ar  199  TYR199      0.0417
     85  CE2      -47.4380  -10.0160  -15.8930 C.ar  199  TYR199      0.0417
     86  CZ       -46.6900  -10.7990  -15.0450 C.ar  199  TYR199      0.1957
     87  OH       -47.3190  -11.5230  -14.0580 O.3   199  TYR199     -0.2866
@<TRIPOS>BOND
     1    70    69    2
     2    67    68    1
     3    69    68    1
     4    68    71    1
     5    79    78    2
     6    44    43    1
     7    71    72    1
     8    78    77    1
     9    72    73    1
    10    80    77    1
    11    80    81    1
    12    75    74    1
    13    41    40    1
    14    41    42    2
    15    43    40    1
    16    43    45    1
    17    77    76    1
    18    40    39    1
    19    64    63    2
    20    73    74    1
    21    81    83   ar
    22    81    82   ar
    23    63    62    1
    24    83    85   ar
    25    66    65    1
    26    82    84   ar
    27    85    86   ar
    28    46    47    1
    29    62    65    1
    30    62    61    1
    31    84    86   ar
    32    86    87    1
    33    47    50    1
    34    47    48    1
    35    50    51    1
    36    49    48    2
    37    48    57   am
    38    51    52   ar
    39    51    53   ar
    40    52    54   ar
    41    57    58    1
    42    53    55   ar
    43    59    58    1
    44    59    60    2
    45    54    56   ar
    46    55    56   ar
    47    10    11   ar
    48    10     8   ar
    49    11     9   ar
    50     8     6   ar
    51     9     7   ar
    52     6     7   ar
    53     6     5    1
    54     5     2    1
    55     1     2    1
    56    19    17    1
    57     2     3    1
    58    18    16    1
    59    17    16    1
    60     4     3    2
    61    16    13    1
    62    30    29    2
    63    23    22    2
    64    13    12    1
    65    13    14    1
    66    31    32    1
    67    31    28    1
    68    29    28    1
    69    34    32   ar
    70    34    36   ar
    71    32    33   ar
    72    14    15    2
    73    14    20   am
    74    36    37   ar
    75    28    27    1
    76    22    27   am
    77    22    21    1
    78    20    26    1
    79    20    21    1
    80    26    25    1
    81    33    35   ar
    82    25    24    1
    83    37    35   ar
    84    37    38    1
    85    21    24    1
