@<TRIPOS>MOLECULE
tmp/3l7cA00.pdb
 183 175 0 0 0
SMALL
GASTEIGER

@<TRIPOS>ATOM
      1  N         33.0720   20.2300   39.3650 N.3    77  GLU77      -0.1245
      2  CA        31.7280   20.6870   38.9980 C.3    77  GLU77       0.1567
      3  C         30.7710   19.5320   38.7160 C.2    77  GLU77       0.2260
      4  O         31.1170   18.5880   37.9940 O.2    77  GLU77      -0.2867
      5  CB        31.7800   21.6160   37.7710 C.3    77  GLU77       0.0388
      6  CG        32.6470   22.8600   37.9620 C.3    77  GLU77       0.1160
      7  CD        32.5980   23.8020   36.7840 C.2    77  GLU77       0.3649
      8  OE1       33.5140   24.6470   36.6800 O.co2  77  GLU77      -0.2457
      9  OE2       31.6650   23.7000   35.9520 O.co2  77  GLU77      -0.2457
     10  N         29.5130   25.5240   36.0110 N.3   122  ASN122     -0.1225
     11  CA        29.4990   26.7390   35.2090 C.3   122  ASN122      0.1785
     12  C         28.7730   26.5940   33.8730 C.2   122  ASN122      0.2598
     13  O         28.1170   27.5280   33.4190 O.2   122  ASN122     -0.2718
     14  CB        30.9320   27.2070   34.9550 C.3   122  ASN122      0.1169
     15  CG        31.4870   28.0030   36.1140 C.2   122  ASN122      0.2627
     16  OD1       31.0780   29.1450   36.3420 O.2   122  ASN122     -0.2716
     17  ND2       32.4050   27.4040   36.8640 N.am  122  ASN122     -0.0877
     18  N         28.9090   25.4330   33.2450 N.am  123  GLY123     -0.1942
     19  CA        28.3840   25.2410   31.8960 C.3   123  GLY123      0.2014
     20  C         28.6490   23.8410   31.4150 C.2   123  GLY123      0.2639
     21  O         28.3140   22.8800   32.1120 O.2   123  GLY123     -0.2714
     22  N         29.2610   23.7260   30.2360 N.am  124  GLY124     -0.1939
     23  CA        29.4070   22.4250   29.5460 C.3   124  GLY124      0.2014
     24  C         30.1270   21.3160   30.3020 C.2   124  GLY124      0.2638
     25  O         29.6780   20.1590   30.3400 O.2   124  GLY124     -0.2714
     26  N         31.2580   21.6690   30.9000 N.am  125  LEU125     -0.1977
     27  CA        32.0850   20.7160   31.6320 C.3   125  LEU125      0.1596
     28  C         31.3330   20.1620   32.8480 C.2   125  LEU125      0.2287
     29  O         31.3680   18.9510   33.1210 O.2   125  LEU125     -0.2864
     30  CB        33.4050   21.4030   32.0420 C.3   125  LEU125      0.0297
     31  CG        34.4410   20.7190   32.9430 C.3   125  LEU125      0.0022
     32  CD1       35.8270   21.3360   32.7150 C.3   125  LEU125      0.0001
     33  CD2       34.0620   20.8500   34.4080 C.3   125  LEU125      0.0001
     34  N         28.2910   17.9740   31.6830 N.3   128  LEU128     -0.1245
     35  CA        28.8060   16.6880   31.1920 C.3   128  LEU128      0.1561
     36  C         28.9510   15.6800   32.3310 C.2   128  LEU128      0.2260
     37  O         28.4950   14.5510   32.2080 O.2   128  LEU128     -0.2867
     38  CB        30.1350   16.8530   30.4390 C.3   128  LEU128      0.0270
     39  CG        30.5720   15.5770   29.6870 C.3   128  LEU128      0.0019
     40  CD1       29.7280   15.3990   28.4160 C.3   128  LEU128      0.0001
     41  CD2       32.0590   15.5980   29.3610 C.3   128  LEU128      0.0001
     42  N         34.1870   31.1090   36.7640 N.3   265  ASN265     -0.1225
     43  CA        34.8790   31.2020   35.4720 C.3   265  ASN265      0.1785
     44  C         34.6570   29.9900   34.5810 C.2   265  ASN265      0.2597
     45  O         34.7430   28.8470   35.0300 O.2   265  ASN265     -0.2718
     46  CB        36.3790   31.3780   35.6840 C.3   265  ASN265      0.1169
     47  CG        36.6900   32.5120   36.6080 C.2   265  ASN265      0.2627
     48  OD1       36.2020   33.6380   36.4230 O.2   265  ASN265     -0.2716
     49  ND2       37.4880   32.2300   37.6300 N.am  265  ASN265     -0.0877
     50  N         34.3880   30.2570   33.3120 N.am  266  ASP266     -0.1960
     51  CA        34.1370   29.2280   32.3200 C.3   266  ASP266      0.1840
     52  C         35.2570   29.4170   31.3030 C.2   266  ASP266      0.2622
     53  O         35.4430   30.5240   30.7990 O.2   266  ASP266     -0.2715
     54  CB        32.7610   29.4950   31.6870 C.3   266  ASP266      0.1450
     55  CG        32.3430   28.4370   30.6660 C.2   266  ASP266      0.3671
     56  OD1       31.7900   27.3930   31.0780 O.co2 266  ASP266     -0.2456
     57  OD2       32.5170   28.6790   29.4450 O.co2 266  ASP266     -0.2456
     58  N         36.0290   28.3610   31.0330 N.am  267  ASN267     -0.1958
     59  CA        37.1170   28.4340   30.0410 C.3   267  ASN267      0.1819
     60  C         38.0940   29.5840   30.3130 C.2   267  ASN267      0.2621
     61  O         38.4870   30.3010   29.3910 O.2   267  ASN267     -0.2715
     62  CB        36.5440   28.5890   28.6250 C.3   267  ASN267      0.1195
     63  CG        36.1700   27.2670   27.9940 C.2   267  ASN267      0.2630
     64  OD1       37.0050   26.6050   27.3910 O.2   267  ASN267     -0.2716
     65  ND2       34.9040   26.8900   28.1070 N.am  267  ASN267     -0.0877
     66  N         38.4570   29.7690   31.5820 N.am  268  PHE268     -0.1974
     67  CA        39.3950   30.8210   31.9710 C.3   268  PHE268      0.1639
     68  C         40.0710   30.4740   33.2880 C.2   268  PHE268      0.2290
     69  O         39.4030   30.1870   34.2790 O.2   268  PHE268     -0.2864
     70  CB        38.6960   32.1840   32.0650 C.3   268  PHE268      0.0560
     71  CG        39.6300   33.3210   32.3690 C.ar  268  PHE268     -0.0200
     72  CD1       40.4180   33.8790   31.3650 C.ar  268  PHE268     -0.0042
     73  CD2       39.7230   33.8340   33.6580 C.ar  268  PHE268     -0.0042
     74  CE1       41.2900   34.9340   31.6400 C.ar  268  PHE268     -0.0003
     75  CE2       40.5970   34.8930   33.9490 C.ar  268  PHE268     -0.0003
     76  CZ        41.3830   35.4380   32.9410 C.ar  268  PHE268     -0.0000
     77  N         39.0300   17.3280   33.2440 N.3   315  ASP315     -0.1239
     78  CA        39.9760   18.4410   33.0480 C.3   315  ASP315      0.1674
     79  C         41.1650   18.3020   34.0140 C.2   315  ASP315      0.2266
     80  O         41.3340   17.2700   34.6470 O.2   315  ASP315     -0.2867
     81  CB        39.2830   19.8090   33.1950 C.3   315  ASP315      0.1410
     82  CG        39.8830   20.8810   32.2890 C.2   315  ASP315      0.3668
     83  OD1       41.1300   20.9210   32.1220 O.co2 315  ASP315     -0.2456
     84  OD2       39.0990   21.6980   31.7540 O.co2 315  ASP315     -0.2456
     85  N         41.5780   20.1080   36.6710 N.3   317  HIS317     -0.1241
     86  CA        41.2300   20.6180   38.0020 C.3   317  HIS317      0.1621
     87  C         41.5880   19.6520   39.1490 C.2   317  HIS317      0.2264
     88  O         42.0670   20.1040   40.1900 O.2   317  HIS317     -0.2867
     89  CB        39.7640   21.0790   38.0930 C.3   317  HIS317      0.0745
     90  CG        39.3140   21.9260   36.9390 C.ar  317  HIS317      0.0817
     91  ND1       37.9970   21.9870   36.5390 N.ar  317  HIS317     -0.2268
     92  CD2       40.0010   22.7300   36.0910 C.ar  317  HIS317      0.1154
     93  CE1       37.8890   22.8020   35.5040 C.ar  317  HIS317      0.1986
     94  NE2       39.0910   23.2670   35.2140 N.ar  317  HIS317     -0.2212
     95  N         39.2820   19.4120   27.8260 N.3   353  HIS353     -0.1226
     96  CA        38.0440   20.0830   27.4060 C.3   353  HIS353      0.1752
     97  C         38.2280   21.3640   26.5610 C.2   353  HIS353      0.2596
     98  O         37.2500   21.9500   26.1220 O.2   353  HIS353     -0.2718
     99  CB        37.1580   20.4060   28.6230 C.3   353  HIS353      0.0759
    100  CG        36.6160   19.2000   29.3250 C.ar  353  HIS353      0.0818
    101  ND1       35.4260   18.6020   28.9700 N.ar  353  HIS353     -0.2268
    102  CD2       37.1010   18.4840   30.3680 C.ar  353  HIS353      0.1154
    103  CE1       35.2030   17.5660   29.7610 C.ar  353  HIS353      0.1986
    104  NE2       36.2050   17.4740   30.6170 N.ar  353  HIS353     -0.2212
    105  N         39.4620   21.8070   26.3390 N.am  354  THR354     -0.1953
    106  CA        39.6790   23.0440   25.5690 C.3   354  THR354      0.1897
    107  C         41.1160   23.1780   25.0930 C.2   354  THR354      0.2313
    108  O         42.0310   22.6040   25.6900 O.2   354  THR354     -0.2863
    109  CB        39.2590   24.3320   26.3630 C.3   354  THR354      0.1794
    110  OG1       39.3960   25.4970   25.5310 O.3   354  THR354     -0.2208
    111  CG2       40.0960   24.5140   27.6110 C.3   354  THR354      0.0378
    112  N         42.7030   29.2010   29.2390 N.3   359  ALA359     -0.1245
    113  CA        41.9710   28.2460   30.0860 C.3   359  ALA359      0.1562
    114  C         42.8880   27.2260   30.7690 C.2   359  ALA359      0.2260
    115  O         42.4760   26.5370   31.7100 O.2   359  ALA359     -0.2867
    116  CB        40.8960   27.5360   29.2730 C.3   359  ALA359      0.0290
    117  N         37.1940   15.4760   23.2690 N.3   431  VAL431     -0.1245
    118  CA        35.7490   15.3080   23.5080 C.3   431  VAL431      0.1561
    119  C         34.9060   15.3870   22.2340 C.2   431  VAL431      0.2260
    120  O         33.6760   15.3570   22.2920 O.2   431  VAL431     -0.2867
    121  CB        35.2370   16.3020   24.5960 C.3   431  VAL431      0.0252
    122  CG1       35.8140   15.9240   25.9800 C.3   431  VAL431      0.0019
    123  CG2       35.5880   17.7570   24.2430 C.3   431  VAL431      0.0019
    124  N         31.5230   13.6450   23.0800 N.3   460  ASN460     -0.1240
    125  CA        30.5450   13.9710   24.1270 C.3   460  ASN460      0.1653
    126  C         29.1300   13.5020   23.7870 C.2   460  ASN460      0.2266
    127  O         28.8160   13.1900   22.6350 O.2   460  ASN460     -0.2867
    128  CB        30.5260   15.4880   24.4000 C.3   460  ASN460      0.1155
    129  CG        31.6520   15.9480   25.3400 C.2   460  ASN460      0.2627
    130  OD1       31.8580   17.1590   25.5340 O.2   460  ASN460     -0.2716
    131  ND2       32.3590   15.0050   25.9300 N.am  460  ASN460     -0.0877
    132  N         34.7680   33.7350   22.1440 N.3   549  TYR549     -0.1227
    133  CA        34.9240   32.6500   21.1580 C.3   549  TYR549      0.1736
    134  C         33.6040   32.0830   20.6480 C.2   549  TYR549      0.2595
    135  O         33.5440   31.5700   19.5240 O.2   549  TYR549     -0.2718
    136  CB        35.8860   31.5430   21.6320 C.3   549  TYR549      0.0548
    137  CG        35.2970   30.4320   22.4610 C.ar  549  TYR549     -0.0200
    138  CD1       34.7330   29.3030   21.8570 C.ar  549  TYR549     -0.0009
    139  CD2       35.3450   30.4740   23.8520 C.ar  549  TYR549     -0.0009
    140  CE1       34.2140   28.2680   22.6170 C.ar  549  TYR549      0.0417
    141  CE2       34.8180   29.4360   24.6240 C.ar  549  TYR549      0.0417
    142  CZ        34.2580   28.3420   24.0040 C.ar  549  TYR549      0.1957
    143  OH        33.7330   27.3100   24.7580 O.3   549  TYR549     -0.2866
    144  N         32.5600   32.1780   21.4690 N.am  550  LYS550     -0.1980
    145  CA        31.2350   31.6680   21.1110 C.3   550  LYS550      0.1596
    146  C         30.4770   32.6170   20.1690 C.2   550  LYS550      0.2287
    147  O         29.4620   32.2360   19.5750 O.2   550  LYS550     -0.2864
    148  CB        30.4200   31.3750   22.3780 C.3   550  LYS550      0.0298
    149  CG        30.9630   30.1720   23.1980 C.3   550  LYS550      0.0038
    150  CD        30.3530   30.1310   24.5990 C.3   550  LYS550      0.0206
    151  CE        30.8650   28.9600   25.4680 C.3   550  LYS550      0.1093
    152  NZ        30.3360   27.6320   24.9690 N.3   550  LYS550     -0.1314
    153  N         35.5260   25.6650   19.9420 N.3   648  GLU648     -0.1231
    154  CA        34.6000   24.9140   20.8000 C.3   648  GLU648      0.1699
    155  C         34.9520   23.4420   20.7100 C.2   648  GLU648      0.2592
    156  O         34.7110   22.8210   19.6770 O.2   648  GLU648     -0.2718
    157  CB        33.1440   25.1450   20.3740 C.3   648  GLU648      0.0402
    158  CG        32.1000   24.6120   21.3610 C.3   648  GLU648      0.1161
    159  CD        31.9230   25.5270   22.5660 C.2   648  GLU648      0.3649
    160  OE1       32.6040   25.3040   23.5860 O.co2 648  GLU648     -0.2457
    161  OE2       31.1240   26.4830   22.4840 O.co2 648  GLU648     -0.2457
    162  N         35.5280   22.8850   21.7830 N.am  649  ALA649     -0.1966
    163  CA        36.0190   21.5060   21.7570 C.3   649  ALA649      0.1728
    164  C         34.9610   20.5030   21.2570 C.2   649  ALA649      0.2617
    165  O         35.2360   19.6880   20.3750 O.2   649  ALA649     -0.2715
    166  CB        36.5530   21.0950   23.1190 C.3   649  ALA649      0.0334
    167  N         33.7610   20.5780   21.8210 N.am  650  SER650     -0.1936
    168  CA        32.6670   19.7260   21.3880 C.3   650  SER650      0.2055
    169  C         31.3850   20.5260   21.3310 C.2   650  SER650      0.2644
    170  O         30.7680   20.6520   20.2650 O.2   650  SER650     -0.2714
    171  CB        32.5190   18.5310   22.3380 C.3   650  SER650      0.2130
    172  OG        31.3360   17.7920   22.0880 O.3   650  SER650     -0.2179
    173  N         30.9970   21.0820   22.4780 N.am  651  GLY651     -0.1939
    174  CA        29.6440   21.5870   22.6560 C.3   651  GLY651      0.2014
    175  C         28.7440   20.4360   23.0660 C.2   651  GLY651      0.2639
    176  O         28.9850   19.2780   22.6870 O.2   651  GLY651     -0.2714
    177  N         27.7310   20.7400   23.8720 N.am  652  THR652     -0.1950
    178  CA        26.6910   19.7660   24.2090 C.3   652  THR652      0.1897
    179  C         25.2960   20.3730   24.0620 C.2   652  THR652      0.2313
    180  O         24.3260   19.6480   23.8100 O.2   652  THR652     -0.2863
    181  CB        26.8500   19.1760   25.6260 C.3   652  THR652      0.1794
    182  OG1       26.9590   20.2450   26.5680 O.3   652  THR652     -0.2208
    183  CG2       28.0930   18.2770   25.7250 C.3   652  THR652      0.0378
@<TRIPOS>BOND
     1   135   134    2
     2   147   146    2
     3   156   155    2
     4   153   154    1
     5   146   145    1
     6   170   169    2
     7   157   154    1
     8   157   158    1
     9   165   164    2
    10   134   133    1
    11   134   144   am
    12   155   154    1
    13   155   162   am
    14   145   144    1
    15   145   148    1
    16   133   136    1
    17   133   132    1
    18   164   163    1
    19   164   167   am
    20   169   168    1
    21   169   173   am
    22   158   159    1
    23   168   167    1
    24   168   171    1
    25   136   137    1
    26   163   162    1
    27   163   166    1
    28   138   137   ar
    29   138   140   ar
    30   172   171    1
    31   119   120    2
    32   119   118    1
    33   148   149    1
    34   137   139   ar
    35   173   174    1
    36   161   159   ar
    37   159   160   ar
    38   140   142   ar
    39   127   126    2
    40   174   175    1
    41   176   175    2
    42   175   177   am
    43   124   125    1
    44   149   150    1
    45   117   118    1
    46   118   121    1
    47   126   125    1
    48   180   179    2
    49   139   141   ar
    50   177   178    1
    51   142   141   ar
    52   142   143    1
    53   179   178    1
    54   125   128    1
    55   178   181    1
    56   123   121    1
    57   128   129    1
    58   121   122    1
    59   150   151    1
    60   152   151    1
    61   107   106    1
    62   107   108    2
    63   129   130    2
    64   129   131   am
    65   110   109    1
    66   106   105    1
    67   106   109    1
    68   181   183    1
    69   181   182    1
    70    98    97    2
    71   105    97   am
    72   109   111    1
    73    97    96    1
    74    64    63    2
    75    96    95    1
    76    96    99    1
    77    63    65   am
    78    63    62    1
    79    40    39    1
    80    99   100    1
    81    62    59    1
    82   101   100   ar
    83   101   103   ar
    84   112   113    1
    85   116   113    1
    86   100   102   ar
    87    41    39    1
    88    61    60    2
    89    57    55   ar
    90    23    22    1
    91    23    24    1
    92    39    38    1
    93   103   104   ar
    94    59    60    1
    95    59    58    1
    96   113   114    1
    97    22    20   am
    98    24    25    2
    99    24    26   am
   100    60    66   am
   101   102   104   ar
   102    38    35    1
   103    55    56   ar
   104    55    54    1
   105   114   115    2
   106    53    52    2
   107    26    27    1
   108    58    52   am
   109    35    34    1
   110    35    36    1
   111    52    51    1
   112    72    74   ar
   113    72    71   ar
   114    20    19    1
   115    20    21    2
   116    66    67    1
   117    27    30    1
   118    27    28    1
   119    74    76   ar
   120    54    51    1
   121    84    82   ar
   122    19    18    1
   123    67    70    1
   124    67    68    1
   125    30    31    1
   126    70    71    1
   127    83    82   ar
   128    37    36    2
   129    82    81    1
   130    51    50    1
   131    71    73   ar
   132    32    31    1
   133    28    29    2
   134    76    75   ar
   135    31    33    1
   136    78    81    1
   137    78    77    1
   138    78    79    1
   139    18    12   am
   140    68    69    2
   141    50    44   am
   142    13    12    2
   143    73    75   ar
   144    12    11    1
   145    79    80    2
   146    44    45    2
   147    44    43    1
   148    14    11    1
   149    14    15    1
   150    11    10    1
   151    94    93   ar
   152    94    92   ar
   153    43    46    1
   154    43    42    1
   155    93    91   ar
   156    46    47    1
   157     9     7   ar
   158    92    90   ar
   159    15    16    2
   160    15    17   am
   161    48    47    2
   162    91    90   ar
   163    47    49   am
   164    85    86    1
   165     8     7   ar
   166     7     6    1
   167    90    89    1
   168     5     6    1
   169     5     2    1
   170     4     3    2
   171    86    89    1
   172    86    87    1
   173     3     2    1
   174     2     1    1
   175    87    88    2
