@<TRIPOS>MOLECULE
tmp/3l7kD00.pdb
 203 202 0 0 0
SMALL
GASTEIGER

@<TRIPOS>ATOM
      1  N        -82.1050   78.1130    6.6010 N.3    48  PHE48      -0.1241
      2  CA       -81.4360   77.3320    7.6370 C.3    48  PHE48       0.1605
      3  C        -82.4380   76.7210    8.6230 C.2    48  PHE48       0.2264
      4  O        -82.3790   76.9670    9.8320 O.2    48  PHE48      -0.2867
      5  CB       -80.4190   78.1870    8.3970 C.3    48  PHE48       0.0534
      6  CG       -79.2130   78.5760    7.5890 C.ar   48  PHE48      -0.0203
      7  CD1      -78.3830   77.6120    7.0480 C.ar   48  PHE48      -0.0042
      8  CD2      -78.8940   79.9210    7.4000 C.ar   48  PHE48      -0.0042
      9  CE1      -77.2710   77.9790    6.3210 C.ar   48  PHE48      -0.0003
     10  CE2      -77.7880   80.2990    6.6720 C.ar   48  PHE48      -0.0003
     11  CZ       -76.9760   79.3290    6.1300 C.ar   48  PHE48      -0.0000
     12  N        -79.5410   85.0160    4.1720 N.3    55  ASP55      -0.1239
     13  CA       -79.0050   84.2150    3.0970 C.3    55  ASP55       0.1674
     14  C        -79.8050   84.2850    1.8030 C.2    55  ASP55       0.2266
     15  O        -80.6670   85.1470    1.6290 O.2    55  ASP55      -0.2867
     16  CB       -78.9030   82.7670    3.5420 C.3    55  ASP55       0.1410
     17  CG       -77.7510   82.0520    2.8920 C.2    55  ASP55       0.3668
     18  OD1      -77.9920   81.1860    2.0160 O.co2  55  ASP55      -0.2456
     19  OD2      -76.5970   82.3820    3.2480 O.co2  55  ASP55      -0.2456
     20  N        -78.9450   75.6690   -1.6150 N.3   131  TRP131     -0.1227
     21  CA       -77.8380   75.2190   -0.7740 C.3   131  TRP131      0.1737
     22  C        -77.1030   76.4060   -0.1460 C.2   131  TRP131      0.2595
     23  O        -77.5990   77.5310   -0.1530 O.2   131  TRP131     -0.2718
     24  CB       -76.8770   74.2970   -1.5330 C.3   131  TRP131      0.0564
     25  CG       -76.0270   73.4350   -0.6350 C.ar  131  TRP131      0.0003
     26  CD1      -74.6800   73.3190   -0.6650 C.ar  131  TRP131      0.0946
     27  CD2      -76.4770   72.5830    0.4280 C.ar  131  TRP131      0.0152
     28  NE1      -74.2550   72.4460    0.3040 N.ar  131  TRP131     -0.2442
     29  CE2      -75.3430   71.9830    0.9900 C.ar  131  TRP131      0.0810
     30  CE3      -77.7270   72.2730    0.9560 C.ar  131  TRP131      0.0012
     31  CZ2      -75.4190   71.0940    2.0470 C.ar  131  TRP131      0.0191
     32  CZ3      -77.7990   71.3890    2.0110 C.ar  131  TRP131      0.0001
     33  CH2      -76.6570   70.8090    2.5430 C.ar  131  TRP131      0.0015
     34  N        -75.9250   76.1690    0.4010 N.am  132  ASN132     -0.1960
     35  CA       -75.3880   77.1730    1.2710 C.3   132  ASN132      0.1819
     36  C        -73.8840   77.3310    1.2460 C.2   132  ASN132      0.2622
     37  O        -73.2660   77.5450    2.2880 O.2   132  ASN132     -0.2715
     38  CB       -75.8490   76.8880    2.6850 C.3   132  ASN132      0.1195
     39  CG       -75.5220   75.4850    3.1180 C.2   132  ASN132      0.2630
     40  OD1      -74.5790   75.2650    3.8780 O.2   132  ASN132     -0.2716
     41  ND2      -76.2940   74.5190    2.6330 N.am  132  ASN132     -0.0877
     42  N        -73.2940   77.2560    0.0600 N.am  133  GLY133     -0.1940
     43  CA       -71.8880   77.5770   -0.0900 C.3   133  GLY133      0.2014
     44  C        -71.1640   76.6420   -1.0260 C.2   133  GLY133      0.2640
     45  O        -71.7180   75.6530   -1.4750 O.2   133  GLY133     -0.2714
     46  N        -69.9160   76.9730   -1.3260 N.am  134  THR134     -0.1937
     47  CA       -69.0620   76.1110   -2.1190 C.3   134  THR134      0.2013
     48  C        -68.3470   75.1500   -1.1760 C.2   134  THR134      0.2484
     49  O        -67.6780   75.5830   -0.2420 O.2   134  THR134     -0.2729
     50  CB       -68.0650   76.9570   -2.9150 C.3   134  THR134      0.1807
     51  OG1      -68.7550   77.5870   -3.9980 O.3   134  THR134     -0.2208
     52  CG2      -66.9500   76.1040   -3.4720 C.3   134  THR134      0.0379
     53  N        -68.4950   73.8360   -1.4120 N.am  135  PRO135     -0.2715
     54  CA       -68.0480   72.7920   -0.4750 C.3   135  PRO135      0.1536
     55  C        -66.5370   72.7000   -0.3090 C.2   135  PRO135      0.2598
     56  O        -65.7880   72.8180   -1.2790 O.2   135  PRO135     -0.2715
     57  CB       -68.5590   71.4880   -1.1150 C.3   135  PRO135      0.0310
     58  CG       -69.5140   71.9010   -2.1720 C.3   135  PRO135      0.0237
     59  CD       -69.0820   73.2590   -2.6300 C.3   135  PRO135      0.0939
     60  N        -66.0910   72.4870    0.9210 N.am  136  LEU136     -0.1964
     61  CA       -64.7080   72.1050    1.1270 C.3   136  LEU136      0.1728
     62  C        -64.7230   70.6780    1.6030 C.2   136  LEU136      0.2616
     63  O        -64.4090   69.7770    0.8490 O.2   136  LEU136     -0.2715
     64  CB       -64.0050   72.9910    2.1540 C.3   136  LEU136      0.0311
     65  CG       -62.4770   72.8420    2.2070 C.3   136  LEU136      0.0022
     66  CD1      -61.8380   73.2700    0.8990 C.3   136  LEU136      0.0001
     67  CD2      -61.9080   73.6450    3.3500 C.3   136  LEU136      0.0001
     68  N        -65.1140   70.4770    2.8550 N.am  137  LYS137     -0.1977
     69  CA       -65.1770   69.1390    3.4180 C.3   137  LYS137      0.1596
     70  C        -66.2070   68.3270    2.6320 C.2   137  LYS137      0.2287
     71  O        -67.1520   68.8860    2.0810 O.2   137  LYS137     -0.2864
     72  CB       -65.5370   69.2150    4.8990 C.3   137  LYS137      0.0298
     73  CG       -65.2230   70.5650    5.5150 C.3   137  LYS137      0.0038
     74  CD       -65.5720   70.6020    6.9970 C.3   137  LYS137      0.0206
     75  CE       -66.1850   71.9620    7.3980 C.3   137  LYS137      0.1093
     76  NZ       -66.6140   72.0210    8.8370 N.3   137  LYS137     -0.1314
     77  N        -69.3350   66.0470    1.5340 N.3   139  LEU139     -0.1245
     78  CA       -70.7180   66.1110    2.0000 C.3   139  LEU139      0.1561
     79  C        -71.6030   65.0690    1.3780 C.2   139  LEU139      0.2260
     80  O        -71.2590   64.4770    0.3810 O.2   139  LEU139     -0.2867
     81  CB       -71.3340   67.4990    1.7650 C.3   139  LEU139      0.0270
     82  CG       -70.9990   68.3550    0.5380 C.3   139  LEU139      0.0019
     83  CD1      -70.7160   67.5020   -0.6880 C.3   139  LEU139      0.0001
     84  CD2      -72.1220   69.3530    0.2610 C.3   139  LEU139      0.0001
     85  N        -77.1960   85.1330   -2.2800 N.3   199  ARG199     -0.1245
     86  CA       -76.7170   85.7560   -1.0530 C.3   199  ARG199      0.1563
     87  C        -75.5020   86.6240   -1.3280 C.2   199  ARG199      0.2260
     88  O        -75.2300   87.5690   -0.5960 O.2   199  ARG199     -0.2867
     89  CB       -76.3660   84.7060    0.0070 C.3   199  ARG199      0.0307
     90  CG       -75.0630   83.9660   -0.2650 C.3   199  ARG199      0.0489
     91  CD       -74.3270   83.5990    1.0150 C.3   199  ARG199      0.2205
     92  NE       -74.6550   82.2600    1.4880 N.pl3 199  ARG199     -0.0865
     93  CZ       -73.8600   81.2000    1.3620 C.cat 199  ARG199      0.5346
     94  NH1      -74.2500   80.0230    1.8300 N.pl3 199  ARG199      0.1354
     95  NH2      -72.6760   81.3130    0.7770 N.pl3 199  ARG199      0.1354
     96  N        -63.8260   83.9330   11.3260 N.3   232  ALA232     -0.1231
     97  CA       -64.9750   83.0350   11.2000 C.3   232  ALA232      0.1679
     98  C        -64.5250   81.5880   11.2710 C.2   232  ALA232      0.2434
     99  O        -64.5260   80.8880   10.2550 O.2   232  ALA232     -0.2733
    100  CB       -65.6960   83.2840    9.8910 C.3   232  ALA232      0.0304
    101  N        -64.1290   81.1330   12.4670 N.am  233  PRO233     -0.2718
    102  CA       -63.6490   79.7640   12.6210 C.3   233  PRO233      0.1535
    103  C        -64.7410   78.8180   12.1890 C.2   233  PRO233      0.2599
    104  O        -65.6630   79.2250   11.4730 O.2   233  PRO233     -0.2715
    105  CB       -63.4330   79.6340   14.1270 C.3   233  PRO233      0.0310
    106  CG       -63.2940   80.9970   14.6150 C.3   233  PRO233      0.0237
    107  CD       -64.1500   81.8510   13.7460 C.3   233  PRO233      0.0939
    108  N        -64.6530   77.5660   12.6220 N.am  234  THR234     -0.1937
    109  CA       -65.6960   76.6110   12.2940 C.3   234  THR234      0.2028
    110  C        -65.5490   75.3290   13.0990 C.2   234  THR234      0.2642
    111  O        -64.5380   74.6310   12.9940 O.2   234  THR234     -0.2714
    112  CB       -65.7690   76.3410   10.7490 C.3   234  THR234      0.1808
    113  OG1      -67.1310   76.1970   10.3340 O.3   234  THR234     -0.2208
    114  CG2      -64.9730   75.1160   10.3420 C.3   234  THR234      0.0379
    115  N        -66.5140   75.1270   13.9990 N.am  235  TRP235     -0.1973
    116  CA       -67.0680   73.8000   14.3570 C.3   235  TRP235      0.1640
    117  C        -66.7740   73.0050   15.6570 C.2   235  TRP235      0.2290
    118  O        -65.8760   72.1460   15.7160 O.2   235  TRP235     -0.2864
    119  CB       -67.1680   72.9070   13.1180 C.3   235  TRP235      0.0576
    120  CG       -68.2900   73.4080   12.2550 C.ar  235  TRP235      0.0006
    121  CD1      -68.4730   74.6940   11.8210 C.ar  235  TRP235      0.0946
    122  CD2      -69.4150   72.6570   11.7700 C.ar  235  TRP235      0.0152
    123  NE1      -69.6230   74.7820   11.0770 N.ar  235  TRP235     -0.2442
    124  CE2      -70.2200   73.5460   11.0290 C.ar  235  TRP235      0.0810
    125  CE3      -69.8120   71.3140   11.8770 C.ar  235  TRP235      0.0012
    126  CZ2      -71.3930   73.1370   10.4010 C.ar  235  TRP235      0.0191
    127  CZ3      -70.9730   70.9130   11.2520 C.ar  235  TRP235      0.0001
    128  CH2      -71.7500   71.8190   10.5250 C.ar  235  TRP235      0.0015
    129  N        -67.0490   85.6490   14.5580 N.3   257  ARG257     -0.1231
    130  CA       -68.3210   85.0550   14.1830 C.3   257  ARG257      0.1694
    131  C        -68.2820   83.5520   14.2260 C.2   257  ARG257      0.2592
    132  O        -67.4040   82.9470   13.6130 O.2   257  ARG257     -0.2718
    133  CB       -68.7470   85.4770   12.7860 C.3   257  ARG257      0.0321
    134  CG       -70.0540   84.8310   12.3680 C.3   257  ARG257      0.0489
    135  CD       -70.5870   85.4900   11.1300 C.3   257  ARG257      0.2205
    136  NE       -71.9680   85.1250   10.8320 N.pl3 257  ARG257     -0.0865
    137  CZ       -73.0330   85.7250   11.3520 C.cat 257  ARG257      0.5346
    138  NH1      -72.8970   86.7060   12.2370 N.pl3 257  ARG257      0.1354
    139  NH2      -74.2400   85.3280   10.9930 N.pl3 257  ARG257      0.1354
    140  N        -69.2480   82.9650   14.9330 N.am  258  MET258     -0.1965
    141  CA       -69.4000   81.5140   15.0170 C.3   258  MET258      0.1736
    142  C        -70.4750   80.9920   14.0510 C.2   258  MET258      0.2616
    143  O        -71.1910   81.7700   13.4090 O.2   258  MET258     -0.2715
    144  CB       -69.7410   81.0890   16.4530 C.3   258  MET258      0.0427
    145  CG       -68.5520   80.9320   17.3860 C.3   258  MET258      0.0599
    146  SD       -67.5110   82.3990   17.5310 S.3   258  MET258     -0.1393
    147  CE       -65.9530   81.8150   16.8830 C.3   258  MET258      0.0692
    148  N        -70.5730   79.6680   13.9540 N.am  259  HIS259     -0.1973
    149  CA       -71.6340   79.0100   13.2000 C.3   259  HIS259      0.1656
    150  C        -72.6840   78.5030   14.1950 C.2   259  HIS259      0.2291
    151  O        -73.8800   78.4640   13.8830 O.2   259  HIS259     -0.2864
    152  CB       -71.0580   77.8380   12.3880 C.3   259  HIS259      0.0771
    153  CG       -71.7450   77.6010   11.0790 C.ar  259  HIS259      0.0820
    154  ND1      -73.0790   77.2650   10.9810 N.ar  259  HIS259     -0.2267
    155  CD2      -71.2740   77.6300    9.8070 C.ar  259  HIS259      0.1154
    156  CE1      -73.4020   77.1120    9.7090 C.ar  259  HIS259      0.1986
    157  NE2      -72.3260   77.3270    8.9780 N.ar  259  HIS259     -0.2212
    158  N        -74.4500   87.8590    6.8560 N.3   284  VAL284     -0.1245
    159  CA       -73.0030   87.6500    6.8060 C.3   284  VAL284      0.1561
    160  C        -72.3530   88.3830    5.6420 C.2   284  VAL284      0.2260
    161  O        -71.2490   88.9230    5.7710 O.2   284  VAL284     -0.2867
    162  CB       -72.6670   86.1630    6.7030 C.3   284  VAL284      0.0252
    163  CG1      -71.5880   85.9390    5.6970 C.3   284  VAL284      0.0019
    164  CG2      -72.2580   85.6400    8.0390 C.3   284  VAL284      0.0019
    165  N        -61.6720   76.1650    7.8150 N.3   298  TYR298     -0.1227
    166  CA       -62.1900   75.2310    6.8290 C.3   298  TYR298      0.1736
    167  C        -63.5990   75.5710    6.3660 C.2   298  TYR298      0.2596
    168  O        -64.3000   74.7170    5.8140 O.2   298  TYR298     -0.2718
    169  CB       -62.1900   73.8240    7.3960 C.3   298  TYR298      0.0548
    170  CG       -60.9850   73.4860    8.2390 C.ar  298  TYR298     -0.0200
    171  CD1      -61.1320   73.1440    9.5750 C.ar  298  TYR298     -0.0009
    172  CD2      -59.7090   73.4950    7.7070 C.ar  298  TYR298     -0.0009
    173  CE1      -60.0520   72.8210   10.3600 C.ar  298  TYR298      0.0417
    174  CE2      -58.6150   73.1830    8.4910 C.ar  298  TYR298      0.0417
    175  CZ       -58.8000   72.8450    9.8180 C.ar  298  TYR298      0.1957
    176  OH       -57.7320   72.5240   10.6200 O.3   298  TYR298     -0.2866
    177  N        -64.0200   76.8110    6.5900 N.am  299  SER299     -0.1938
    178  CA       -65.3780   77.2230    6.2400 C.3   299  SER299      0.2055
    179  C        -65.5190   77.4120    4.7370 C.2   299  SER299      0.2644
    180  O        -64.5300   77.4400    4.0200 O.2   299  SER299     -0.2714
    181  CB       -65.7720   78.4960    6.9950 C.3   299  SER299      0.2130
    182  OG       -66.9500   79.0700    6.4670 O.3   299  SER299     -0.2179
    183  N        -66.7540   77.5040    4.2660 N.am  300  SER300     -0.1935
    184  CA       -67.0150   77.7250    2.8570 C.3   300  SER300      0.2055
    185  C        -67.2180   79.2090    2.6490 C.2   300  SER300      0.2642
    186  O        -67.4500   79.6530    1.5270 O.2   300  SER300     -0.2714
    187  CB       -68.2630   76.9710    2.3940 C.3   300  SER300      0.2130
    188  OG       -69.4140   77.7950    2.4840 O.3   300  SER300     -0.2179
    189  N        -67.1500   79.9780    3.7330 N.am  301  VAL301     -0.1977
    190  CA       -67.2080   81.4280    3.6120 C.3   301  VAL301      0.1596
    191  C        -65.9980   81.8790    2.8290 C.2   301  VAL301      0.2287
    192  O        -65.9980   82.9500    2.2340 O.2   301  VAL301     -0.2864
    193  CB       -67.1590   82.1400    4.9690 C.3   301  VAL301      0.0276
    194  CG1      -68.4100   81.8920    5.7280 C.3   301  VAL301      0.0022
    195  CG2      -65.9530   81.6810    5.7570 C.3   301  VAL301      0.0022
    196  N        -67.0400   82.4860   -0.7790 N.3   304  ASP304     -0.1239
    197  CA       -67.8840   83.6510   -0.9400 C.3   304  ASP304      0.1674
    198  C        -66.9990   84.8970   -0.8200 C.2   304  ASP304      0.2266
    199  O        -66.9390   85.7240   -1.7250 O.2   304  ASP304     -0.2867
    200  CB       -69.0000   83.6720    0.1120 C.3   304  ASP304      0.1410
    201  CG       -69.7490   82.3540    0.2130 C.2   304  ASP304      0.3668
    202  OD1      -70.2970   82.0890    1.3060 O.co2 304  ASP304     -0.2456
    203  OD2      -69.7900   81.5880   -0.7820 O.co2 304  ASP304     -0.2456
@<TRIPOS>BOND
     1    51    50    1
     2    52    50    1
     3    50    47    1
     4    59    58    1
     5    59    53    1
     6    85    86    1
     7    58    57    1
     8    47    46    1
     9    47    48    1
    10   199   198    2
    11    20    21    1
    12    24    21    1
    13    24    25    1
    14    45    44    2
    15    53    48   am
    16    53    54    1
    17    87    86    1
    18    87    88    2
    19    46    44   am
    20    56    55    2
    21    48    49    2
    22    57    54    1
    23    86    89    1
    24    44    43    1
    25   197   198    1
    26   197   196    1
    27   197   200    1
    28   203   201   ar
    29    21    22    1
    30    83    82    1
    31    26    25   ar
    32    26    28   ar
    33    25    27   ar
    34    54    55    1
    35    55    60   am
    36    90    89    1
    37    90    91    1
    38    23    22    2
    39    22    34   am
    40    43    42    1
    41    42    36   am
    42   200   201    1
    43   201   202   ar
    44    84    82    1
    45    28    29   ar
    46    80    79    2
    47    34    35    1
    48    27    30   ar
    49    27    29   ar
    50    82    81    1
    51    95    93    1
    52    63    62    2
    53    66    65    1
    54    60    61    1
    55    30    32   ar
    56    29    31   ar
    57    91    92    1
    58    61    62    1
    59    61    64    1
    60    36    35    1
    61    36    37    2
    62    35    38    1
    63    93    92    2
    64    93    94    1
    65    79    78    1
    66   186   185    2
    67    77    78    1
    68    62    68   am
    69    15    14    2
    70    81    78    1
    71    14    13    1
    72    32    33   ar
    73    18    17   ar
    74    31    33   ar
    75    71    70    2
    76    64    65    1
    77    65    67    1
    78   192   191    2
    79   187   188    1
    80   187   184    1
    81    70    69    1
    82    41    39   am
    83   185   184    1
    84   185   189   am
    85    38    39    1
    86   191   190    1
    87    68    69    1
    88   184   183    1
    89    17    19   ar
    90    17    16    1
    91    13    16    1
    92    13    12    1
    93    39    40    2
    94    69    72    1
    95   190   189    1
    96   190   193    1
    97   180   179    2
    98   183   179   am
    99   179   178    1
   100    72    73    1
   101   193   194    1
   102   193   195    1
   103    73    74    1
   104   160   161    2
   105   160   159    1
   106   163   162    1
   107   168   167    2
   108    11     9   ar
   109    11    10   ar
   110   178   177    1
   111   178   181    1
   112     9     7   ar
   113   167   177   am
   114   167   166    1
   115   182   181    1
   116     1     2    1
   117    10     8   ar
   118   162   159    1
   119   162   164    1
   120   159   158    1
   121   166   169    1
   122   166   165    1
   123    74    75    1
   124     7     6   ar
   125   169   170    1
   126    75    76    1
   127     8     6   ar
   128     6     5    1
   129     2     5    1
   130     2     3    1
   131   172   170   ar
   132   172   174   ar
   133   170   171   ar
   134   174   175   ar
   135     3     4    2
   136   157   156   ar
   137   157   155   ar
   138   171   173   ar
   139   156   154   ar
   140   155   153   ar
   141   175   173   ar
   142   175   176    1
   143   100    97    1
   144    99    98    2
   145   113   112    1
   146   114   112    1
   147   126   128   ar
   148   126   124   ar
   149   128   127   ar
   150   112   109    1
   151   136   135    1
   152   136   137    2
   153   154   153   ar
   154   139   137    1
   155   124   123   ar
   156   124   122   ar
   157   123   121   ar
   158   153   152    1
   159   135   134    1
   160    97    98    1
   161    97    96    1
   162   127   125   ar
   163    98   101   am
   164   137   138    1
   165   104   103    2
   166   122   125   ar
   167   122   120   ar
   168   121   120   ar
   169   103   102    1
   170   103   108   am
   171   120   119    1
   172   109   108    1
   173   109   110    1
   174   134   133    1
   175   152   149    1
   176   101   102    1
   177   101   107    1
   178   102   105    1
   179   133   130    1
   180   111   110    2
   181   110   115   am
   182   119   116    1
   183   149   148    1
   184   149   150    1
   185   143   142    2
   186   132   131    2
   187   107   106    1
   188   151   150    2
   189   148   142   am
   190   115   116    1
   191   142   141    1
   192   105   106    1
   193   130   131    1
   194   130   129    1
   195   131   140   am
   196   116   117    1
   197   140   141    1
   198   141   144    1
   199   117   118    2
   200   144   145    1
   201   147   146    1
   202   145   146    1
