@<TRIPOS>MOLECULE
tmp/3l85B00.pdb
 105 98 0 0 0
SMALL
GASTEIGER

@<TRIPOS>ATOM
      1  N        -16.7140   20.0580   82.9080 N.3    15  TRP15      -0.1227
      2  CA       -16.9850   19.1810   81.7740 C.3    15  TRP15       0.1737
      3  C        -15.7420   18.4960   81.2120 C.2    15  TRP15       0.2595
      4  O        -15.8030   17.3410   80.7930 O.2    15  TRP15      -0.2718
      5  CB       -17.7060   19.9570   80.6670 C.3    15  TRP15       0.0564
      6  CG       -18.9820   20.5970   81.1290 C.ar   15  TRP15       0.0003
      7  CD1      -19.1200   21.8200   81.7210 C.ar   15  TRP15       0.0946
      8  CD2      -20.3010   20.0450   81.0400 C.ar   15  TRP15       0.0152
      9  NE1      -20.4420   22.0640   82.0040 N.ar   15  TRP15      -0.2442
     10  CE2      -21.1880   20.9890   81.5960 C.ar   15  TRP15       0.0810
     11  CE3      -20.8190   18.8450   80.5430 C.ar   15  TRP15       0.0012
     12  CZ2      -22.5620   20.7710   81.6680 C.ar   15  TRP15       0.0191
     13  CZ3      -22.1840   18.6290   80.6160 C.ar   15  TRP15       0.0001
     14  CH2      -23.0400   19.5880   81.1740 C.ar   15  TRP15       0.0015
     15  N        -14.6180   19.2050   81.2000 N.am   16  VAL16      -0.1980
     16  CA       -13.3970   18.6700   80.6060 C.3    16  VAL16       0.1595
     17  C        -12.2000   18.7320   81.5500 C.2    16  VAL16       0.2287
     18  O        -12.0230   19.7050   82.2810 O.2    16  VAL16      -0.2864
     19  CB       -13.0410   19.3990   79.2950 C.3    16  VAL16       0.0276
     20  CG1      -13.9550   18.9430   78.1710 C.3    16  VAL16       0.0022
     21  CG2      -13.1300   20.9050   79.4840 C.3    16  VAL16       0.0022
     22  N        -13.4250   14.0920   78.5320 N.3    38  ARG38      -0.1245
     23  CA       -14.6840   14.5540   79.0970 C.3    38  ARG38       0.1563
     24  C        -14.9340   13.8680   80.4340 C.2    38  ARG38       0.2260
     25  O        -14.9650   12.6400   80.5180 O.2    38  ARG38      -0.2867
     26  CB       -15.8450   14.2890   78.1360 C.3    38  ARG38       0.0307
     27  CG       -15.8540   15.1900   76.9100 C.3    38  ARG38       0.0489
     28  CD       -17.1580   15.0630   76.1390 C.3    38  ARG38       0.2205
     29  NE       -17.3310   16.1440   75.1720 N.pl3  38  ARG38      -0.0865
     30  CZ       -17.7690   17.3610   75.4810 C.cat  38  ARG38       0.5346
     31  NH1      -18.0750   17.6600   76.7370 N.pl3  38  ARG38       0.1354
     32  NH2      -17.8980   18.2830   74.5350 N.pl3  38  ARG38       0.1354
     33  N        -25.2950   26.4450   64.2510 N.3    69  GLN69      -0.1245
     34  CA       -25.3480   27.0070   65.5930 C.3    69  GLN69       0.1566
     35  C        -24.0400   27.6700   65.9890 C.2    69  GLN69       0.2260
     36  O        -22.9790   27.3590   65.4450 O.2    69  GLN69      -0.2867
     37  CB       -25.7040   25.9230   66.6110 C.3    69  GLN69       0.0367
     38  CG       -24.7030   24.7880   66.6750 C.3    69  GLN69       0.0905
     39  CD       -25.1830   23.6430   67.5400 C.2    69  GLN69       0.2608
     40  OE1      -25.2720   22.5040   67.0840 O.2    69  GLN69      -0.2717
     41  NE2      -25.5060   23.9410   68.7950 N.am   69  GLN69      -0.0878
     42  N        -20.8510   28.2270   68.0780 N.3    71  ARG71      -0.1245
     43  CA       -19.9480   27.3810   68.8460 C.3    71  ARG71       0.1563
     44  C        -18.9220   28.2320   69.5760 C.2    71  ARG71       0.2260
     45  O        -17.9560   28.6980   68.9710 O.2    71  ARG71      -0.2867
     46  CB       -19.2360   26.3920   67.9260 C.3    71  ARG71       0.0307
     47  CG       -20.1220   25.2750   67.4190 C.3    71  ARG71       0.0489
     48  CD       -20.6550   24.4580   68.5730 C.3    71  ARG71       0.2205
     49  NE       -21.2870   23.2250   68.1240 N.pl3  71  ARG71      -0.0865
     50  CZ       -21.8850   22.3590   68.9340 C.cat  71  ARG71       0.5346
     51  NH1      -21.9380   22.5930   70.2380 N.pl3  71  ARG71       0.1354
     52  NH2      -22.4320   21.2590   68.4390 N.pl3  71  ARG71       0.1354
     53  N        -22.9600   21.5250   61.0570 N.3    80  GLU80      -0.1245
     54  CA       -22.6580   20.1680   61.4970 C.3    80  GLU80       0.1567
     55  C        -23.8270   19.2170   61.2790 C.2    80  GLU80       0.2260
     56  O        -24.9650   19.6480   61.0880 O.2    80  GLU80      -0.2867
     57  CB       -22.2960   20.1650   62.9840 C.3    80  GLU80       0.0388
     58  CG       -21.5530   21.3980   63.4610 C.3    80  GLU80       0.1160
     59  CD       -21.5200   21.5020   64.9750 C.2    80  GLU80       0.3649
     60  OE1      -21.4800   20.4470   65.6450 O.co2  80  GLU80      -0.2457
     61  OE2      -21.5350   22.6380   65.4960 O.co2  80  GLU80      -0.2457
     62  N        -26.2210   16.2450   66.3370 N.3    83  ALA83      -0.1231
     63  CA       -25.4330   15.4350   67.2580 C.3    83  ALA83       0.1694
     64  C        -25.8120   15.6810   68.7140 C.2    83  ALA83       0.2593
     65  O        -26.3790   16.7180   69.0520 O.2    83  ALA83      -0.2718
     66  CB       -23.9510   15.6970   67.0480 C.3    83  ALA83       0.0304
     67  N        -25.4900   14.7190   69.5730 N.am   84  GLY84      -0.1942
     68  CA       -25.7740   14.8330   70.9910 C.3    84  GLY84       0.2014
     69  C        -25.2000   13.6680   71.7710 C.2    84  GLY84       0.2638
     70  O        -24.6930   12.7120   71.1840 O.2    84  GLY84      -0.2714
     71  N        -25.2830   13.7460   73.0960 N.am   85  LEU85      -0.1977
     72  CA       -24.7460   12.7020   73.9650 C.3    85  LEU85       0.1596
     73  C        -25.7090   11.5290   74.1270 C.2    85  LEU85       0.2287
     74  O        -26.9270   11.7070   74.1160 O.2    85  LEU85      -0.2864
     75  CB       -24.3900   13.2770   75.3390 C.3    85  LEU85       0.0297
     76  CG       -23.3090   14.3590   75.3560 C.3    85  LEU85       0.0022
     77  CD1      -23.0880   14.8730   76.7690 C.3    85  LEU85       0.0001
     78  CD2      -22.0110   13.8310   74.7630 C.3    85  LEU85       0.0001
     79  N        -32.0290   12.4830   69.1410 N.3    99  GLU99      -0.1245
     80  CA       -31.3090   13.7280   68.8990 C.3    99  GLU99       0.1567
     81  C        -31.7850   14.4230   67.6270 C.2    99  GLU99       0.2260
     82  O        -31.9640   15.6400   67.6090 O.2    99  GLU99      -0.2867
     83  CB       -29.8010   13.4810   68.8260 C.3    99  GLU99       0.0388
     84  CG       -28.9760   14.7570   68.8390 C.3    99  GLU99       0.1160
     85  CD       -29.1150   15.5270   70.1440 C.2    99  GLU99       0.3649
     86  OE1      -29.4290   16.7360   70.0910 O.co2  99  GLU99      -0.2457
     87  OE2      -28.9180   14.9200   71.2210 O.co2  99  GLU99      -0.2457
     88  N        -33.4030   18.3290   67.5060 N.3   103  GLU103     -0.1245
     89  CA       -32.7530   19.4390   66.8180 C.3   103  GLU103      0.1567
     90  C        -33.4760   19.8950   65.5510 C.2   103  GLU103      0.2260
     91  O        -33.4630   21.0800   65.2240 O.2   103  GLU103     -0.2867
     92  CB       -31.2940   19.0950   66.5030 C.3   103  GLU103      0.0388
     93  CG       -30.4530   18.8170   67.7380 C.3   103  GLU103      0.1160
     94  CD       -28.9740   18.7020   67.4280 C.2   103  GLU103      0.3649
     95  OE1      -28.1820   18.5140   68.3740 O.co2 103  GLU103     -0.2457
     96  OE2      -28.5980   18.8020   66.2440 O.co2 103  GLU103     -0.2457
     97  N        -30.2190   25.9320   73.8170 N.3   153  GLU153     -0.1245
     98  CA       -29.7440   25.3900   72.5520 C.3   153  GLU153      0.1567
     99  C        -30.4260   26.1100   71.3930 C.2   153  GLU153      0.2260
    100  O        -31.6280   25.9580   71.1750 O.2   153  GLU153     -0.2867
    101  CB       -30.0290   23.8880   72.4810 C.3   153  GLU153      0.0388
    102  CG       -29.2580   23.1510   71.3990 C.3   153  GLU153      0.1160
    103  CD       -29.7260   21.7160   71.2250 C.2   153  GLU153      0.3649
    104  OE1      -28.8810   20.7990   71.3230 O.co2 153  GLU153     -0.2457
    105  OE2      -30.9380   21.5050   70.9980 O.co2 153  GLU153     -0.2457
@<TRIPOS>BOND
     1    53    54    1
     2    56    55    2
     3    55    54    1
     4    54    57    1
     5    57    58    1
     6    58    59    1
     7    33    34    1
     8    59    61   ar
     9    59    60   ar
    10    91    90    2
    11    36    35    2
    12    90    89    1
    13    34    35    1
    14    34    37    1
    15    96    94   ar
    16    62    63    1
    17    92    89    1
    18    92    93    1
    19    37    38    1
    20    38    39    1
    21    89    88    1
    22    66    63    1
    23    40    39    2
    24    63    64    1
    25    47    46    1
    26    47    48    1
    27    94    93    1
    28    94    95   ar
    29    39    41   am
    30    82    81    2
    31    81    80    1
    32    46    43    1
    33    42    43    1
    34    49    48    1
    35    49    50    2
    36    52    50    1
    37    64    65    2
    38    64    67   am
    39    83    84    1
    40    83    80    1
    41    84    85    1
    42    43    44    1
    43    80    79    1
    44    50    51    1
    45    45    44    2
    46    67    68    1
    47    86    85   ar
    48    85    87   ar
    49    68    69    1
    50   105   103   ar
    51   100    99    2
    52    70    69    2
    53   103   104   ar
    54   103   102    1
    55    99    98    1
    56   102   101    1
    57    69    71   am
    58   101    98    1
    59    98    97    1
    60    71    72    1
    61    72    73    1
    62    72    75    1
    63    74    73    2
    64    32    30    1
    65    78    76    1
    66    29    30    2
    67    29    28    1
    68    75    76    1
    69    76    77    1
    70    30    31    1
    71    28    27    1
    72    27    26    1
    73    26    23    1
    74    20    19    1
    75    22    23    1
    76    23    24    1
    77    19    21    1
    78    19    16    1
    79    24    25    2
    80    11    13   ar
    81    11     8   ar
    82    16    15    1
    83    16    17    1
    84    13    14   ar
    85     5     6    1
    86     5     2    1
    87     4     3    2
    88     8     6   ar
    89     8    10   ar
    90     6     7   ar
    91    14    12   ar
    92    15     3   am
    93     3     2    1
    94    17    18    2
    95    10    12   ar
    96    10     9   ar
    97     7     9   ar
    98     2     1    1
