@<TRIPOS>MOLECULE
tmp/3l86A01.pdb
 127 117 0 0 0
SMALL
GASTEIGER

@<TRIPOS>ATOM
      1  N         36.4710   13.8380   37.7680 N.3     8  LYS8       -0.1245
      2  CA        35.8980   13.6810   36.4260 C.3     8  LYS8        0.1561
      3  C         34.7420   12.6590   36.4970 C.2     8  LYS8        0.2260
      4  O         34.8760   11.5640   37.0580 O.2     8  LYS8       -0.2867
      5  CB        37.0170   13.2030   35.4930 C.3     8  LYS8        0.0271
      6  CG        36.7480   13.2240   33.9690 C.3     8  LYS8        0.0035
      7  CD        35.5930   12.3390   33.5100 C.3     8  LYS8        0.0206
      8  CE        35.8740   10.8440   33.4540 C.3     8  LYS8        0.1093
      9  NZ        35.0480   10.3600   32.2230 N.3     8  LYS8       -0.1314
     10  N         31.8750   10.3750   34.4530 N.3    10  GLY10      -0.1210
     11  CA        31.4380    9.7810   33.1270 C.3    10  GLY10       0.1956
     12  C         29.9520    9.8860   32.7580 C.2    10  GLY10       0.2612
     13  O         29.1610   10.3830   33.5290 O.2    10  GLY10      -0.2717
     14  N         29.5570    9.4430   31.5660 N.am   11  GLY11      -0.1956
     15  CA        28.1430    9.5900   31.1190 C.3    11  GLY11       0.1869
     16  C         27.1180    8.9080   32.0350 C.2    11  GLY11       0.2309
     17  O         26.2750    9.5720   32.6770 O.2    11  GLY11      -0.2863
     18  N         31.9550   14.1630   31.0350 N.3    40  GLY40      -0.1209
     19  CA        31.6630   13.8120   29.6170 C.3    40  GLY40       0.1959
     20  C         30.1830   13.4890   29.3940 C.2    40  GLY40       0.2652
     21  O         29.2760   14.1160   30.0190 O.2    40  GLY40      -0.2714
     22  N         29.9080   12.5210   28.5170 N.am   41  GLY41      -0.1718
     23  CA        28.5190   12.1990   28.1440 C.2    41  GLY41       0.1480
     24  C         28.3410   11.2920   26.9230 C.2    41  GLY41       0.2821
     25  O         27.3370   11.3910   26.2140 O.2    41  GLY41      -0.2669
     26  N         29.2940   10.4030   26.6590 N.am   42  GLY42      -0.1920
     27  CA        29.2020    9.5190   25.4650 C.3    42  GLY42       0.1872
     28  C         27.8420    8.8210   25.2660 C.2    42  GLY42       0.2310
     29  O         27.2450    8.8410   24.1870 O.2    42  GLY42      -0.2863
     30  N         25.2390   11.4120   24.0030 N.3    45  ILE45      -0.1245
     31  CA        25.4960   11.7660   22.6250 C.3    45  ILE45       0.1561
     32  C         25.0550   10.6130   21.6560 C.2    45  ILE45       0.2260
     33  O         24.4930   10.8710   20.5640 O.2    45  ILE45      -0.2867
     34  CB        26.9900   12.0890   22.3880 C.3    45  ILE45       0.0252
     35  CG1       27.4940   13.2540   23.3500 C.3    45  ILE45       0.0019
     36  CG2       27.2080   12.4290   20.8780 C.3    45  ILE45       0.0019
     37  CD1       29.0750   13.4120   23.4720 C.3    45  ILE45       0.0001
     38  N         33.4710    5.4690   15.9410 N.3    58  LYS58      -0.1245
     39  CA        34.5950    5.7210   16.7960 C.3    58  LYS58       0.1561
     40  C         35.8420    5.0530   16.2640 C.2    58  LYS58       0.2260
     41  O         35.7420    4.0520   15.5780 O.2    58  LYS58      -0.2867
     42  CB        34.3080    5.2650   18.2040 C.3    58  LYS58       0.0271
     43  CG        33.6810    6.3270   19.0930 C.3    58  LYS58       0.0035
     44  CD        32.6280    5.7860   19.9890 C.3    58  LYS58       0.0206
     45  CE        32.3880    6.6490   21.2770 C.3    58  LYS58       0.1093
     46  NZ        32.0160    6.0460   22.5850 N.3    58  LYS58      -0.1314
     47  N         38.7370    4.4830   20.3030 N.3    61  GLY61      -0.1210
     48  CA        37.9260    5.0280   21.3840 C.3    61  GLY61       0.1956
     49  C         37.5290    6.5170   21.2660 C.2    61  GLY61       0.2612
     50  O         36.8980    7.0410   22.1710 O.2    61  GLY61      -0.2717
     51  N         37.8480    7.1710   20.1520 N.am   62  LEU62      -0.1965
     52  CA        37.4870    8.6150   19.9500 C.3    62  LEU62       0.1728
     53  C         36.4090    8.7830   18.8740 C.2    62  LEU62       0.2616
     54  O         36.5130    8.1890   17.8020 O.2    62  LEU62      -0.2715
     55  CB        38.7490    9.4220   19.5890 C.3    62  LEU62       0.0311
     56  CG        39.9100    9.3230   20.5870 C.3    62  LEU62       0.0022
     57  CD1       41.1250   10.0300   20.0060 C.3    62  LEU62       0.0001
     58  CD2       39.5590    9.9660   21.9790 C.3    62  LEU62       0.0001
     59  N         35.3880    9.5940   19.1340 N.am   63  ARG63      -0.1977
     60  CA        34.2400    9.7660   18.1840 C.3    63  ARG63       0.1597
     61  C         34.6580   10.6510   17.0120 C.2    63  ARG63       0.2287
     62  O         35.1600   11.7520   17.2510 O.2    63  ARG63      -0.2864
     63  CB        33.0400   10.4550   18.8960 C.3    63  ARG63       0.0334
     64  CG        31.6780   10.5590   18.0930 C.3    63  ARG63       0.0492
     65  CD        30.6440   11.5140   18.8800 C.3    63  ARG63       0.2205
     66  NE        30.4660   10.9380   20.2140 N.pl3  63  ARG63      -0.0865
     67  CZ        29.6040    9.9540   20.4750 C.cat  63  ARG63       0.5346
     68  NH1       28.7720    9.4850   19.5230 N.pl3  63  ARG63       0.1354
     69  NH2       29.5550    9.4560   21.6950 N.pl3  63  ARG63       0.1354
     70  N         25.9420   17.4550   26.0070 N.3    77  LEU77      -0.1245
     71  CA        26.8440   17.7440   27.1390 C.3    77  LEU77       0.1561
     72  C         26.3200   18.8740   28.0650 C.2    77  LEU77       0.2260
     73  O         26.2800   18.6900   29.2950 O.2    77  LEU77      -0.2867
     74  CB        28.2520   18.0870   26.6270 C.3    77  LEU77       0.0270
     75  CG        29.0950   16.9480   26.0200 C.3    77  LEU77       0.0019
     76  CD1       30.4420   17.5090   25.5270 C.3    77  LEU77       0.0001
     77  CD2       29.2900   15.8510   27.0440 C.3    77  LEU77       0.0001
     78  N         37.4410   16.9850   16.4650 N.3   120  VAL120     -0.1245
     79  CA        38.0000   16.4870   17.7390 C.3   120  VAL120      0.1561
     80  C         39.2650   17.2680   18.1370 C.2   120  VAL120      0.2260
     81  O         40.1510   17.5090   17.3040 O.2   120  VAL120     -0.2867
     82  CB        38.2320   14.9580   17.6780 C.3   120  VAL120      0.0252
     83  CG1       38.9720   14.4290   18.9170 C.3   120  VAL120      0.0019
     84  CG2       36.8330   14.2500   17.5860 C.3   120  VAL120      0.0019
     85  N         33.1790   18.5930   28.5490 N.3   145  SER145     -0.1217
     86  CA        34.3720   18.2920   27.7590 C.3   145  SER145      0.1889
     87  C         34.3430   18.9470   26.3630 C.2   145  SER145      0.2288
     88  O         34.0290   18.2500   25.3500 O.2   145  SER145     -0.2866
     89  CB        34.6050   16.7870   27.6280 C.3   145  SER145      0.2089
     90  OG        33.4580   16.1100   27.1020 O.3   145  SER145     -0.2183
     91  N         35.1860   19.0580   20.0910 N.3   156  ASN156     -0.1225
     92  CA        34.7780   17.9390   20.9730 C.3   156  ASN156      0.1785
     93  C         36.0600   17.3590   21.6090 C.2   156  ASN156      0.2597
     94  O         36.9670   16.9400   20.8630 O.2   156  ASN156     -0.2718
     95  CB        33.9800   16.8770   20.1470 C.3   156  ASN156      0.1169
     96  CG        33.6600   15.5980   20.9340 C.2   156  ASN156      0.2627
     97  OD1       33.7980   15.5620   22.1560 O.2   156  ASN156     -0.2716
     98  ND2       33.1980   14.5400   20.2250 N.am  156  ASN156     -0.0877
     99  N         36.1700   17.3840   22.9500 N.am  157  ILE157     -0.1966
    100  CA        37.3920   16.8650   23.6380 C.3   157  ILE157      0.1727
    101  C         37.0460   15.6070   24.4390 C.2   157  ILE157      0.2616
    102  O         36.0920   15.6460   25.1860 O.2   157  ILE157     -0.2715
    103  CB        37.9630   17.8400   24.6850 C.3   157  ILE157      0.0290
    104  CG1       37.9570   19.2850   24.1880 C.3   157  ILE157      0.0022
    105  CG2       39.4250   17.3320   25.1910 C.3   157  ILE157      0.0023
    106  CD1       38.9510   19.6500   23.1270 C.3   157  ILE157      0.0001
    107  N         37.7250   14.4760   24.2330 N.am  158  ASN158     -0.1958
    108  CA        37.4970   13.2750   25.0970 C.3   158  ASN158      0.1819
    109  C         37.5760   13.7320   26.5930 C.2   158  ASN158      0.2621
    110  O         38.5060   14.4740   26.9340 O.2   158  ASN158     -0.2715
    111  CB        38.5900   12.2230   24.8380 C.3   158  ASN158      0.1195
    112  CG        38.5950   11.1180   25.8870 C.2   158  ASN158      0.2630
    113  OD1       39.4200   11.1150   26.8080 O.2   158  ASN158     -0.2716
    114  ND2       37.6790   10.1810   25.7620 N.am  158  ASN158     -0.0877
    115  N         36.6360   13.3240   27.4630 N.am  159  ALA159     -0.1963
    116  CA        36.5970   13.9260   28.8390 C.3   159  ALA159      0.1728
    117  C         37.8070   13.5960   29.6750 C.2   159  ALA159      0.2616
    118  O         38.1910   14.3960   30.5210 O.2   159  ALA159     -0.2715
    119  CB        35.2810   13.5870   29.6400 C.3   159  ALA159      0.0334
    120  N         38.3830   12.4070   29.4800 N.am  160  ASP160     -0.1971
    121  CA        39.6240   11.9910   30.1710 C.3   160  ASP160      0.1709
    122  C         40.8330   12.8840   29.8310 C.2   160  ASP160      0.2293
    123  O         41.6460   13.1920   30.7010 O.2   160  ASP160     -0.2864
    124  CB        39.9680   10.5060   29.8530 C.3   160  ASP160      0.1436
    125  CG        38.7720    9.5370   30.1810 C.2   160  ASP160      0.3671
    126  OD1       38.2500    9.5750   31.3110 O.co2 160  ASP160     -0.2456
    127  OD2       38.3190    8.7870   29.2880 O.co2 160  ASP160     -0.2456
@<TRIPOS>BOND
     1    41    40    2
     2    38    39    1
     3    40    39    1
     4    78    79    1
     5    39    42    1
     6    61    62    2
     7    61    60    1
     8    81    80    2
     9    84    82    1
    10    82    79    1
    11    82    83    1
    12    79    80    1
    13    54    53    2
    14    64    65    1
    15    64    63    1
    16    60    63    1
    17    60    59    1
    18    42    43    1
    19    53    59   am
    20    53    52    1
    21    65    66    1
    22    43    44    1
    23    68    67    1
    24    55    52    1
    25    55    56    1
    26    52    51    1
    27    44    45    1
    28    57    56    1
    29    91    92    1
    30    95    96    1
    31    95    92    1
    32    51    49   am
    33    66    67    2
    34    98    96   am
    35    47    48    1
    36    67    69    1
    37    33    32    2
    38    56    58    1
    39    94    93    2
    40    36    34    1
    41    96    97    2
    42    92    93    1
    43    49    48    1
    44    49    50    2
    45    45    46    1
    46    93    99   am
    47    32    31    1
    48    34    31    1
    49    34    35    1
    50    31    30    1
    51    99   100    1
    52   106   104    1
    53    35    37    1
    54   100   101    1
    55   100   103    1
    56    29    28    2
    57   104   103    1
    58   107   101   am
    59   107   108    1
    60   101   102    2
    61   103   105    1
    62   111   108    1
    63   111   112    1
    64   108   109    1
    65    28    27    1
    66    88    87    2
    67    27    26    1
    68    76    75    1
    69   114   112   am
    70   112   113    2
    71    70    71    1
    72    75    74    1
    73    75    77    1
    74    25    24    2
    75    87    86    1
    76   109   110    2
    77   109   115   am
    78    74    71    1
    79    26    24   am
    80    24    23    1
    81    90    89    1
    82    71    72    1
    83   115   116    1
    84    89    86    1
    85    86    85    1
    86    72    73    2
    87    23    22    2
    88    22    20    1
    89   116   119    1
    90   116   117    1
    91   127   125   ar
    92    20    19    1
    93    20    21    2
    94   120   117   am
    95   120   121    1
    96    19    18    1
    97   117   118    2
    98   122   121    1
    99   122   123    2
   100   124   121    1
   101   124   125    1
   102   125   126   ar
   103    15    14    1
   104    15    16    1
   105    14    12   am
   106    16    17    2
   107     9     8    1
   108    12    11    1
   109    12    13    2
   110    11    10    1
   111     8     7    1
   112     7     6    1
   113     6     5    1
   114     5     2    1
   115     2     3    1
   116     2     1    1
   117     3     4    2
