@<TRIPOS>MOLECULE
tmp/3l86A00.pdb
 158 150 0 0 0
SMALL
GASTEIGER

@<TRIPOS>ATOM
      1  N         36.4710   13.8380   37.7680 N.3     8  LYS8       -0.1245
      2  CA        35.8980   13.6810   36.4260 C.3     8  LYS8        0.1561
      3  C         34.7420   12.6590   36.4970 C.2     8  LYS8        0.2260
      4  O         34.8760   11.5640   37.0580 O.2     8  LYS8       -0.2867
      5  CB        37.0170   13.2030   35.4930 C.3     8  LYS8        0.0271
      6  CG        36.7480   13.2240   33.9690 C.3     8  LYS8        0.0035
      7  CD        35.5930   12.3390   33.5100 C.3     8  LYS8        0.0206
      8  CE        35.8740   10.8440   33.4540 C.3     8  LYS8        0.1093
      9  NZ        35.0480   10.3600   32.2230 N.3     8  LYS8       -0.1314
     10  N         31.8750   10.3750   34.4530 N.3    10  GLY10      -0.1210
     11  CA        31.4380    9.7810   33.1270 C.3    10  GLY10       0.1956
     12  C         29.9520    9.8860   32.7580 C.2    10  GLY10       0.2612
     13  O         29.1610   10.3830   33.5290 O.2    10  GLY10      -0.2717
     14  N         29.5570    9.4430   31.5660 N.am   11  GLY11      -0.1942
     15  CA        28.1430    9.5900   31.1190 C.3    11  GLY11       0.2014
     16  C         27.1180    8.9080   32.0350 C.2    11  GLY11       0.2639
     17  O         26.2750    9.5720   32.6770 O.2    11  GLY11      -0.2714
     18  N         27.1890    7.5740   32.0950 N.am   12  VAL12      -0.1963
     19  CA        26.2890    6.7830   32.9740 C.3    12  VAL12       0.1727
     20  C         26.4110    7.2390   34.4660 C.2    12  VAL12       0.2616
     21  O         25.4070    7.4580   35.1840 O.2    12  VAL12      -0.2715
     22  CB        26.5520    5.2520   32.7680 C.3    12  VAL12       0.0290
     23  CG1       25.8360    4.3760   33.8320 C.3    12  VAL12       0.0023
     24  CG2       26.1150    4.8010   31.3310 C.3    12  VAL12       0.0023
     25  N         27.6490    7.3780   34.9280 N.am   13  ALA13      -0.1977
     26  CA        27.9540    7.6730   36.3270 C.3    13  ALA13       0.1597
     27  C         27.2520    8.9510   36.7740 C.2    13  ALA13       0.2287
     28  O         26.8150    9.0520   37.9400 O.2    13  ALA13      -0.2864
     29  CB        29.4700    7.8010   36.4980 C.3    13  ALA13       0.0319
     30  N         29.2940   10.4030   26.6590 N.3    42  GLY42      -0.1210
     31  CA        29.2020    9.5190   25.4650 C.3    42  GLY42       0.1956
     32  C         27.8420    8.8210   25.2660 C.2    42  GLY42       0.2611
     33  O         27.2450    8.8410   24.1870 O.2    42  GLY42      -0.2717
     34  N         27.3540    8.1890   26.3260 N.am   43  PHE43      -0.1976
     35  CA        26.0780    7.4630   26.3320 C.3    43  PHE43       0.1639
     36  C         24.9040    8.3700   25.8610 C.2    43  PHE43       0.2290
     37  O         24.1520    8.0120   24.9340 O.2    43  PHE43      -0.2864
     38  CB        25.9700    6.9120   27.7650 C.3    43  PHE43       0.0560
     39  CG        24.5930    6.5380   28.2400 C.ar   43  PHE43      -0.0200
     40  CD1       24.0350    5.3000   27.9200 C.ar   43  PHE43      -0.0042
     41  CD2       23.9220    7.3580   29.1550 C.ar   43  PHE43      -0.0042
     42  CE1       22.7520    4.8990   28.4430 C.ar   43  PHE43      -0.0003
     43  CE2       22.6570    6.9740   29.6860 C.ar   43  PHE43      -0.0003
     44  CZ        22.0760    5.7370   29.3240 C.ar   43  PHE43      -0.0000
     45  N         33.4710    5.4690   15.9410 N.3    58  LYS58      -0.1245
     46  CA        34.5950    5.7210   16.7960 C.3    58  LYS58       0.1561
     47  C         35.8420    5.0530   16.2640 C.2    58  LYS58       0.2260
     48  O         35.7420    4.0520   15.5780 O.2    58  LYS58      -0.2867
     49  CB        34.3080    5.2650   18.2040 C.3    58  LYS58       0.0271
     50  CG        33.6810    6.3270   19.0930 C.3    58  LYS58       0.0035
     51  CD        32.6280    5.7860   19.9890 C.3    58  LYS58       0.0206
     52  CE        32.3880    6.6490   21.2770 C.3    58  LYS58       0.1093
     53  NZ        32.0160    6.0460   22.5850 N.3    58  LYS58      -0.1314
     54  N         38.3830   12.4070   29.4800 N.3   160  ASP160     -0.1239
     55  CA        39.6240   11.9910   30.1710 C.3   160  ASP160      0.1674
     56  C         40.8330   12.8840   29.8310 C.2   160  ASP160      0.2266
     57  O         41.6460   13.1920   30.7010 O.2   160  ASP160     -0.2867
     58  CB        39.9680   10.5060   29.8530 C.3   160  ASP160      0.1410
     59  CG        38.7720    9.5370   30.1810 C.2   160  ASP160      0.3668
     60  OD1       38.2500    9.5750   31.3110 O.co2 160  ASP160     -0.2456
     61  OD2       38.3190    8.7870   29.2880 O.co2 160  ASP160     -0.2456
     62  N         35.7730    8.8370   37.5970 N.3   178  MET178     -0.1230
     63  CA        34.6250    8.0600   38.0730 C.3   178  MET178      0.1702
     64  C         33.7920    7.5980   36.8690 C.2   178  MET178      0.2593
     65  O         33.5050    8.4050   35.9680 O.2   178  MET178     -0.2718
     66  CB        33.7540    8.9270   39.0260 C.3   178  MET178      0.0401
     67  CG        33.0600    8.0970   40.1260 C.3   178  MET178      0.0596
     68  SD        32.0850    9.0610   41.3520 S.3   178  MET178     -0.1393
     69  CE        30.7020    9.4710   40.3110 C.3   178  MET178      0.0692
     70  N         33.4470    6.3060   36.8520 N.am  179  THR179     -0.1939
     71  CA        32.9380    5.6770   35.6640 C.3   179  THR179      0.2028
     72  C         31.9120    4.5960   36.0900 C.2   179  THR179      0.2642
     73  O         31.4020    4.6230   37.2540 O.2   179  THR179     -0.2714
     74  CB        34.1060    5.0700   34.7950 C.3   179  THR179      0.1808
     75  OG1       33.5730    4.3950   33.6400 O.3   179  THR179     -0.2208
     76  CG2       35.0170    4.1050   35.5860 C.3   179  THR179      0.0379
     77  N         31.5770    3.6710   35.1840 N.am  180  ASN180     -0.1957
     78  CA        30.5170    2.7140   35.4980 C.3   180  ASN180      0.1819
     79  C         31.0230    1.2420   35.5630 C.2   180  ASN180      0.2621
     80  O         30.2880    0.2740   35.2400 O.2   180  ASN180     -0.2715
     81  CB        29.2930    2.9180   34.5640 C.3   180  ASN180      0.1195
     82  CG        29.5740    2.5490   33.1240 C.2   180  ASN180      0.2630
     83  OD1       30.7280    2.5920   32.6770 O.2   180  ASN180     -0.2716
     84  ND2       28.5440    2.0590   32.4140 N.am  180  ASN180     -0.0877
     85  N         32.2840    1.0960   35.9690 N.am  181  VAL181     -0.1977
     86  CA        32.9020   -0.1920   36.2650 C.3   181  VAL181      0.1596
     87  C         33.6510    0.0060   37.5680 C.2   181  VAL181      0.2287
     88  O         34.0480    1.1480   37.9020 O.2   181  VAL181     -0.2864
     89  CB        33.7930   -0.7060   35.0810 C.3   181  VAL181      0.0276
     90  CG1       34.9220    0.3110   34.7370 C.3   181  VAL181      0.0022
     91  CG2       34.3550   -2.0290   35.4110 C.3   181  VAL181      0.0022
     92  N         36.6890   -0.8890   38.5710 N.3   183  GLY183     -0.1210
     93  CA        38.1290   -0.7030   38.5740 C.3   183  GLY183      0.1956
     94  C         38.5640   -1.0740   37.1660 C.2   183  GLY183      0.2612
     95  O         37.7200   -1.2310   36.2700 O.2   183  GLY183     -0.2717
     96  N         39.8820   -1.1690   36.9510 N.am  184  VAL184     -0.1965
     97  CA        40.4140   -1.7730   35.7310 C.3   184  VAL184      0.1727
     98  C         40.4200   -3.2870   35.9890 C.2   184  VAL184      0.2616
     99  O         40.9930   -3.7420   36.9710 O.2   184  VAL184     -0.2715
    100  CB        41.8980   -1.3520   35.5340 C.3   184  VAL184      0.0290
    101  CG1       42.4560   -1.9510   34.1950 C.3   184  VAL184      0.0023
    102  CG2       42.0140    0.2190   35.5240 C.3   184  VAL184      0.0023
    103  N         39.8010   -4.0490   35.0970 N.am  185  LEU185     -0.1977
    104  CA        39.5940   -5.4780   35.2940 C.3   185  LEU185      0.1596
    105  C         40.6450   -6.2670   34.4860 C.2   185  LEU185      0.2287
    106  O         41.0250   -5.8510   33.3780 O.2   185  LEU185     -0.2864
    107  CB        38.1880   -5.8290   34.8120 C.3   185  LEU185      0.0297
    108  CG        37.0700   -4.9000   35.3300 C.3   185  LEU185      0.0022
    109  CD1       35.7910   -5.4020   34.8190 C.3   185  LEU185      0.0001
    110  CD2       37.0340   -4.8910   36.8480 C.3   185  LEU185      0.0001
    111  N         44.2490   -6.4930   27.2670 N.3   207  VAL207     -0.1231
    112  CA        43.4810   -6.4880   28.5280 C.3   207  VAL207      0.1692
    113  C         42.5050   -5.2730   28.5740 C.2   207  VAL207      0.2592
    114  O         41.3190   -5.3850   28.9730 O.2   207  VAL207     -0.2718
    115  CB        44.4500   -6.3470   29.7280 C.3   207  VAL207      0.0266
    116  CG1       43.6980   -6.2000   31.0370 C.3   207  VAL207      0.0020
    117  CG2       45.4470   -7.5240   29.7950 C.3   207  VAL207      0.0020
    118  N         43.0380   -4.1020   28.1950 N.am  208  ILE208     -0.1966
    119  CA        42.2880   -2.8290   28.1720 C.3   208  ILE208      0.1727
    120  C         41.8610   -2.4030   26.7920 C.2   208  ILE208      0.2617
    121  O         42.7210   -2.1830   25.9400 O.2   208  ILE208     -0.2715
    122  CB        43.1600   -1.6990   28.7640 C.3   208  ILE208      0.0290
    123  CG1       43.4750   -2.0400   30.2180 C.3   208  ILE208      0.0022
    124  CG2       42.4780   -0.3080   28.5370 C.3   208  ILE208      0.0023
    125  CD1       44.3820   -1.0650   30.9120 C.3   208  ILE208      0.0001
    126  N         40.5560   -2.2550   26.5520 N.am  209  THR209     -0.1937
    127  CA        40.0380   -1.8650   25.2340 C.3   209  THR209      0.2028
    128  C         39.0400   -0.7000   25.2860 C.2   209  THR209      0.2642
    129  O         38.7060   -0.2340   26.3620 O.2   209  THR209     -0.2714
    130  CB        39.2590   -3.0660   24.6090 C.3   209  THR209      0.1808
    131  OG1       38.3130   -3.5450   25.5810 O.3   209  THR209     -0.2208
    132  CG2       40.2270   -4.2240   24.2170 C.3   209  THR209      0.0379
    133  N         38.5550   -0.2380   24.1300 N.am  210  ALA210     -0.1963
    134  CA        37.4840    0.7850   24.0520 C.3   210  ALA210      0.1728
    135  C         37.7220    2.0620   24.9370 C.2   210  ALA210      0.2617
    136  O         38.8610    2.5530   25.0470 O.2   210  ALA210     -0.2715
    137  CB        36.0350    0.1330   24.3400 C.3   210  ALA210      0.0334
    138  N         36.6610    2.5990   25.5630 N.am  211  GLY211     -0.1940
    139  CA        36.8150    3.8130   26.3860 C.3   211  GLY211      0.2014
    140  C         37.7960    3.7270   27.5390 C.2   211  GLY211      0.2638
    141  O         38.1650    4.7740   28.1030 O.2   211  GLY211     -0.2714
    142  N         38.2040    2.5140   27.9390 N.am  212  MET212     -0.1976
    143  CA        39.1430    2.3950   29.0690 C.3   212  MET212      0.1605
    144  C         40.5810    2.6650   28.6110 C.2   212  MET212      0.2287
    145  O         41.4480    2.8590   29.4490 O.2   212  MET212     -0.2864
    146  CB        39.0400    1.0600   29.8360 C.3   212  MET212      0.0413
    147  CG        40.0030    0.8850   31.0720 C.3   212  MET212      0.0598
    148  SD        39.6800    2.0150   32.4840 S.3   212  MET212     -0.1393
    149  CE        38.1400    1.2660   33.0920 C.3   212  MET212      0.0692
    150  N         40.9240    6.4730   29.1220 N.3   215  LYS215     -0.1245
    151  CA        40.9300    6.5890   30.6300 C.3   215  LYS215      0.1561
    152  C         42.2710    6.2470   31.3040 C.2   215  LYS215      0.2260
    153  O         42.7850    7.0160   32.1310 O.2   215  LYS215     -0.2867
    154  CB        39.7510    5.7780   31.2700 C.3   215  LYS215      0.0271
    155  CG        39.2310    6.2790   32.6370 C.3   215  LYS215      0.0035
    156  CD        37.9220    5.5030   33.1020 C.3   215  LYS215      0.0206
    157  CE        36.9000    5.5710   31.9550 C.3   215  LYS215      0.1093
    158  NZ        36.4290    7.0640   31.8220 N.3   215  LYS215     -0.1314
@<TRIPOS>BOND
     1    48    47    2
     2    45    46    1
     3    47    46    1
     4    46    49    1
     5    49    50    1
     6    50    51    1
     7    51    52    1
     8    52    53    1
     9   134   133    1
    10   134   137    1
    11   134   135    1
    12   133   128   am
    13    33    32    2
    14   132   130    1
    15   130   127    1
    16   130   131    1
    17    37    36    2
    18   135   136    2
    19   135   138   am
    20   127   128    1
    21   127   126    1
    22    32    31    1
    23    32    34   am
    24   128   129    2
    25    31    30    1
    26   138   139    1
    27    36    35    1
    28   121   120    2
    29    34    35    1
    30    35    38    1
    31   139   140    1
    32   126   120   am
    33   120   119    1
    34   111   112    1
    35   140   142   am
    36   140   141    2
    37    38    39    1
    38    40    39   ar
    39    40    42   ar
    40   142   143    1
    41   119   118    1
    42   119   122    1
    43   118   113   am
    44    39    41   ar
    45    42    44   ar
    46   112   113    1
    47   112   115    1
    48   124   122    1
    49   113   114    2
    50   144   143    1
    51   144   145    2
    52   122   123    1
    53   143   146    1
    54   150   151    1
    55    41    43   ar
    56    61    59   ar
    57    44    43   ar
    58    54    55    1
    59   115   117    1
    60   115   116    1
    61    56    55    1
    62    56    57    2
    63   146   147    1
    64    58    55    1
    65    58    59    1
    66    59    60   ar
    67   123   125    1
    68   151   154    1
    69   151   152    1
    70   147   148    1
    71    15    14    1
    72    15    16    1
    73   154   155    1
    74   152   153    2
    75    24    22    1
    76    14    12   am
    77   158   157    1
    78   157   156    1
    79    16    18   am
    80    16    17    2
    81    18    19    1
    82     9     8    1
    83    84    82   am
    84   148   149    1
    85   155   156    1
    86    83    82    2
    87    12    11    1
    88    12    13    2
    89    22    19    1
    90    22    23    1
    91    19    20    1
    92    82    81    1
    93    11    10    1
    94   106   105    2
    95     8     7    1
    96     7     6    1
    97    75    74    1
    98     6     5    1
    99   101   100    1
   100    20    25   am
   101    20    21    2
   102   105   104    1
   103    81    78    1
   104    90    89    1
   105    74    76    1
   106    74    71    1
   107   107   104    1
   108   107   108    1
   109   109   108    1
   110    25    26    1
   111    89    91    1
   112    89    86    1
   113   103   104    1
   114   103    98   am
   115    77    78    1
   116    77    72   am
   117    80    79    2
   118   108   110    1
   119     5     2    1
   120    78    79    1
   121   102   100    1
   122   100    97    1
   123    79    85   am
   124    71    72    1
   125    71    70    1
   126    97    98    1
   127    97    96    1
   128    65    64    2
   129    85    86    1
   130    98    99    2
   131    72    73    2
   132    86    87    1
   133    95    94    2
   134    26    29    1
   135    26    27    1
   136     2     3    1
   137     2     1    1
   138     3     4    2
   139    27    28    2
   140    70    64   am
   141    64    63    1
   142    96    94   am
   143    94    93    1
   144    87    88    2
   145    62    63    1
   146    63    66    1
   147    92    93    1
   148    66    67    1
   149    67    68    1
   150    69    68    1
