@<TRIPOS>MOLECULE
tmp/3l8aB00.pdb
 132 125 0 0 0
SMALL
GASTEIGER

@<TRIPOS>ATOM
      1  N         -0.6660   15.8470   27.7300 N.3    90  ASP90      -0.1225
      2  CA        -1.9950   15.6580   27.1680 C.3    90  ASP90       0.1805
      3  C         -3.1340   15.9880   28.1310 C.2    90  ASP90       0.2598
      4  O         -4.2440   16.2630   27.6830 O.2    90  ASP90      -0.2718
      5  CB        -2.1690   14.2770   26.5150 C.3    90  ASP90       0.1424
      6  CG        -1.5810   13.1460   27.3400 C.2    90  ASP90       0.3668
      7  OD1       -1.3400   13.3280   28.5460 O.co2  90  ASP90      -0.2456
      8  OD2       -1.3710   12.0580   26.7610 O.co2  90  ASP90      -0.2456
      9  N         -2.8590   16.0130   29.4260 N.am   91  GLY91      -0.1942
     10  CA        -3.9000   16.3430   30.3710 C.3    91  GLY91       0.2014
     11  C         -3.3510   16.6360   31.7410 C.2    91  GLY91       0.2639
     12  O         -2.1990   16.3240   32.0550 O.2    91  GLY91      -0.2714
     13  N         -4.1920   17.2320   32.5730 N.am   92  VAL92      -0.1963
     14  CA        -3.7920   17.5880   33.9190 C.3    92  VAL92       0.1727
     15  C         -3.6440   16.3420   34.7920 C.2    92  VAL92       0.2616
     16  O         -2.7260   16.2630   35.6070 O.2    92  VAL92      -0.2715
     17  CB        -4.7840   18.5860   34.5350 C.3    92  VAL92       0.0290
     18  CG1       -4.5530   18.7240   36.0220 C.3    92  VAL92       0.0023
     19  CG2       -4.6430   19.9350   33.8520 C.3    92  VAL92       0.0023
     20  N         -4.5170   15.3570   34.6140 N.am   93  VAL93      -0.1964
     21  CA        -4.3910   14.1630   35.4460 C.3    93  VAL93       0.1712
     22  C         -3.1340   13.3620   35.0760 C.2    93  VAL93       0.2458
     23  O         -2.4400   12.8650   35.9570 O.2    93  VAL93      -0.2730
     24  CB        -5.6640   13.2910   35.4720 C.3    93  VAL93       0.0289
     25  CG1       -5.5740   12.2960   36.6090 C.3    93  VAL93       0.0023
     26  CG2       -6.8930   14.1590   35.6840 C.3    93  VAL93       0.0023
     27  N         -2.8230   13.2580   33.7710 N.am   94  PRO94      -0.2727
     28  CA        -1.5070   12.7170   33.4290 C.3    94  PRO94       0.1402
     29  C         -0.3840   13.4780   34.1390 C.2    94  PRO94       0.2269
     30  O          0.5520   12.8620   34.6330 O.2    94  PRO94      -0.2865
     31  CB        -1.4300   12.9380   31.9170 C.3    94  PRO94       0.0296
     32  CG        -2.8440   12.8540   31.4690 C.3    94  PRO94       0.0237
     33  CD        -3.6780   13.4220   32.5820 C.3    94  PRO94       0.0939
     34  N        -12.4850   16.0890   43.2130 N.3   117  TYR117     -0.1241
     35  CA       -12.2640   15.4190   41.9430 C.3   117  TYR117      0.1605
     36  C        -11.7210   14.0020   42.1110 C.2   117  TYR117      0.2264
     37  O        -10.5860   13.7950   42.5530 O.2   117  TYR117     -0.2867
     38  CB       -11.2900   16.2700   41.1320 C.3   117  TYR117      0.0534
     39  CG       -11.1910   15.8940   39.6780 C.ar  117  TYR117     -0.0201
     40  CD1      -12.3190   15.8660   38.8750 C.ar  117  TYR117     -0.0009
     41  CD2       -9.9660   15.5910   39.1050 C.ar  117  TYR117     -0.0009
     42  CE1      -12.2350   15.5300   37.5360 C.ar  117  TYR117      0.0417
     43  CE2       -9.8710   15.2480   37.7730 C.ar  117  TYR117      0.0417
     44  CZ       -11.0060   15.2240   36.9930 C.ar  117  TYR117      0.1957
     45  OH       -10.9100   14.8860   35.6640 O.3   117  TYR117     -0.2866
     46  N         -8.1500   12.3230   41.6340 N.3   120  PHE120     -0.1241
     47  CA        -7.0880   12.5600   42.6030 C.3   120  PHE120      0.1605
     48  C         -6.8770   11.2880   43.4060 C.2   120  PHE120      0.2264
     49  O         -5.7940   10.7130   43.4110 O.2   120  PHE120     -0.2867
     50  CB        -7.4820   13.6760   43.5700 C.3   120  PHE120      0.0534
     51  CG        -7.2330   15.0680   43.0540 C.ar  120  PHE120     -0.0203
     52  CD1       -7.1230   15.3340   41.6940 C.ar  120  PHE120     -0.0042
     53  CD2       -7.1330   16.1230   43.9490 C.ar  120  PHE120     -0.0042
     54  CE1       -6.9070   16.6310   41.2430 C.ar  120  PHE120     -0.0003
     55  CE2       -6.9210   17.4100   43.5130 C.ar  120  PHE120     -0.0003
     56  CZ        -6.8070   17.6710   42.1530 C.ar  120  PHE120     -0.0000
     57  N         -6.5500   21.2660   44.8570 N.3   165  CYS165     -0.1235
     58  CA        -7.4540   21.6220   43.7820 C.3   165  CYS165      0.1677
     59  C         -7.8550   23.0690   43.9750 C.2   165  CYS165      0.2270
     60  O         -8.4970   23.4050   44.9660 O.2   165  CYS165     -0.2867
     61  CB        -8.6820   20.7220   43.8190 C.3   165  CYS165      0.0956
     62  SG        -9.6340   20.7010   42.2840 S.3   165  CYS165     -0.0801
     63  N        -12.8330   21.5870   43.1900 N.3   169  ASN169     -0.1240
     64  CA       -13.9460   20.9170   42.5380 C.3   169  ASN169      0.1653
     65  C        -14.1320   19.5990   43.2740 C.2   169  ASN169      0.2266
     66  O        -13.2050   18.8080   43.3490 O.2   169  ASN169     -0.2867
     67  CB       -13.5600   20.6760   41.0760 C.3   169  ASN169      0.1155
     68  CG       -14.5780   19.8490   40.3110 C.2   169  ASN169      0.2627
     69  OD1      -15.7750   19.8610   40.6090 O.2   169  ASN169     -0.2716
     70  ND2      -14.1000   19.1350   39.2930 N.am  169  ASN169     -0.0877
     71  N         -3.4770   21.9160   41.1920 N.3   197  ASP197     -0.1239
     72  CA        -4.3110   21.6750   40.0310 C.3   197  ASP197      0.1674
     73  C         -5.2370   22.8660   39.8520 C.2   197  ASP197      0.2266
     74  O         -6.2500   22.9930   40.5430 O.2   197  ASP197     -0.2867
     75  CB        -5.1100   20.3940   40.2360 C.3   197  ASP197      0.1410
     76  CG        -6.0310   20.0850   39.0810 C.2   197  ASP197      0.3668
     77  OD1       -6.2550   20.9530   38.2050 O.co2 197  ASP197     -0.2456
     78  OD2       -6.5380   18.9450   39.0600 O.co2 197  ASP197     -0.2456
     79  N         -6.8080   23.7770   37.0100 N.3   199  ILE199     -0.1231
     80  CA        -7.4770   23.6500   35.7220 C.3   199  ILE199      0.1692
     81  C         -8.7190   24.5380   35.6040 C.2   199  ILE199      0.2592
     82  O         -9.0940   24.9210   34.4990 O.2   199  ILE199     -0.2718
     83  CB        -7.8000   22.1840   35.3890 C.3   199  ILE199      0.0266
     84  CG1       -8.0130   22.0250   33.8830 C.3   199  ILE199      0.0019
     85  CG2       -8.9910   21.6950   36.1860 C.3   199  ILE199      0.0020
     86  CD1       -8.2080   20.5840   33.4540 C.3   199  ILE199      0.0001
     87  N         -9.3380   24.8790   36.7370 N.am  200  HIS200     -0.1976
     88  CA       -10.5150   25.7520   36.7270 C.3   200  HIS200      0.1656
     89  C        -10.1700   27.2200   36.9330 C.2   200  HIS200      0.2291
     90  O        -11.0510   28.0290   37.2130 O.2   200  HIS200     -0.2864
     91  CB       -11.5170   25.3210   37.7990 C.3   200  HIS200      0.0771
     92  CG       -12.0340   23.9340   37.6020 C.ar  200  HIS200      0.0820
     93  ND1      -13.1400   23.6590   36.8250 N.ar  200  HIS200     -0.2267
     94  CD2      -11.5930   22.7430   38.0690 C.ar  200  HIS200      0.1154
     95  CE1      -13.3550   22.3550   36.8210 C.ar  200  HIS200      0.1986
     96  NE2      -12.4280   21.7760   37.5630 N.ar  200  HIS200     -0.2212
     97  N         -8.5310   23.4810   28.4880 N.3   231  THR231     -0.1203
     98  CA        -9.6300   22.5670   28.1790 C.3   231  THR231      0.1994
     99  C        -10.9020   22.8100   28.9750 C.2   231  THR231      0.2617
    100  O        -11.9890   22.7730   28.4070 O.2   231  THR231     -0.2717
    101  CB        -9.2390   21.0820   28.3070 C.3   231  THR231      0.1784
    102  OG1       -8.9000   20.7820   29.6680 O.3   231  THR231     -0.2211
    103  CG2       -8.0630   20.7460   27.3750 C.3   231  THR231      0.0376
    104  N        -10.7850   23.0370   30.2840 N.am  232  LYS232     -0.1979
    105  CA       -11.9870   23.3180   31.0710 C.3   232  LYS232      0.1596
    106  C        -12.5550   24.6750   30.7030 C.2   232  LYS232      0.2287
    107  O        -13.7650   24.8320   30.5530 O.2   232  LYS232     -0.2864
    108  CB       -11.7120   23.2230   32.5750 C.3   232  LYS232      0.0298
    109  CG       -11.7400   21.7940   33.1070 C.3   232  LYS232      0.0038
    110  CD       -13.1550   21.2270   33.0260 C.3   232  LYS232      0.0206
    111  CE       -13.1750   19.7210   33.1550 C.3   232  LYS232      0.1093
    112  NZ       -13.2160   19.3330   34.5820 N.3   232  LYS232     -0.1314
    113  N        -11.6180   19.5550   25.9300 N.3   237  ALA237     -0.1245
    114  CA       -11.0060   18.4050   26.5840 C.3   237  ALA237      0.1562
    115  C        -10.5950   17.3090   25.6090 C.2   237  ALA237      0.2260
    116  O         -9.6060   16.6230   25.8330 O.2   237  ALA237     -0.2867
    117  CB       -11.9420   17.8360   27.6410 C.3   237  ALA237      0.0290
    118  N         -6.9010   17.1660   24.1050 N.3   240  LYS240     -0.1245
    119  CA        -5.8000   16.5640   24.8460 C.3   240  LYS240      0.1561
    120  C         -4.5050   17.3720   24.8560 C.2   240  LYS240      0.2260
    121  O         -3.4460   16.8750   24.4730 O.2   240  LYS240     -0.2867
    122  CB        -5.5420   15.1450   24.3300 C.3   240  LYS240      0.0271
    123  CG        -6.7020   14.1980   24.6030 C.3   240  LYS240      0.0035
    124  CD        -6.9690   14.0950   26.1010 C.3   240  LYS240      0.0206
    125  CE        -8.0480   13.0780   26.4220 C.3   240  LYS240      0.1093
    126  NZ        -9.4190   13.6450   26.3500 N.3   240  LYS240     -0.1314
    127  N         -2.6310   20.2910   27.7050 N.3   242  SER242     -0.1217
    128  CA        -2.6820   21.0320   28.9560 C.3   242  SER242      0.1889
    129  C         -1.2470   21.3860   29.2810 C.2   242  SER242      0.2288
    130  O         -0.3340   21.0500   28.5260 O.2   242  SER242     -0.2866
    131  CB        -3.2540   20.1650   30.0700 C.3   242  SER242      0.2089
    132  OG        -2.3470   19.1290   30.4030 O.3   242  SER242     -0.2183
@<TRIPOS>BOND
     1   118   119    1
     2   122   123    1
     3   122   119    1
     4   121   120    2
     5   123   124    1
     6   119   120    1
     7   115   116    2
     8   115   114    1
     9   113   114    1
    10   124   125    1
    11   126   125    1
    12     5     2    1
    13     5     6    1
    14   114   117    1
    15     8     6   ar
    16     2     1    1
    17     2     3    1
    18     6     7   ar
    19   103   101    1
    20     4     3    2
    21   127   128    1
    22     3     9   am
    23    98   101    1
    24    98    97    1
    25    98    99    1
    26   101   102    1
    27   100    99    2
    28   130   129    2
    29   128   129    1
    30   128   131    1
    31    99   104   am
    32     9    10    1
    33   131   132    1
    34   104   105    1
    35    10    11    1
    36   107   106    2
    37   106   105    1
    38   105   108    1
    39    32    31    1
    40    32    33    1
    41    11    12    2
    42    11    13   am
    43    31    28    1
    44    13    14    1
    45   108   109    1
    46    33    27    1
    47   110   109    1
    48   110   111    1
    49   111   112    1
    50    28    27    1
    51    28    29    1
    52    86    84    1
    53    27    22   am
    54    19    17    1
    55    84    83    1
    56    14    17    1
    57    14    15    1
    58    29    30    2
    59    82    81    2
    60    17    18    1
    61    20    15   am
    62    20    21    1
    63    15    16    2
    64    22    21    1
    65    22    23    2
    66    83    80    1
    67    83    85    1
    68    21    24    1
    69    24    26    1
    70    24    25    1
    71    81    80    1
    72    81    87   am
    73    45    44    1
    74    80    79    1
    75    88    87    1
    76    88    89    1
    77    88    91    1
    78    95    93   ar
    79    95    96   ar
    80    93    92   ar
    81    89    90    2
    82    44    42   ar
    83    44    43   ar
    84    42    40   ar
    85    96    94   ar
    86    92    91    1
    87    92    94   ar
    88    43    41   ar
    89    77    76   ar
    90    40    39   ar
    91    78    76   ar
    92    76    75    1
    93    41    39   ar
    94    70    68   am
    95    39    38    1
    96    73    72    1
    97    73    74    2
    98    72    75    1
    99    72    71    1
   100    68    69    2
   101    68    67    1
   102    67    64    1
   103    38    35    1
   104    54    52   ar
   105    54    56   ar
   106    46    47    1
   107    52    51   ar
   108    35    36    1
   109    35    34    1
   110    36    37    2
   111    56    55   ar
   112    62    61    1
   113    64    63    1
   114    64    65    1
   115    47    48    1
   116    47    50    1
   117    51    50    1
   118    51    53   ar
   119    65    66    2
   120    48    49    2
   121    55    53   ar
   122    58    61    1
   123    58    59    1
   124    58    57    1
   125    59    60    2
