@<TRIPOS>MOLECULE
tmp/3l8gA00.pdb
 145 139 0 0 0
SMALL
GASTEIGER

@<TRIPOS>ATOM
      1  N        -12.8820    8.7250  -13.4870 N.3     8  ASP8       -0.1225
      2  CA       -13.1040    7.9890  -14.7190 C.3     8  ASP8        0.1805
      3  C        -14.5020    8.3980  -15.2250 C.2     8  ASP8        0.2598
      4  O        -15.3740    8.8040  -14.4410 O.2     8  ASP8       -0.2718
      5  CB       -12.9730    6.4930  -14.3920 C.3     8  ASP8        0.1424
      6  CG       -13.5040    5.5700  -15.4710 C.2     8  ASP8        0.3668
      7  OD1      -13.3170    5.8330  -16.6770 O.co2   8  ASP8       -0.2456
      8  OD2      -14.0850    4.5210  -15.0970 O.co2   8  ASP8       -0.2456
      9  N        -14.7290    8.3440  -16.5310 N.am    9  ARG9       -0.1966
     10  CA       -16.0390    8.7430  -17.0510 C.3     9  ARG9        0.1729
     11  C        -16.9620    7.5400  -17.3130 C.2     9  ARG9        0.2616
     12  O        -17.9000    7.2890  -16.5580 O.2     9  ARG9       -0.2715
     13  CB       -15.9080    9.6240  -18.3070 C.3     9  ARG9        0.0348
     14  CG       -17.2250   10.2880  -18.6890 C.3     9  ARG9        0.0492
     15  CD       -17.2470   10.7750  -20.1450 C.3     9  ARG9        0.2205
     16  NE       -17.7670    9.7200  -21.0130 N.pl3   9  ARG9       -0.0865
     17  CZ       -17.9930    9.8390  -22.3180 C.cat   9  ARG9        0.5346
     18  NH1      -17.7220   10.9690  -22.9500 N.pl3   9  ARG9        0.1354
     19  NH2      -18.4730    8.8070  -22.9950 N.pl3   9  ARG9        0.1354
     20  N        -16.6910    6.7980  -18.3790 N.am   10  ASP10      -0.1971
     21  CA       -17.5190    5.6520  -18.7350 C.3    10  ASP10       0.1709
     22  C        -17.4370    4.5720  -17.6750 C.2    10  ASP10       0.2293
     23  O        -16.3610    4.0590  -17.3990 O.2    10  ASP10      -0.2864
     24  CB       -17.0920    5.0510  -20.0770 C.3    10  ASP10       0.1436
     25  CG       -17.2670    6.0050  -21.2220 C.2    10  ASP10       0.3671
     26  OD1      -18.4310    6.3240  -21.5830 O.co2  10  ASP10      -0.2456
     27  OD2      -16.2300    6.4400  -21.7530 O.co2  10  ASP10      -0.2456
     28  N        -21.5790    2.6930  -19.1190 N.3    16  ASP16      -0.1239
     29  CA       -20.7680    2.3200  -20.2550 C.3    16  ASP16       0.1674
     30  C        -21.5790    1.4650  -21.2030 C.2    16  ASP16       0.2266
     31  O        -21.8940    0.3250  -20.8980 O.2    16  ASP16      -0.2867
     32  CB       -19.5200    1.5500  -19.8090 C.3    16  ASP16       0.1410
     33  CG       -18.4680    1.4610  -20.9070 C.2    16  ASP16       0.3668
     34  OD1      -18.7960    1.7640  -22.0720 O.co2  16  ASP16      -0.2456
     35  OD2      -17.3150    1.1060  -20.6080 O.co2  16  ASP16      -0.2456
     36  N        -20.4230    1.3890  -24.4600 N.3    18  GLY18      -0.1210
     37  CA       -19.4520    1.1400  -25.5080 C.3    18  GLY18       0.1956
     38  C        -19.3210    2.3290  -26.4390 C.2    18  GLY18       0.2611
     39  O        -20.2360    2.6470  -27.2080 O.2    18  GLY18      -0.2717
     40  N        -18.1850    3.0040  -26.3530 N.am   19  TYR19      -0.1976
     41  CA       -17.9180    4.1350  -27.2230 C.3    19  TYR19       0.1639
     42  C        -19.0820    5.1310  -27.2280 C.2    19  TYR19       0.2290
     43  O        -19.5340    5.5260  -28.3080 O.2    19  TYR19      -0.2864
     44  CB       -17.7010    3.6510  -28.6580 C.3    19  TYR19       0.0560
     45  CG       -16.5400    2.7080  -28.8630 C.ar   19  TYR19      -0.0198
     46  CD1      -15.2450    3.0870  -28.5350 C.ar   19  TYR19      -0.0009
     47  CD2      -16.7350    1.4480  -29.4280 C.ar   19  TYR19      -0.0009
     48  CE1      -14.1730    2.2310  -28.7390 C.ar   19  TYR19       0.0417
     49  CE2      -15.6670    0.5820  -29.6380 C.ar   19  TYR19       0.0417
     50  CZ       -14.3920    0.9850  -29.2910 C.ar   19  TYR19       0.1957
     51  OH       -13.3250    0.1370  -29.4960 O.3    19  TYR19      -0.2866
     52  N        -10.4990   10.5620  -18.7550 N.3    48  THR48      -0.1203
     53  CA       -11.1620    9.5060  -19.5200 C.3    48  THR48       0.1994
     54  C        -10.4210    9.0790  -20.8040 C.2    48  THR48       0.2618
     55  O        -10.0560    9.9160  -21.6330 O.2    48  THR48      -0.2717
     56  CB       -12.6110    9.9270  -19.8540 C.3    48  THR48       0.1784
     57  OG1      -13.2500    8.9330  -20.6720 O.3    48  THR48      -0.2211
     58  CG2      -12.6600   11.2970  -20.5750 C.3    48  THR48       0.0376
     59  N        -10.1800    7.7760  -20.9530 N.am   49  ASN49      -0.1960
     60  CA        -9.7220    7.2390  -22.2230 C.3    49  ASN49       0.1819
     61  C        -10.8650    7.3240  -23.2280 C.2    49  ASN49       0.2621
     62  O        -12.0020    6.9580  -22.9220 O.2    49  ASN49      -0.2715
     63  CB        -9.2980    5.7770  -22.1030 C.3    49  ASN49       0.1195
     64  CG        -7.9320    5.5930  -21.4680 C.2    49  ASN49       0.2630
     65  OD1       -7.2310    6.5540  -21.1410 O.2    49  ASN49      -0.2716
     66  ND2       -7.5520    4.3360  -21.2810 N.am   49  ASN49      -0.0877
     67  N        -10.5600    7.8240  -24.4230 N.am   50  GLN50      -0.1963
     68  CA       -11.5210    7.8690  -25.5170 C.3    50  GLN50       0.1733
     69  C        -10.8400    7.3400  -26.7780 C.2    50  GLN50       0.2617
     70  O        -10.6000    8.0700  -27.7420 O.2    50  GLN50      -0.2715
     71  CB       -12.0320    9.2870  -25.7470 C.3    50  GLN50       0.0408
     72  CG       -12.8660    9.8490  -24.6010 C.3    50  GLN50       0.0908
     73  CD       -14.1460    9.0700  -24.3650 C.2    50  GLN50       0.2608
     74  OE1      -14.8030    8.6290  -25.3080 O.2    50  GLN50      -0.2717
     75  NE2      -14.4970    8.8800  -23.0990 N.am   50  GLN50      -0.0878
     76  N        -10.5170    6.0580  -26.7550 N.am   51  SER51      -0.1950
     77  CA        -9.8380    5.4280  -27.8730 C.3    51  SER51       0.1924
     78  C        -10.7860    5.3220  -29.0480 C.2    51  SER51       0.2314
     79  O        -10.3550    5.1550  -30.1850 O.2    51  SER51      -0.2863
     80  CB        -9.3760    4.0420  -27.4680 C.3    51  SER51       0.2116
     81  OG       -10.5060    3.2470  -27.1730 O.3    51  SER51      -0.2180
     82  N         -4.7480    5.7860  -29.7810 N.3    89  HIS89      -0.1241
     83  CA        -4.5520    4.3490  -29.7150 C.3    89  HIS89       0.1621
     84  C         -3.4410    3.9760  -30.7010 C.2    89  HIS89       0.2264
     85  O         -3.4750    4.4020  -31.8560 O.2    89  HIS89      -0.2867
     86  CB        -5.8510    3.6000  -30.0370 C.3    89  HIS89       0.0745
     87  CG        -5.8420    2.1710  -29.5940 C.ar   89  HIS89       0.0817
     88  ND1       -5.0550    1.2100  -30.1960 N.ar   89  HIS89      -0.2268
     89  CD2       -6.5090    1.5430  -28.6010 C.ar   89  HIS89       0.1154
     90  CE1       -5.2400    0.0520  -29.5910 C.ar   89  HIS89       0.1986
     91  NE2       -6.1200    0.2250  -28.6230 N.ar   89  HIS89      -0.2212
     92  N         -2.7610    7.9770  -22.1030 N.3   104  ARG104     -0.1231
     93  CA        -3.6550    6.7940  -22.1090 C.3   104  ARG104      0.1694
     94  C         -3.4320    5.9060  -20.8890 C.2   104  ARG104      0.2591
     95  O         -2.3880    5.2450  -20.7730 O.2   104  ARG104     -0.2718
     96  CB        -3.4980    5.9580  -23.3900 C.3   104  ARG104      0.0321
     97  CG        -4.2970    4.6370  -23.3780 C.3   104  ARG104      0.0489
     98  CD        -4.5000    4.0710  -24.7790 C.3   104  ARG104      0.2205
     99  NE        -5.0580    2.7100  -24.7570 N.pl3 104  ARG104     -0.0865
    100  CZ        -6.3660    2.4040  -24.7730 C.cat 104  ARG104      0.5346
    101  NH1       -7.3020    3.3460  -24.8120 N.pl3 104  ARG104      0.1354
    102  NH2       -6.7480    1.1330  -24.7440 N.pl3 104  ARG104      0.1354
    103  N         -4.4080    5.9060  -19.9790 N.am  105  LYS105     -0.1980
    104  CA        -4.3140    5.1510  -18.7230 C.3   105  LYS105      0.1596
    105  C         -4.0850    3.7330  -19.1730 C.2   105  LYS105      0.2287
    106  O         -4.6570    3.3370  -20.1770 O.2   105  LYS105     -0.2864
    107  CB        -5.6270    5.2650  -17.9080 C.3   105  LYS105      0.0298
    108  CG        -6.1180    6.7180  -17.6780 C.3   105  LYS105      0.0038
    109  CD        -7.4970    6.8310  -16.9880 C.3   105  LYS105      0.0206
    110  CE        -8.6460    6.3420  -17.8570 C.3   105  LYS105      0.1093
    111  NZ        -9.9830    6.4240  -17.1390 N.3   105  LYS105     -0.1314
    112  N        -13.5100    2.1200  -12.8770 N.3   127  ASP127     -0.1225
    113  CA       -14.0410    0.7670  -12.8890 C.3   127  ASP127      0.1805
    114  C        -13.0540   -0.2580  -13.4530 C.2   127  ASP127      0.2597
    115  O        -13.4010   -1.4370  -13.5350 O.2   127  ASP127     -0.2718
    116  CB       -15.3030    0.7230  -13.7330 C.3   127  ASP127      0.1424
    117  CG       -15.0000    0.9650  -15.1700 C.2   127  ASP127      0.3668
    118  OD1      -13.9400    1.5610  -15.3960 O.co2 127  ASP127     -0.2456
    119  OD2      -15.7560    0.5470  -16.0650 O.co2 127  ASP127     -0.2456
    120  N        -11.8490    0.1780  -13.8500 N.am  128  LYS128     -0.1979
    121  CA       -10.8270   -0.7300  -14.4250 C.3   128  LYS128      0.1596
    122  C         -9.4690   -0.7350  -13.7070 C.2   128  LYS128      0.2287
    123  O         -9.1130    0.2100  -12.9730 O.2   128  LYS128     -0.2864
    124  CB       -10.5400   -0.3880  -15.8870 C.3   128  LYS128      0.0298
    125  CG       -11.6450   -0.6840  -16.8650 C.3   128  LYS128      0.0038
    126  CD       -11.1510   -0.5330  -18.2890 C.3   128  LYS128      0.0206
    127  CE       -12.2940   -0.7950  -19.2660 C.3   128  LYS128      0.1093
    128  NZ       -11.8190   -1.0080  -20.6680 N.3   128  LYS128     -0.1314
    129  N         -6.6660   -0.3000  -15.2800 N.3   130  GLU130     -0.1231
    130  CA        -5.8420    0.7720  -15.8460 C.3   130  GLU130      0.1699
    131  C         -5.9580    2.0620  -15.0320 C.2   130  GLU130      0.2592
    132  O         -5.0110    2.8690  -14.9930 O.2   130  GLU130     -0.2718
    133  CB        -6.1960    1.0330  -17.3120 C.3   130  GLU130      0.0402
    134  CG        -7.2260    0.0940  -17.8870 C.3   130  GLU130      0.1161
    135  CD        -6.8260   -1.3750  -17.7380 C.2   130  GLU130      0.3649
    136  OE1       -5.6410   -1.7070  -18.0080 O.co2 130  GLU130     -0.2457
    137  OE2       -7.6970   -2.1850  -17.3390 O.co2 130  GLU130     -0.2457
    138  N         -7.1260    2.2410  -14.4010 N.am  131  ASP131     -0.1974
    139  CA        -7.4110    3.3840  -13.5400 C.3   131  ASP131      0.1709
    140  C         -6.6430    3.3080  -12.2370 C.2   131  ASP131      0.2293
    141  O         -6.0700    4.2990  -11.7950 O.2   131  ASP131     -0.2864
    142  CB        -8.9170    3.4850  -13.2460 C.3   131  ASP131      0.1436
    143  CG        -9.7440    3.5980  -14.5010 C.2   131  ASP131      0.3671
    144  OD1       -9.3090    4.3060  -15.4270 O.co2 131  ASP131     -0.2456
    145  OD2      -10.8180    2.9700  -14.5790 O.co2 131  ASP131     -0.2456
@<TRIPOS>BOND
     1    85    84    2
     2    84    83    1
     3    88    87   ar
     4    88    90   ar
     5    79    78    2
     6    86    83    1
     7    86    87    1
     8    82    83    1
     9    49    47   ar
    10    49    50   ar
    11    87    89   ar
    12    90    91   ar
    13    51    50    1
    14    47    45   ar
    15    50    48   ar
    16    78    77    1
    17    45    44    1
    18    45    46   ar
    19    48    46   ar
    20    44    41    1
    21    91    89   ar
    22    43    42    2
    23    77    80    1
    24    77    76    1
    25    70    69    2
    26    80    81    1
    27    42    41    1
    28    41    40    1
    29    39    38    2
    30    69    76   am
    31    69    68    1
    32    38    40   am
    33    38    37    1
    34    71    68    1
    35    71    72    1
    36    68    67    1
    37    37    36    1
    38    74    73    2
    39   101   100    1
    40    98    99    1
    41    98    97    1
    42   100    99    2
    43   100   102    1
    44    72    73    1
    45    67    61   am
    46    73    75   am
    47    96    97    1
    48    96    93    1
    49    61    62    2
    50    61    60    1
    51    19    17    1
    52    18    17    1
    53    17    16    2
    54    60    63    1
    55    60    59    1
    56    93    92    1
    57    93    94    1
    58    63    64    1
    59    34    33   ar
    60    27    25   ar
    61    55    54    2
    62    26    25   ar
    63    64    66   am
    64    64    65    2
    65    25    24    1
    66    30    31    2
    67    30    29    1
    68    16    15    1
    69    59    54   am
    70    33    35   ar
    71    33    32    1
    72    94    95    2
    73    94   103   am
    74    54    53    1
    75    57    56    1
    76   128   127    1
    77    58    56    1
    78    29    32    1
    79    29    28    1
    80   106   105    2
    81    15    14    1
    82    24    21    1
    83   103   104    1
    84    56    53    1
    85    53    52    1
    86   127   126    1
    87   105   104    1
    88    21    20    1
    89    21    22    1
    90   104   107    1
    91    14    13    1
    92    20    11   am
    93    13    10    1
    94   126   125    1
    95   136   135   ar
    96   107   108    1
    97   134   135    1
    98   134   133    1
    99   110   111    1
   100   110   109    1
   101   135   137   ar
   102   108   109    1
   103    22    23    2
   104    11    10    1
   105    11    12    2
   106   133   130    1
   107    10     9    1
   108   125   124    1
   109     7     6   ar
   110     9     3   am
   111   119   117   ar
   112   124   121    1
   113   130   129    1
   114   130   131    1
   115     6     8   ar
   116     6     5    1
   117   144   143   ar
   118   118   117   ar
   119     3     2    1
   120     3     4    2
   121   117   116    1
   122   131   132    2
   123   131   138   am
   124     2     5    1
   125     2     1    1
   126   145   143   ar
   127   143   142    1
   128   121   120    1
   129   121   122    1
   130   138   139    1
   131   120   114   am
   132   116   113    1
   133   122   123    2
   134   139   142    1
   135   139   140    1
   136   115   114    2
   137   114   113    1
   138   113   112    1
   139   140   141    2
