@<TRIPOS>MOLECULE
tmp/3l8kA00.pdb
 189 181 0 0 0
SMALL
GASTEIGER

@<TRIPOS>ATOM
      1  N        -10.5130   59.4280   23.0820 N.3     9  ILE9       -0.1231
      2  CA       -10.6420   59.2090   21.6680 C.3     9  ILE9        0.1692
      3  C         -9.3420   58.5920   21.0840 C.2     9  ILE9        0.2592
      4  O         -8.2860   59.2630   20.9500 O.2     9  ILE9       -0.2718
      5  CB       -10.9410   60.5310   20.9720 C.3     9  ILE9        0.0266
      6  CG1      -12.1810   61.1820   21.6070 C.3     9  ILE9        0.0019
      7  CG2      -11.1420   60.3130   19.4650 C.3     9  ILE9        0.0020
      8  CD1      -12.4860   62.5470   21.0880 C.3     9  ILE9        0.0001
      9  N         -9.4320   57.3150   20.7400 N.am   10  GLY10      -0.1957
     10  CA        -8.2890   56.5650   20.2070 C.3    10  GLY10       0.1869
     11  C         -7.7280   55.6210   21.2430 C.2    10  GLY10       0.2309
     12  O         -7.5940   56.0050   22.4100 O.2    10  GLY10      -0.2863
     13  N         -4.7200   53.7660   20.8620 N.3    12  GLY12      -0.1210
     14  CA        -3.2830   53.5090   20.8390 C.3    12  GLY12       0.1956
     15  C         -2.5940   53.8330   22.1660 C.2    12  GLY12       0.2612
     16  O         -3.2370   54.0650   23.1820 O.2    12  GLY12      -0.2717
     17  N         -1.2650   53.8670   22.1440 N.am   13  GLY13      -0.1942
     18  CA        -0.4640   54.2150   23.3110 C.3    13  GLY13       0.2014
     19  C         -0.8670   55.5100   23.9630 C.2    13  GLY13       0.2638
     20  O         -1.0310   55.5730   25.1780 O.2    13  GLY13      -0.2714
     21  N         -1.0490   56.5450   23.1530 N.am   14  ALA14      -0.1977
     22  CA        -1.5460   57.8370   23.6130 C.3    14  ALA14       0.1597
     23  C         -2.8570   57.7960   24.4340 C.2    14  ALA14       0.2287
     24  O         -3.1650   58.7330   25.1730 O.2    14  ALA14      -0.2864
     25  CB        -1.7200   58.7410   22.4160 C.3    14  ALA14       0.0319
     26  N        -13.0660   54.8220   22.6810 N.3    32  ALA32      -0.1231
     27  CA       -13.5190   54.3000   21.4060 C.3    32  ALA32       0.1694
     28  C        -12.3950   54.3690   20.3590 C.2    32  ALA32       0.2592
     29  O        -11.6390   55.3180   20.3560 O.2    32  ALA32      -0.2718
     30  CB       -14.7170   55.0950   20.9480 C.3    32  ALA32       0.0304
     31  N        -12.2930   53.3490   19.4990 N.am   33  ASP33      -0.1960
     32  CA       -11.3690   53.3060   18.3620 C.3    33  ASP33       0.1825
     33  C        -11.9860   52.4390   17.2490 C.2    33  ASP33       0.2464
     34  O        -12.3840   51.3190   17.5080 O.2    33  ASP33      -0.2730
     35  CB       -10.0380   52.6830   18.8110 C.3    33  ASP33       0.1450
     36  CG        -8.8870   52.9310   17.8320 C.2    33  ASP33       0.3671
     37  OD1       -9.0170   52.6400   16.6350 O.co2  33  ASP33      -0.2456
     38  OD2       -7.8030   53.3820   18.2700 O.co2  33  ASP33      -0.2456
     39  N        -12.0200   52.9270   15.9980 N.am   34  PRO34      -0.2715
     40  CA       -12.4770   52.1680   14.8420 C.3    34  PRO34       0.1536
     41  C        -11.8420   50.7840   14.6270 C.2    34  PRO34       0.2598
     42  O        -12.4930   49.8870   14.0710 O.2    34  PRO34      -0.2715
     43  CB       -12.0490   53.0460   13.6750 C.3    34  PRO34       0.0310
     44  CG       -12.0180   54.3700   14.2000 C.3    34  PRO34       0.0237
     45  CD       -11.5790   54.2710   15.6030 C.3    34  PRO34       0.0939
     46  N        -10.5780   50.6140   14.9850 N.am   35  LYS35      -0.1978
     47  CA        -9.9830   49.3010   14.8620 C.3    35  LYS35       0.1596
     48  C        -10.6340   48.2700   15.7830 C.2    35  LYS35       0.2287
     49  O        -10.5460   47.0660   15.5300 O.2    35  LYS35      -0.2864
     50  CB        -8.5000   49.3540   15.2180 C.3    35  LYS35       0.0298
     51  CG        -7.6190   50.0520   14.1800 C.3    35  LYS35       0.0038
     52  CD        -6.1580   49.9800   14.6160 C.3    35  LYS35       0.0206
     53  CE        -5.4100   51.2390   14.2060 C.3    35  LYS35       0.1093
     54  NZ        -5.3120   51.3710   12.7490 N.3    35  LYS35      -0.1314
     55  N         -3.6550   49.4080   20.7870 N.3    39  GLY39      -0.1210
     56  CA        -2.2850   49.4760   20.2700 C.3    39  GLY39       0.1956
     57  C         -2.0860   50.4970   19.1530 C.2    39  GLY39       0.2612
     58  O         -0.9460   50.9010   18.8510 O.2    39  GLY39      -0.2717
     59  N         -3.2020   50.8760   18.5340 N.am   40  GLY40      -0.1942
     60  CA        -3.2270   51.8630   17.5030 C.3    40  GLY40       0.2014
     61  C         -2.4540   51.4490   16.2830 C.2    40  GLY40       0.2639
     62  O         -2.1840   50.2610   16.0350 O.2    40  GLY40      -0.2714
     63  N         -2.0730   52.4520   15.5200 N.am   41  ASN41      -0.1958
     64  CA        -1.3080   52.2230   14.3260 C.3    41  ASN41       0.1819
     65  C          0.0770   51.6180   14.5860 C.2    41  ASN41       0.2621
     66  O          0.5800   50.8240   13.7770 O.2    41  ASN41      -0.2715
     67  CB        -1.2290   53.5400   13.5590 C.3    41  ASN41       0.1195
     68  CG        -2.5890   53.9810   13.0950 C.2    41  ASN41       0.2630
     69  OD1       -3.3600   53.1450   12.5930 O.2    41  ASN41      -0.2716
     70  ND2       -2.9270   55.2690   13.2890 N.am   41  ASN41      -0.0877
     71  N          0.6850   51.9750   15.7140 N.am   42  CYS42      -0.1968
     72  CA         1.9970   51.4610   16.0230 C.3    42  CYS42       0.1712
     73  C          2.0340   49.9230   16.1340 C.2    42  CYS42       0.2296
     74  O          2.9290   49.2630   15.5910 O.2    42  CYS42      -0.2864
     75  CB         2.5310   52.1150   17.2920 C.3    42  CYS42       0.0983
     76  SG         3.9860   51.2570   17.8620 S.3    42  CYS42      -0.0798
     77  N        -15.5990   52.1460   17.2390 N.3   108  GLY108     -0.1210
     78  CA       -16.2930   53.2320   16.5640 C.3   108  GLY108      0.1956
     79  C        -15.4590   54.4970   16.5500 C.2   108  GLY108      0.2612
     80  O        -14.3190   54.4920   17.0330 O.2   108  GLY108     -0.2717
     81  N        -16.0220   55.5790   16.0130 N.am  109  TYR109     -0.1962
     82  CA       -15.3780   56.8960   15.8630 C.3   109  TYR109      0.1771
     83  C        -16.0860   57.9060   16.7630 C.2   109  TYR109      0.2619
     84  O        -17.3060   57.9290   16.7480 O.2   109  TYR109     -0.2715
     85  CB       -15.5830   57.4350   14.4310 C.3   109  TYR109      0.0574
     86  CG       -14.8750   56.7190   13.2980 C.ar  109  TYR109     -0.0198
     87  CD1      -13.5870   57.0790   12.9210 C.ar  109  TYR109     -0.0009
     88  CD2      -15.5220   55.7350   12.5550 C.ar  109  TYR109     -0.0009
     89  CE1      -12.9480   56.4380   11.8750 C.ar  109  TYR109      0.0417
     90  CE2      -14.8940   55.0960   11.5100 C.ar  109  TYR109      0.0417
     91  CZ       -13.6090   55.4510   11.1780 C.ar  109  TYR109      0.1957
     92  OH       -12.9620   54.8220   10.1460 O.3   109  TYR109     -0.2866
     93  N        -15.3540   58.7830   17.4460 N.am  110  VAL110     -0.1977
     94  CA       -15.9560   59.8230   18.2850 C.3   110  VAL110      0.1596
     95  C        -16.0290   61.1330   17.5240 C.2   110  VAL110      0.2287
     96  O        -15.0840   61.5090   16.8550 O.2   110  VAL110     -0.2864
     97  CB       -15.1650   59.9980   19.5470 C.3   110  VAL110      0.0276
     98  CG1      -15.8150   60.9750   20.4410 C.3   110  VAL110      0.0022
     99  CG2      -15.0400   58.6620   20.2480 C.3   110  VAL110      0.0022
    100  N         -6.6170   61.3720   21.5320 N.3   138  ALA138     -0.1231
    101  CA        -5.4710   60.4990   21.3550 C.3   138  ALA138      0.1694
    102  C         -5.6110   59.8500   20.0190 C.2   138  ALA138      0.2593
    103  O         -5.3700   58.6720   19.9070 O.2   138  ALA138     -0.2718
    104  CB        -5.4510   59.4330   22.4330 C.3   138  ALA138      0.0304
    105  N         -5.9920   60.6340   19.0170 N.am  139  SER139     -0.1938
    106  CA        -6.4140   60.1260   17.7150 C.3   139  SER139      0.2055
    107  C         -5.2810   59.8950   16.7320 C.2   139  SER139      0.2644
    108  O         -5.5040   59.4380   15.6260 O.2   139  SER139     -0.2714
    109  CB        -7.4150   61.1030   17.1160 C.3   139  SER139      0.2130
    110  OG        -7.0300   62.4620   17.3640 O.3   139  SER139     -0.2179
    111  N         -4.0660   60.2270   17.1260 N.am  140  GLY140     -0.1939
    112  CA        -2.8940   59.7880   16.3840 C.3   140  GLY140      0.2014
    113  C         -2.7030   60.4880   15.0580 C.2   140  GLY140      0.2638
    114  O         -3.0270   61.6510   14.9020 O.2   140  GLY140     -0.2714
    115  N         -2.1600   59.7730   14.1000 N.am  141  ALA141     -0.1977
    116  CA        -1.8100   60.3490   12.8190 C.3   141  ALA141      0.1597
    117  C         -2.0820   59.3270   11.7420 C.2   141  ALA141      0.2287
    118  O         -2.3180   58.1620   12.0470 O.2   141  ALA141     -0.2864
    119  CB        -0.3220   60.7430   12.8170 C.3   141  ALA141      0.0319
    120  N          3.7610   61.2140    8.1730 N.3   269  ARG269     -0.1245
    121  CA         2.3980   61.0090    8.6370 C.3   269  ARG269      0.1563
    122  C          1.8550   62.3740    9.0330 C.2   269  ARG269      0.2260
    123  O          2.6260   63.3090    9.2050 O.2   269  ARG269     -0.2867
    124  CB         2.3780   60.0430    9.8080 C.3   269  ARG269      0.0307
    125  CG         3.1610   58.7470    9.5400 C.3   269  ARG269      0.0489
    126  CD         2.9900   57.7080   10.6620 C.3   269  ARG269      0.2205
    127  NE         2.1080   56.6140   10.2550 N.pl3 269  ARG269     -0.0865
    128  CZ         0.8730   56.4070   10.6940 C.cat 269  ARG269      0.5346
    129  NH1        0.3150   57.2080   11.5930 N.pl3 269  ARG269      0.1354
    130  NH2        0.1840   55.3730   10.2270 N.pl3 269  ARG269      0.1354
    131  N         -4.3070   63.4060   12.9000 N.3   272  VAL272     -0.1245
    132  CA        -5.6960   63.1240   12.6300 C.3   272  VAL272      0.1561
    133  C         -6.5290   63.8530   13.6820 C.2   272  VAL272      0.2260
    134  O         -6.4230   63.5820   14.8890 O.2   272  VAL272     -0.2867
    135  CB        -5.9500   61.6090   12.7040 C.3   272  VAL272      0.0252
    136  CG1       -7.4350   61.2860   12.7000 C.3   272  VAL272      0.0019
    137  CG2       -5.2140   60.9040   11.5770 C.3   272  VAL272      0.0019
    138  N        -10.1850   64.7680   15.1780 N.2   274  PRO274     -0.2571
    139  CA       -11.5710   64.2840   15.1680 C.3   274  PRO274      0.2026
    140  C        -12.6130   65.3120   14.7240 C.2   274  PRO274      0.2683
    141  O        -12.4790   66.5140   14.9830 O.2   274  PRO274     -0.2709
    142  CB       -11.8540   63.9090   16.6240 C.2   274  PRO274      0.0085
    143  CG       -10.6170   64.2630   17.4030 C.2   274  PRO274      0.0180
    144  CD        -9.6180   64.9040   16.5220 C.2   274  PRO274      0.0938
    145  N        -13.6720   64.8100   14.1130 N.am  275  GLU275     -0.1972
    146  CA       -14.7980   65.6360   13.7200 C.3   275  GLU275      0.1602
    147  C        -15.3530   66.3920   14.9130 C.2   275  GLU275      0.2287
    148  O        -15.6120   65.8180   15.9940 O.2   275  GLU275     -0.2864
    149  CB       -15.8990   64.7740   13.0990 C.3   275  GLU275      0.0415
    150  CG       -16.8320   65.5020   12.1570 C.3   275  GLU275      0.1163
    151  CD       -18.0300   64.6270   11.7190 C.2   275  GLU275      0.3649
    152  OE1      -19.0440   65.2190   11.2440 O.co2 275  GLU275     -0.2457
    153  OE2      -17.9540   63.3670   11.8760 O.co2 275  GLU275     -0.2457
    154  N         -2.9310   63.9480   23.4880 N.3   305  THR305     -0.1203
    155  CA        -1.7240   63.1600   23.7590 C.3   305  THR305      0.1994
    156  C         -1.2990   62.4060   22.4840 C.2   305  THR305      0.2618
    157  O         -2.1100   62.1610   21.5910 O.2   305  THR305     -0.2717
    158  CB        -2.0140   62.1530   24.8800 C.3   305  THR305      0.1784
    159  OG1       -3.0080   61.2280   24.4350 O.3   305  THR305     -0.2211
    160  CG2       -2.5370   62.8670   26.1520 C.3   305  THR305      0.0376
    161  N         -0.0280   62.0590   22.3730 N.am  306  GLY306     -0.1942
    162  CA         0.4530   61.2930   21.2300 C.3   306  GLY306      0.2014
    163  C          0.5940   62.0570   19.9450 C.2   306  GLY306      0.2638
    164  O          0.6010   63.2650   19.9570 O.2   306  GLY306     -0.2714
    165  N          0.6620   61.3560   18.8250 N.am  307  ASP307     -0.1971
    166  CA         0.9090   61.9960   17.5380 C.3   307  ASP307      0.1709
    167  C         -0.0990   63.0940   17.1850 C.2   307  ASP307      0.2293
    168  O          0.1840   63.9160   16.3520 O.2   307  ASP307     -0.2864
    169  CB         0.9290   61.0020   16.3780 C.3   307  ASP307      0.1436
    170  CG         1.9120   59.8180   16.5700 C.2   307  ASP307      0.3671
    171  OD1        2.8000   59.8300   17.4670 O.co2 307  ASP307     -0.2456
    172  OD2        1.7650   58.8250   15.7950 O.co2 307  ASP307     -0.2456
    173  N          6.0950   56.1710   19.9320 N.3   315  TYR315     -0.1241
    174  CA         5.1660   55.4730   20.8130 C.3   315  TYR315      0.1605
    175  C          5.4590   55.6590   22.3340 C.2   315  TYR315      0.2264
    176  O          4.5410   55.9110   23.1350 O.2   315  TYR315     -0.2867
    177  CB         5.1270   53.9860   20.4530 C.3   315  TYR315      0.0534
    178  CG         4.3210   53.1470   21.3940 C.ar  315  TYR315     -0.0201
    179  CD1        2.9770   52.8850   21.1540 C.ar  315  TYR315     -0.0009
    180  CD2        4.8930   52.6010   22.5350 C.ar  315  TYR315     -0.0009
    181  CE1        2.2340   52.0900   22.0200 C.ar  315  TYR315      0.0417
    182  CE2        4.1490   51.8160   23.3920 C.ar  315  TYR315      0.0417
    183  CZ         2.8290   51.5760   23.1240 C.ar  315  TYR315      0.1957
    184  OH         2.1060   50.8110   23.9800 O.3   315  TYR315     -0.2866
    185  N          4.2650   58.9650   23.4910 N.3   318  ALA318     -0.1245
    186  CA         2.7970   59.0080   23.5230 C.3   318  ALA318      0.1562
    187  C          2.2850   58.3730   24.8220 C.2   318  ALA318      0.2260
    188  O          1.3530   58.8910   25.4560 O.2   318  ALA318     -0.2867
    189  CB         2.2230   58.2920   22.3080 C.3   318  ALA318      0.0290
@<TRIPOS>BOND
     1   120   121    1
     2   121   122    1
     3   121   124    1
     4   122   123    2
     5   125   124    1
     6   125   126    1
     7    92    91    1
     8   130   128    1
     9   127   126    1
    10   127   128    2
    11   128   129    1
    12    91    90   ar
    13    91    89   ar
    14   152   151   ar
    15    90    88   ar
    16   137   135    1
    17   151   153   ar
    18   151   150    1
    19   117   118    2
    20   117   116    1
    21    89    87   ar
    22   150   149    1
    23    88    86   ar
    24    69    68    2
    25   132   135    1
    26   132   131    1
    27   132   133    1
    28   136   135    1
    29    54    53    1
    30   119   116    1
    31   116   115    1
    32    87    86   ar
    33    68    70   am
    34    68    67    1
    35   149   146    1
    36    86    85    1
    37    67    64    1
    38    43    44    1
    39    43    40    1
    40   133   134    2
    41   146   145    1
    42   146   147    1
    43    66    65    2
    44    42    41    2
    45   115   113   am
    46   145   140   am
    47    51    52    1
    48    51    50    1
    49    44    45    1
    50    53    52    1
    51    64    65    1
    52    64    63    1
    53    85    82    1
    54    65    71   am
    55    41    40    1
    56    41    46   am
    57   140   141    2
    58   140   139    1
    59    40    39    1
    60    47    46    1
    61    47    50    1
    62    47    48    1
    63   114   113    2
    64   147   148    2
    65   113   112    1
    66   139   138    1
    67   139   142    1
    68   138   144    2
    69    63    61   am
    70    49    48    2
    71    74    73    2
    72    45    39    1
    73   108   107    2
    74    71    72    1
    75   172   170   ar
    76    82    81    1
    77    82    83    1
    78    39    33   am
    79    81    79   am
    80    72    73    1
    81    72    75    1
    82    62    61    2
    83    61    60    1
    84   168   167    2
    85   169   170    1
    86   169   166    1
    87   112   111    1
    88   144   143    1
    89    79    78    1
    90    79    80    2
    91    78    77    1
    92   170   171   ar
    93   142   143    2
    94    37    36   ar
    95   107   111   am
    96   107   106    1
    97    84    83    2
    98    83    93   am
    99    96    95    2
   100   109   110    1
   101   109   106    1
   102   167   166    1
   103    33    34    2
   104    33    32    1
   105    75    76    1
   106    93    94    1
   107    60    59    1
   108    95    94    1
   109   166   165    1
   110   106   105    1
   111    36    38   ar
   112    36    35    1
   113    94    97    1
   114    32    35    1
   115    32    31    1
   116    59    57   am
   117   165   163   am
   118    58    57    2
   119   105   102   am
   120    57    56    1
   121     7     5    1
   122    31    28   am
   123    97    99    1
   124    97    98    1
   125   103   102    2
   126   173   174    1
   127   163   164    2
   128   163   162    1
   129   102   101    1
   130    10     9    1
   131    10    11    1
   132    56    55    1
   133    29    28    2
   134    28    27    1
   135   177   174    1
   136   177   178    1
   137     9     3   am
   138   174   175    1
   139    14    13    1
   140    14    15    1
   141    30    27    1
   142     4     3    2
   143     5     6    1
   144     5     2    1
   145     3     2    1
   146     8     6    1
   147   179   178   ar
   148   179   181   ar
   149   162   161    1
   150    11    12    2
   151   101   100    1
   152   101   104    1
   153   178   180   ar
   154    27    26    1
   155   157   156    2
   156     2     1    1
   157   181   183   ar
   158    17    15   am
   159    17    18    1
   160    15    16    2
   161   189   186    1
   162   175   176    2
   163   161   156   am
   164    25    22    1
   165   156   155    1
   166   180   182   ar
   167   183   182   ar
   168   183   184    1
   169    21    22    1
   170    21    19   am
   171    18    19    1
   172   154   155    1
   173   185   186    1
   174   186   187    1
   175    22    23    1
   176   155   158    1
   177    19    20    2
   178    23    24    2
   179   159   158    1
   180   187   188    2
   181   158   160    1
