@<TRIPOS>MOLECULE
tmp/3l8pA00.pdb
 208 200 0 0 0
SMALL
GASTEIGER

@<TRIPOS>ATOM
      1  N         12.3260   72.9950   47.5460 N.3    17  ILE17      -0.1231
      2  CA        11.7460   73.4160   46.2790 C.3    17  ILE17       0.1692
      3  C         11.9020   72.4110   45.1540 C.2    17  ILE17       0.2593
      4  O         11.3700   72.6050   44.0630 O.2    17  ILE17      -0.2718
      5  CB        12.3260   74.7830   45.8440 C.3    17  ILE17       0.0266
      6  CG1       13.8550   74.7650   45.9520 C.3    17  ILE17       0.0019
      7  CG2       11.7270   75.8850   46.7170 C.3    17  ILE17       0.0020
      8  CD1       14.5200   76.0840   45.5910 C.3    17  ILE17       0.0001
      9  N         12.6230   71.3310   45.4240 N.am   18  GLY18      -0.1942
     10  CA        12.8280   70.3190   44.4070 C.3    18  GLY18       0.2014
     11  C         13.8360   69.2790   44.8400 C.2    18  GLY18       0.2639
     12  O         14.3150   69.2860   45.9830 O.2    18  GLY18      -0.2714
     13  N         14.1710   68.3860   43.9160 N.am   19  GLU19      -0.1963
     14  CA        15.1140   67.3160   44.1990 C.3    19  GLU19       0.1733
     15  C         15.8200   66.8250   42.9430 C.2    19  GLU19       0.2616
     16  O         15.1790   66.5080   41.9410 O.2    19  GLU19      -0.2715
     17  CB        14.3790   66.1440   44.8480 C.3    19  GLU19       0.0429
     18  CG        15.2840   64.9880   45.2220 C.3    19  GLU19       0.1163
     19  CD        14.5060   63.7560   45.6320 C.2    19  GLU19       0.3649
     20  OE1       15.1350   62.8150   46.1640 O.co2  19  GLU19      -0.2457
     21  OE2       13.2700   63.7310   45.4180 O.co2  19  GLU19      -0.2457
     22  N         17.1460   66.7570   43.0070 N.am   20  GLY20      -0.1955
     23  CA        17.9140   66.2850   41.8700 C.3    20  GLY20       0.1869
     24  C         18.3740   64.8570   42.0910 C.2    20  GLY20       0.2309
     25  O         18.0010   64.2260   43.0840 O.2    20  GLY20      -0.2863
     26  N         16.7820   70.1650   46.9740 N.3    25  VAL25      -0.1245
     27  CA        17.2470   71.5310   46.7740 C.3    25  VAL25       0.1561
     28  C         16.4040   72.3640   47.7230 C.2    25  VAL25       0.2260
     29  O         15.1800   72.2010   47.7990 O.2    25  VAL25      -0.2867
     30  CB        17.0380   72.0140   45.3180 C.3    25  VAL25       0.0252
     31  CG1       15.5730   71.9110   44.9420 C.3    25  VAL25       0.0019
     32  CG2       17.5000   73.4600   45.1700 C.3    25  VAL25       0.0019
     33  N         19.5940   78.8280   46.2810 N.3    40  ALA40      -0.1245
     34  CA        19.1270   77.4600   46.4150 C.3    40  ALA40       0.1562
     35  C         20.3070   76.7160   47.0410 C.2    40  ALA40       0.2260
     36  O         21.4690   77.0260   46.7500 O.2    40  ALA40      -0.2867
     37  CB        18.7930   76.8790   45.0490 C.3    40  ALA40       0.0290
     38  N         22.1360   72.9520   47.8150 N.3    42  LYS42      -0.1245
     39  CA        22.2210   71.5480   47.4370 C.3    42  LYS42       0.1561
     40  C         23.4310   70.9140   48.1240 C.2    42  LYS42       0.2260
     41  O         24.5450   71.4170   48.0120 O.2    42  LYS42      -0.2867
     42  CB        22.3560   71.4340   45.9120 C.3    42  LYS42       0.0271
     43  CG        22.4870   70.0180   45.3810 C.3    42  LYS42       0.0035
     44  CD        23.5520   69.9510   44.2790 C.3    42  LYS42       0.0206
     45  CE        23.8150   68.5150   43.8420 C.3    42  LYS42       0.1093
     46  NZ        25.0130   68.4130   42.9640 N.3    42  LYS42      -0.1314
     47  N         34.1280   72.8140   39.2320 N.3    52  LEU52      -0.1245
     48  CA        32.9370   73.6340   39.3950 C.3    52  LEU52       0.1561
     49  C         33.3120   75.0490   39.8220 C.2    52  LEU52       0.2260
     50  O         32.8890   76.0260   39.2040 O.2    52  LEU52      -0.2867
     51  CB        32.0120   73.0000   40.4410 C.3    52  LEU52       0.0270
     52  CG        30.5180   73.3350   40.4080 C.3    52  LEU52       0.0019
     53  CD1       29.8460   72.6420   41.5790 C.3    52  LEU52       0.0001
     54  CD2       30.2910   74.8330   40.4870 C.3    52  LEU52       0.0001
     55  N         23.5610   77.9890   35.5020 N.3    62  ILE62      -0.1231
     56  CA        23.1930   78.3960   36.8540 C.3    62  ILE62       0.1692
     57  C         24.5220   78.6310   37.5810 C.2    62  ILE62       0.2592
     58  O         25.4420   77.8070   37.5100 O.2    62  ILE62      -0.2718
     59  CB        22.3140   77.3180   37.5570 C.3    62  ILE62       0.0266
     60  CG1       21.5500   77.9660   38.7090 C.3    62  ILE62       0.0019
     61  CG2       23.1540   76.1520   38.0360 C.3    62  ILE62       0.0020
     62  CD1       20.5950   79.0630   38.2570 C.3    62  ILE62       0.0001
     63  N         24.6270   79.7720   38.2560 N.am   63  ASN63      -0.1960
     64  CA        25.8680   80.1600   38.9230 C.3    63  ASN63       0.1819
     65  C         26.0620   79.7890   40.3970 C.2    63  ASN63       0.2621
     66  O         25.1410   79.8830   41.2070 O.2    63  ASN63      -0.2715
     67  CB        26.0580   81.6690   38.7450 C.3    63  ASN63       0.1195
     68  CG        27.3970   82.1440   39.2410 C.2    63  ASN63       0.2630
     69  OD1       28.4490   81.7000   38.7620 O.2    63  ASN63      -0.2716
     70  ND2       27.3740   83.0510   40.2110 N.am   63  ASN63      -0.0877
     71  N         27.2850   79.3730   40.7250 N.am   64  LEU64      -0.1977
     72  CA        27.6620   78.9860   42.0880 C.3    64  LEU64       0.1596
     73  C         27.9830   80.2460   42.9050 C.2    64  LEU64       0.2287
     74  O         28.8580   81.0220   42.5340 O.2    64  LEU64      -0.2864
     75  CB        28.8840   78.0590   42.0280 C.3    64  LEU64       0.0297
     76  CG        29.4740   77.3800   43.2750 C.3    64  LEU64       0.0022
     77  CD1       30.1370   78.4110   44.1610 C.3    64  LEU64       0.0001
     78  CD2       28.3910   76.6260   44.0310 C.3    64  LEU64       0.0001
     79  N         26.3770   73.5040   48.7790 N.3    76  LEU76      -0.1245
     80  CA        26.5600   74.4990   47.7250 C.3    76  LEU76       0.1561
     81  C         25.4260   75.5170   47.7200 C.2    76  LEU76       0.2260
     82  O         24.2490   75.1520   47.7970 O.2    76  LEU76      -0.2867
     83  CB        26.6180   73.8200   46.3530 C.3    76  LEU76       0.0270
     84  CG        27.9040   73.1420   45.8700 C.3    76  LEU76       0.0019
     85  CD1       28.5350   72.3450   46.9790 C.3    76  LEU76       0.0001
     86  CD2       27.5730   72.2470   44.6890 C.3    76  LEU76       0.0001
     87  N         23.6400   78.0760   45.4980 N.3    78  ILE78      -0.1231
     88  CA        23.4440   78.3310   44.0750 C.3    78  ILE78       0.1692
     89  C         22.5620   79.5280   43.7460 C.2    78  ILE78       0.2592
     90  O         21.6080   79.8410   44.4610 O.2    78  ILE78      -0.2718
     91  CB        22.8150   77.0910   43.4080 C.3    78  ILE78       0.0266
     92  CG1       23.5230   75.8300   43.9120 C.3    78  ILE78       0.0019
     93  CG2       22.9020   77.2000   41.8880 C.3    78  ILE78       0.0020
     94  CD1       25.0190   75.8210   43.6350 C.3    78  ILE78       0.0001
     95  N         22.8940   80.1880   42.6450 N.am   79  GLU79      -0.1966
     96  CA        22.1300   81.3260   42.1550 C.3    79  GLU79       0.1733
     97  C         20.6840   80.8570   42.1370 C.2    79  GLU79       0.2616
     98  O         20.4070   79.7200   41.7650 O.2    79  GLU79      -0.2715
     99  CB        22.5860   81.6670   40.7390 C.3    79  GLU79       0.0429
    100  CG        21.7110   82.6620   40.0020 C.3    79  GLU79       0.1163
    101  CD        22.0180   82.6780   38.5160 C.2    79  GLU79       0.3649
    102  OE1       23.0720   82.1300   38.1280 O.co2  79  GLU79      -0.2457
    103  OE2       21.2110   83.2360   37.7400 O.co2  79  GLU79      -0.2457
    104  N         19.7630   81.7270   42.5260 N.am   80  TYR80      -0.1960
    105  CA        18.3590   81.3490   42.5830 C.3    80  TYR80       0.1771
    106  C         17.5630   81.6030   41.2980 C.2    80  TYR80       0.2619
    107  O         17.6490   82.6770   40.7050 O.2    80  TYR80      -0.2715
    108  CB        17.7000   82.0700   43.7660 C.3    80  TYR80       0.0574
    109  CG        16.2500   81.7270   43.9770 C.ar   80  TYR80      -0.0198
    110  CD1       15.8420   80.4050   44.1800 C.ar   80  TYR80      -0.0009
    111  CD2       15.2740   82.7240   43.9640 C.ar   80  TYR80      -0.0009
    112  CE1       14.4900   80.0880   44.3590 C.ar   80  TYR80       0.0417
    113  CE2       13.9280   82.4200   44.1450 C.ar   80  TYR80       0.0417
    114  CZ        13.5450   81.1020   44.3390 C.ar   80  TYR80       0.1957
    115  OH        12.2070   80.8080   44.4930 O.3    80  TYR80      -0.2866
    116  N         16.8000   80.5970   40.8720 N.am   81  ALA81      -0.1964
    117  CA        15.9590   80.6980   39.6800 C.3    81  ALA81       0.1713
    118  C         14.5140   80.7200   40.1740 C.2    81  ALA81       0.2458
    119  O         13.8880   79.6760   40.3650 O.2    81  ALA81      -0.2730
    120  CB        16.1890   79.5090   38.7730 C.3    81  ALA81       0.0333
    121  N         13.9610   81.9240   40.3740 N.am   82  PRO82      -0.2716
    122  CA        12.5920   82.1050   40.8600 C.3    82  PRO82       0.1536
    123  C         11.4810   81.3930   40.1120 C.2    82  PRO82       0.2599
    124  O         10.4840   80.9980   40.7130 O.2    82  PRO82      -0.2715
    125  CB        12.4220   83.6300   40.8620 C.3    82  PRO82       0.0310
    126  CG        13.3200   84.0750   39.7760 C.3    82  PRO82       0.0237
    127  CD        14.5460   83.2170   39.9740 C.3    82  PRO82       0.0939
    128  N         11.6500   81.1980   38.8120 N.am   83  HIS83      -0.1960
    129  CA        10.5940   80.5590   38.0420 C.3    83  HIS83       0.1787
    130  C         10.5810   79.0310   38.0370 C.2    83  HIS83       0.2621
    131  O          9.6300   78.4310   37.5540 O.2    83  HIS83      -0.2715
    132  CB        10.6070   81.1260   36.6270 C.3    83  HIS83       0.0785
    133  CG        10.4930   82.6150   36.5940 C.ar   83  HIS83       0.0821
    134  ND1        9.3350   83.2800   36.9460 N.ar   83  HIS83      -0.2267
    135  CD2       11.4170   83.5750   36.3410 C.ar   83  HIS83       0.1154
    136  CE1        9.5530   84.5830   36.9150 C.ar   83  HIS83       0.1986
    137  NE2       10.8080   84.7900   36.5520 N.ar   83  HIS83      -0.2212
    138  N         11.6200   78.4010   38.5770 N.am   84  GLY84      -0.1940
    139  CA        11.6410   76.9460   38.6350 C.3    84  GLY84       0.2014
    140  C         12.1810   76.2180   37.4160 C.2    84  GLY84       0.2638
    141  O         12.7280   76.8510   36.5130 O.2    84  GLY84      -0.2714
    142  N         12.0300   74.8910   37.3860 N.am   85  ASN85      -0.1972
    143  CA        12.5360   74.1090   36.2610 C.3    85  ASN85       0.1688
    144  C         11.6790   74.3220   35.0280 C.2    85  ASN85       0.2292
    145  O         10.4660   74.5310   35.1200 O.2    85  ASN85      -0.2864
    146  CB        12.6340   72.6150   36.6150 C.3    85  ASN85       0.1181
    147  CG        11.2930   71.9150   36.6380 C.2    85  ASN85       0.2629
    148  OD1       10.6870   71.6770   35.5930 O.2    85  ASN85      -0.2716
    149  ND2       10.8240   71.5700   37.8370 N.am   85  ASN85      -0.0877
    150  N         13.5920   69.1400   32.6960 N.3   144  ARG144     -0.1231
    151  CA        13.6130   69.1500   34.1640 C.3   144  ARG144      0.1694
    152  C         14.9170   69.7180   34.7430 C.2   144  ARG144      0.2592
    153  O         14.9350   70.2090   35.8750 O.2   144  ARG144     -0.2718
    154  CB        13.3740   67.7360   34.7320 C.3   144  ARG144      0.0321
    155  CG        14.3700   66.6890   34.2470 C.3   144  ARG144      0.0489
    156  CD        14.1590   65.3070   34.8790 C.3   144  ARG144      0.2205
    157  NE        15.1550   64.3780   34.3540 N.pl3 144  ARG144     -0.0865
    158  CZ        15.1010   63.8250   33.1430 C.cat 144  ARG144      0.5346
    159  NH1       14.0860   64.0900   32.3270 N.pl3 144  ARG144      0.1354
    160  NH2       16.0870   63.0460   32.7200 N.pl3 144  ARG144      0.1354
    161  N         16.0010   69.6710   33.9710 N.am  145  ASN145     -0.1974
    162  CA        17.2780   70.1810   34.4610 C.3   145  ASN145      0.1688
    163  C         17.6130   71.5660   33.9650 C.2   145  ASN145      0.2292
    164  O         18.7460   72.0270   34.1050 O.2   145  ASN145     -0.2864
    165  CB        18.4220   69.2230   34.1160 C.3   145  ASN145      0.1181
    166  CG        18.3640   67.9530   34.9230 C.2   145  ASN145      0.2629
    167  OD1       17.9560   67.9640   36.0890 O.2   145  ASN145     -0.2716
    168  ND2       18.7740   66.8490   34.3180 N.am  145  ASN145     -0.0877
    169  N         16.6740   75.5640   34.2850 N.3   147  LEU147     -0.1245
    170  CA        16.0190   76.4860   35.1900 C.3   147  LEU147      0.1561
    171  C         15.6180   77.7540   34.4590 C.2   147  LEU147      0.2260
    172  O         16.2850   78.1620   33.5120 O.2   147  LEU147     -0.2867
    173  CB        16.9640   76.8310   36.3400 C.3   147  LEU147      0.0270
    174  CG        17.4440   75.6000   37.1030 C.3   147  LEU147      0.0019
    175  CD1       18.4550   76.0140   38.1650 C.3   147  LEU147      0.0001
    176  CD2       16.2430   74.8820   37.7170 C.3   147  LEU147      0.0001
    177  N         21.4410   73.3770   34.5410 N.3   157  ALA157     -0.1231
    178  CA        21.8090   72.8740   35.8630 C.3   157  ALA157      0.1694
    179  C         22.1350   71.3850   35.8320 C.2   157  ALA157      0.2592
    180  O         21.9660   70.7140   34.8090 O.2   157  ALA157     -0.2718
    181  CB        20.6750   73.1320   36.8620 C.3   157  ALA157      0.0304
    182  N         22.6170   70.8900   36.9690 N.am  158  ASP158     -0.1960
    183  CA        22.9340   69.4850   37.1500 C.3   158  ASP158      0.1840
    184  C         23.8100   68.8720   36.0530 C.2   158  ASP158      0.2622
    185  O         23.5940   67.7210   35.6570 O.2   158  ASP158     -0.2715
    186  CB        21.6280   68.6950   37.2560 C.3   158  ASP158      0.1450
    187  CG        21.7640   67.4550   38.1170 C.2   158  ASP158      0.3671
    188  OD1       20.8250   66.6250   38.1060 O.co2 158  ASP158     -0.2456
    189  OD2       22.8010   67.3200   38.8100 O.co2 158  ASP158     -0.2456
    190  N         24.7830   69.6310   35.5550 N.am  159  PHE159     -0.1974
    191  CA        25.6690   69.1080   34.5210 C.3   159  PHE159      0.1639
    192  C         26.8120   68.3000   35.1540 C.2   159  PHE159      0.2290
    193  O         27.3030   68.6410   36.2310 O.2   159  PHE159     -0.2864
    194  CB        26.2150   70.2600   33.6600 C.3   159  PHE159      0.0560
    195  CG        26.7230   71.4350   34.4560 C.ar  159  PHE159     -0.0200
    196  CD1       28.0210   71.4540   34.9470 C.ar  159  PHE159     -0.0042
    197  CD2       25.8860   72.5120   34.7390 C.ar  159  PHE159     -0.0042
    198  CE1       28.4790   72.5310   35.7150 C.ar  159  PHE159     -0.0003
    199  CE2       26.3310   73.5880   35.5020 C.ar  159  PHE159     -0.0003
    200  CZ        27.6290   73.5980   35.9930 C.ar  159  PHE159     -0.0000
    201  N         30.3870   66.8300   36.1390 N.3   161  LEU161     -0.1245
    202  CA        31.6480   67.5300   36.3610 C.3   161  LEU161      0.1561
    203  C         32.8840   66.7740   35.8980 C.2   161  LEU161      0.2260
    204  O         34.0080   67.2470   36.0620 O.2   161  LEU161     -0.2867
    205  CB        31.7760   67.8940   37.8390 C.3   161  LEU161      0.0270
    206  CG        30.6400   68.7910   38.3390 C.3   161  LEU161      0.0019
    207  CD1       30.7580   68.9850   39.8530 C.3   161  LEU161      0.0001
    208  CD2       30.6880   70.1290   37.6040 C.3   161  LEU161      0.0001
@<TRIPOS>BOND
     1   159   158    1
     2   150   151    1
     3   160   158    1
     4   158   157    2
     5   172   171    2
     6   194   195    1
     7   194   191    1
     8   163   164    2
     9   163   162    1
    10   161   162    1
    11   161   152   am
    12   165   162    1
    13   165   166    1
    14   151   154    1
    15   151   152    1
    16   155   154    1
    17   155   156    1
    18   169   170    1
    19   168   166   am
    20   157   156    1
    21   195   197   ar
    22   195   196   ar
    23   171   170    1
    24   191   192    1
    25   191   190    1
    26   177   178    1
    27   197   199   ar
    28   152   153    2
    29   180   179    2
    30   166   167    2
    31   196   198   ar
    32   144   145    2
    33   144   143    1
    34   192   193    2
    35   170   173    1
    36   199   200   ar
    37    55    56    1
    38   190   184   am
    39   148   147    2
    40   185   184    2
    41   198   200   ar
    42   179   178    1
    43   179   182   am
    44   178   181    1
    45   203   204    2
    46   203   202    1
    47   184   183    1
    48   201   202    1
    49   143   146    1
    50   143   142    1
    51   173   174    1
    52   135   137   ar
    53   135   133   ar
    54   202   205    1
    55   141   140    2
    56   137   136   ar
    57   133   132    1
    58   133   134   ar
    59   146   147    1
    60   132   129    1
    61   147   149   am
    62    56    59    1
    63    56    57    1
    64   136   134   ar
    65   182   183    1
    66   174   176    1
    67   174   175    1
    68   183   186    1
    69   186   187    1
    70   142   140   am
    71   140   139    1
    72    58    57    2
    73   131   130    2
    74    59    61    1
    75    59    60    1
    76    57    63   am
    77   208   206    1
    78   103   101   ar
    79   205   206    1
    80   130   129    1
    81   130   138   am
    82   129   128    1
    83   188   187   ar
    84   187   189   ar
    85   102   101   ar
    86    63    64    1
    87    62    60    1
    88   206   207    1
    89   101   100    1
    90   138   139    1
    91    67    64    1
    92    67    68    1
    93    69    68    2
    94   120   117    1
    95   128   123   am
    96    64    65    1
    97    50    49    2
    98    47    48    1
    99    68    70   am
   100    48    49    1
   101    48    51    1
   102   117   118    1
   103   117   116    1
   104   126   127    1
   105   126   125    1
   106   127   121    1
   107   100    99    1
   108   123   124    2
   109   123   122    1
   110   118   119    2
   111   118   121   am
   112   121   122    1
   113    65    71   am
   114    65    66    2
   115    52    51    1
   116    52    54    1
   117    52    53    1
   118   107   106    2
   119    71    72    1
   120    99    96    1
   121   122   125    1
   122   116   106   am
   123   106   105    1
   124    98    97    2
   125    23    24    1
   126    23    22    1
   127    93    91    1
   128    16    15    2
   129    75    72    1
   130    75    76    1
   131    72    73    1
   132    24    25    2
   133    97    96    1
   134    97   104   am
   135    96    95    1
   136   104   105    1
   137    74    73    2
   138   105   108    1
   139    95    89   am
   140    15    22   am
   141    15    14    1
   142    46    45    1
   143    76    78    1
   144    76    77    1
   145    91    92    1
   146    91    88    1
   147    94    92    1
   148    89    88    1
   149    89    90    2
   150   108   109    1
   151    45    44    1
   152    13    14    1
   153    13    11   am
   154   111   109   ar
   155   111   113   ar
   156   109   110   ar
   157     4     3    2
   158    88    87    1
   159   113   114   ar
   160   110   112   ar
   161    14    17    1
   162    44    43    1
   163   114   112   ar
   164   114   115    1
   165    10    11    1
   166    10     9    1
   167    86    84    1
   168    11    12    2
   169    17    18    1
   170    31    30    1
   171    37    34    1
   172     3     9   am
   173     3     2    1
   174    32    30    1
   175    18    19    1
   176    30    27    1
   177    43    42    1
   178    21    19   ar
   179     8     6    1
   180    19    20   ar
   181     5     6    1
   182     5     2    1
   183     5     7    1
   184    84    83    1
   185    84    85    1
   186    42    39    1
   187     2     1    1
   188    33    34    1
   189    83    80    1
   190    34    35    1
   191    36    35    2
   192    27    26    1
   193    27    28    1
   194    39    38    1
   195    39    40    1
   196    81    80    1
   197    81    82    2
   198    28    29    2
   199    80    79    1
   200    41    40    2
