@<TRIPOS>MOLECULE
tmp/3l8sA01.pdb
 170 160 0 0 0
SMALL
GASTEIGER

@<TRIPOS>ATOM
      1  N         27.7940    7.9530  -21.5360 N.3    27  VAL27      -0.1231
      2  CA        26.4620    8.2960  -22.0030 C.3    27  VAL27       0.1692
      3  C         25.4570    7.9370  -20.9240 C.2    27  VAL27       0.2592
      4  O         24.2860    7.6390  -21.2080 O.2    27  VAL27      -0.2718
      5  CB        26.1130    7.5490  -23.3080 C.3    27  VAL27       0.0266
      6  CG1       26.7640    8.2280  -24.5180 C.3    27  VAL27       0.0020
      7  CG2       26.5230    6.0800  -23.2200 C.3    27  VAL27       0.0020
      8  N         25.9470    7.9710  -19.6860 N.am   28  GLY28      -0.1957
      9  CA        25.1740    7.6080  -18.5050 C.3    28  GLY28       0.1869
     10  C         26.0230    7.0710  -17.3540 C.2    28  GLY28       0.2309
     11  O         27.1550    6.5760  -17.5670 O.2    28  GLY28      -0.2863
     12  N         28.2560    3.6960  -18.0360 N.3    32  VAL32      -0.1245
     13  CA        28.1080    3.1960  -19.3960 C.3    32  VAL32       0.1561
     14  C         28.8430    4.0730  -20.4170 C.2    32  VAL32       0.2260
     15  O         28.7450    5.2900  -20.3790 O.2    32  VAL32      -0.2867
     16  CB        26.6100    3.1360  -19.7490 C.3    32  VAL32       0.0252
     17  CG1       26.3930    2.5050  -21.1070 C.3    32  VAL32       0.0019
     18  CG2       25.8390    2.3750  -18.6560 C.3    32  VAL32       0.0019
     19  N         26.2280   -0.4020  -26.2830 N.3    45  ALA45      -0.1245
     20  CA        26.4160    0.1300  -24.9320 C.3    45  ALA45       0.1562
     21  C         27.3120   -0.8280  -24.1640 C.2    45  ALA45       0.2260
     22  O         27.0390   -2.0070  -24.1000 O.2    45  ALA45      -0.2867
     23  CB        25.0760    0.2710  -24.2320 C.3    45  ALA45       0.0290
     24  N         28.8620   -1.6640  -20.5080 N.3    47  LYS47      -0.1245
     25  CA        28.6060   -1.3020  -19.1030 C.3    47  LYS47       0.1561
     26  C         29.6800   -1.8480  -18.2200 C.2    47  LYS47       0.2260
     27  O         29.8630   -3.0660  -18.1790 O.2    47  LYS47      -0.2867
     28  CB        27.2540   -1.8440  -18.6430 C.3    47  LYS47       0.0271
     29  CG        26.8340   -1.3610  -17.2720 C.3    47  LYS47       0.0035
     30  CD        25.4250   -1.8350  -16.9550 C.3    47  LYS47       0.0206
     31  CE        25.0900   -1.6300  -15.4960 C.3    47  LYS47       0.1093
     32  NZ        23.9820   -2.5450  -15.0250 N.3    47  LYS47      -0.1314
     33  N         22.0860  -10.5540  -12.4950 N.3    65  GLU65      -0.1245
     34  CA        22.0190   -9.7820  -13.7350 C.3    65  GLU65       0.1567
     35  C         22.6300  -10.5460  -14.9280 C.2    65  GLU65       0.2260
     36  O         21.9740  -10.7370  -15.9360 O.2    65  GLU65      -0.2867
     37  CB        22.6950   -8.4350  -13.5480 C.3    65  GLU65       0.0388
     38  CG        22.5130   -7.4640  -14.7230 C.3    65  GLU65       0.1160
     39  CD        23.1930   -6.1090  -14.4560 C.2    65  GLU65       0.3649
     40  OE1       22.7420   -5.0750  -15.0240 O.co2  65  GLU65      -0.2457
     41  OE2       24.1800   -6.0730  -13.6670 O.co2  65  GLU65      -0.2457
     42  N         20.5170  -11.7740  -18.1910 N.3    69  LEU69      -0.1245
     43  CA        20.9540  -11.3140  -19.5070 C.3    69  LEU69       0.1561
     44  C         21.4050  -12.4740  -20.4090 C.2    69  LEU69       0.2260
     45  O         21.0490  -12.4900  -21.5670 O.2    69  LEU69      -0.2867
     46  CB        22.0420  -10.2280  -19.4140 C.3    69  LEU69       0.0270
     47  CG        21.5020   -8.8910  -18.8520 C.3    69  LEU69       0.0019
     48  CD1       22.6140   -7.8830  -18.5260 C.3    69  LEU69       0.0001
     49  CD2       20.5330   -8.2790  -19.7840 C.3    69  LEU69       0.0001
     50  N         16.0530   -7.1560  -24.2630 N.3    78  ILE78      -0.1245
     51  CA        17.4660   -6.7700  -24.2870 C.3    78  ILE78       0.1561
     52  C         18.2470   -8.0600  -24.1230 C.2    78  ILE78       0.2260
     53  O         17.7990   -8.9640  -23.4330 O.2    78  ILE78      -0.2867
     54  CB        17.8080   -5.7230  -23.1620 C.3    78  ILE78       0.0252
     55  CG1       19.2250   -5.1990  -23.3010 C.3    78  ILE78       0.0019
     56  CG2       17.6450   -6.2800  -21.7680 C.3    78  ILE78       0.0019
     57  CD1       19.7420   -4.5490  -22.0270 C.3    78  ILE78       0.0001
     58  N         22.5190   -9.9760  -24.4470 N.3    80  LEU80      -0.1245
     59  CA        23.9340   -9.7210  -24.2290 C.3    80  LEU80       0.1561
     60  C         24.7090  -10.0270  -25.5050 C.2    80  LEU80       0.2260
     61  O         24.6440  -11.1420  -25.9960 O.2    80  LEU80      -0.2867
     62  CB        24.4320  -10.6290  -23.1070 C.3    80  LEU80       0.0270
     63  CG        24.9000  -10.1510  -21.7380 C.3    80  LEU80       0.0019
     64  CD1       25.9100  -11.2320  -21.2490 C.3    80  LEU80       0.0001
     65  CD2       25.5280   -8.7260  -21.6980 C.3    80  LEU80       0.0001
     66  N         29.5310   -5.5530  -19.5060 N.3    98  LEU98      -0.1231
     67  CA        28.4620   -6.1120  -20.2970 C.3    98  LEU98       0.1693
     68  C         28.3610   -5.2980  -21.6030 C.2    98  LEU98       0.2592
     69  O         28.7580   -4.1120  -21.6560 O.2    98  LEU98      -0.2718
     70  CB        27.1480   -6.0510  -19.5000 C.3    98  LEU98       0.0284
     71  CG        27.1180   -6.4690  -18.0040 C.3    98  LEU98       0.0019
     72  CD1       25.6980   -6.2870  -17.4430 C.3    98  LEU98       0.0001
     73  CD2       27.6220   -7.8920  -17.7170 C.3    98  LEU98       0.0001
     74  N         27.8890   -5.9340  -22.6730 N.am   99  VAL99      -0.1966
     75  CA        27.7610   -5.2530  -23.9650 C.3    99  VAL99       0.1727
     76  C         26.4380   -5.6120  -24.5520 C.2    99  VAL99       0.2617
     77  O         26.0760   -6.7930  -24.5370 O.2    99  VAL99      -0.2715
     78  CB        28.8980   -5.6480  -24.9290 C.3    99  VAL99       0.0290
     79  CG1       28.7430   -4.9240  -26.3020 C.3    99  VAL99       0.0023
     80  CG2       30.2480   -5.3100  -24.3060 C.3    99  VAL99       0.0023
     81  N         25.7020   -4.6010  -25.0210 N.am  100  THR100     -0.1937
     82  CA        24.4390   -4.7940  -25.7580 C.3   100  THR100      0.2028
     83  C         24.2460   -3.6670  -26.8080 C.2   100  THR100      0.2642
     84  O         25.0580   -2.7200  -26.9000 O.2   100  THR100     -0.2714
     85  CB        23.2180   -4.9040  -24.7990 C.3   100  THR100      0.1808
     86  OG1       22.0650   -5.3890  -25.5070 O.3   100  THR100     -0.2208
     87  CG2       22.8740   -3.5550  -24.1730 C.3   100  THR100      0.0379
     88  N         23.2070   -3.7690  -27.6130 N.am  101  HIS101     -0.1959
     89  CA        22.9900   -2.8180  -28.7230 C.3   101  HIS101      0.1787
     90  C         22.8170   -1.3810  -28.2220 C.2   101  HIS101      0.2620
     91  O         22.0940   -1.1480  -27.2470 O.2   101  HIS101     -0.2715
     92  CB        21.7670   -3.1980  -29.5360 C.3   101  HIS101      0.0785
     93  CG        21.8310   -4.5620  -30.1560 C.ar  101  HIS101      0.0821
     94  ND1       22.3120   -4.7790  -31.4320 N.ar  101  HIS101     -0.2267
     95  CD2       21.4420   -5.7760  -29.6860 C.ar  101  HIS101      0.1154
     96  CE1       22.2170   -6.0640  -31.7230 C.ar  101  HIS101      0.1986
     97  NE2       21.6910   -6.6940  -30.6800 N.ar  101  HIS101     -0.2212
     98  N         23.5210   -0.4230  -28.8300 N.am  102  LEU102     -0.1963
     99  CA        23.2820    0.9560  -28.4470 C.3   102  LEU102      0.1728
    100  C         21.8770    1.2470  -28.8860 C.2   102  LEU102      0.2616
    101  O         21.4850    0.8930  -29.9980 O.2   102  LEU102     -0.2715
    102  CB        24.2660    1.9260  -29.0770 C.3   102  LEU102      0.0311
    103  CG        24.0950    3.4260  -28.7660 C.3   102  LEU102      0.0022
    104  CD1       24.2390    3.7020  -27.2700 C.3   102  LEU102      0.0001
    105  CD2       25.1200    4.2280  -29.5530 C.3   102  LEU102      0.0001
    106  N         21.0800    1.8020  -27.9820 N.am  103  MET103     -0.1963
    107  CA        19.7360    2.2280  -28.3430 C.3   103  MET103      0.1736
    108  C         19.6460    3.7330  -28.1190 C.2   103  MET103      0.2617
    109  O         20.1630    4.2560  -27.1320 O.2   103  MET103     -0.2715
    110  CB        18.7010    1.4790  -27.5110 C.3   103  MET103      0.0427
    111  CG        17.5380    0.9810  -28.3330 C.3   103  MET103      0.0599
    112  SD        17.9730   -0.5380  -29.2080 S.3   103  MET103     -0.1393
    113  CE        16.4200   -0.8670  -30.0470 C.3   103  MET103      0.0692
    114  N         18.9960    4.4290  -29.0340 N.am  104  GLY104     -0.1940
    115  CA        19.0930    5.8840  -29.0540 C.3   104  GLY104      0.2014
    116  C         17.9430    6.5930  -28.3810 C.2   104  GLY104      0.2639
    117  O         18.0550    7.7820  -28.0530 O.2   104  GLY104     -0.2714
    118  N         16.8490    5.8560  -28.1620 N.am  105  ALA105     -0.1963
    119  CA        15.5870    6.4060  -27.6700 C.3   105  ALA105      0.1728
    120  C         14.7210    5.3420  -26.9820 C.2   105  ALA105      0.2616
    121  O         14.7670    4.1580  -27.3230 O.2   105  ALA105     -0.2715
    122  CB        14.8160    7.0380  -28.7950 C.3   105  ALA105      0.0334
    123  N         13.9330    5.8030  -26.0150 N.am  106  ASP106     -0.1971
    124  CA        12.9550    4.9790  -25.3420 C.3   106  ASP106      0.1709
    125  C         11.5420    5.4810  -25.6550 C.2   106  ASP106      0.2293
    126  O         11.3380    6.3470  -26.5170 O.2   106  ASP106     -0.2864
    127  CB        13.2210    4.9440  -23.8280 C.3   106  ASP106      0.1436
    128  CG        12.9730    6.2890  -23.1570 C.2   106  ASP106      0.3671
    129  OD1       13.6380    6.5890  -22.1430 O.co2 106  ASP106     -0.2456
    130  OD2       12.1090    7.0520  -23.6460 O.co2 106  ASP106     -0.2456
    131  N         10.7830    9.1470  -25.7280 N.3   109  ASN109     -0.1240
    132  CA        11.4200    9.8050  -26.8780 C.3   109  ASN109      0.1653
    133  C         10.7370    9.5290  -28.2150 C.2   109  ASN109      0.2266
    134  O         10.9680   10.2540  -29.1930 O.2   109  ASN109     -0.2867
    135  CB        12.8980    9.4020  -26.9870 C.3   109  ASN109      0.1155
    136  CG        13.6440    9.5220  -25.6610 C.2   109  ASN109      0.2627
    137  OD1       14.7050    8.9030  -25.4810 O.2   109  ASN109     -0.2716
    138  ND2       13.0930   10.3130  -24.7210 N.am  109  ASN109     -0.0877
    139  N         12.9430    0.2530  -25.0360 N.3   151  ALA151     -0.1245
    140  CA        13.8550    0.8360  -25.9800 C.3   151  ALA151      0.1562
    141  C         13.3630    0.6360  -27.4230 C.2   151  ALA151      0.2260
    142  O         12.8180   -0.3990  -27.7840 O.2   151  ALA151     -0.2867
    143  CB        15.2310    0.2470  -25.7820 C.3   151  ALA151      0.0290
    144  N         13.7260   -3.6600  -21.5450 N.3   161  LEU161     -0.1231
    145  CA        14.9640   -3.5180  -20.7820 C.3   161  LEU161      0.1693
    146  C         14.6620   -3.6720  -19.3040 C.2   161  LEU161      0.2592
    147  O         13.5040   -3.4900  -18.8770 O.2   161  LEU161     -0.2718
    148  CB        15.5140   -2.1160  -20.9300 C.3   161  LEU161      0.0284
    149  CG        15.7070   -1.3260  -22.2110 C.3   161  LEU161      0.0019
    150  CD1       16.2540    0.0440  -21.7570 C.3   161  LEU161      0.0001
    151  CD2       16.6960   -2.0020  -23.2110 C.3   161  LEU161      0.0001
    152  N         15.7050   -3.9290  -18.5240 N.am  162  ASP162     -0.1960
    153  CA        15.6050   -4.0540  -17.0580 C.3   162  ASP162      0.1840
    154  C         16.0170   -2.7890  -16.2940 C.2   162  ASP162      0.2622
    155  O         15.7290   -2.6830  -15.1140 O.2   162  ASP162     -0.2715
    156  CB        16.4890   -5.2200  -16.5720 C.3   162  ASP162      0.1450
    157  CG        17.9770   -4.8110  -16.4080 C.2   162  ASP162      0.3671
    158  OD1       18.2680   -3.9160  -15.5400 O.co2 162  ASP162     -0.2456
    159  OD2       18.8470   -5.3730  -17.1360 O.co2 162  ASP162     -0.2456
    160  N         16.7210   -1.8570  -16.9310 N.am  163  PHE163     -0.1974
    161  CA        17.2940   -0.6840  -16.2340 C.3   163  PHE163      0.1639
    162  C         17.7220   -0.9270  -14.7570 C.2   163  PHE163      0.2290
    163  O         18.7070   -0.3530  -14.2440 O.2   163  PHE163     -0.2864
    164  CB        16.3400    0.5140  -16.3070 C.3   163  PHE163      0.0560
    165  CG        16.8500    1.6590  -17.1500 C.ar  163  PHE163     -0.0200
    166  CD1       15.9720    2.4250  -17.9040 C.ar  163  PHE163     -0.0042
    167  CD2       18.2060    1.9830  -17.1720 C.ar  163  PHE163     -0.0042
    168  CE1       16.4290    3.5070  -18.6800 C.ar  163  PHE163     -0.0003
    169  CE2       18.6830    3.0650  -17.9580 C.ar  163  PHE163     -0.0003
    170  CZ        17.7900    3.8270  -18.7050 C.ar  163  PHE163     -0.0000
@<TRIPOS>BOND
     1    96    94   ar
     2    96    97   ar
     3    94    93   ar
     4    97    95   ar
     5    93    95   ar
     6    93    92    1
     7   113   112    1
     8   101   100    2
     9   105   103    1
    10    92    89    1
    11   112   111    1
    12   134   133    2
    13   102   103    1
    14   102    99    1
    15   115   114    1
    16   115   116    1
    17   114   108   am
    18   100    99    1
    19   100   106   am
    20    98    99    1
    21    98    90   am
    22   122   119    1
    23   103   104    1
    24    89    90    1
    25    89    88    1
    26   116   118   am
    27   116   117    2
    28   107   108    1
    29   107   106    1
    30   107   110    1
    31   111   110    1
    32    90    91    2
    33   133   132    1
    34   118   119    1
    35   108   109    2
    36   142   141    2
    37   119   120    1
    38    88    83   am
    39   141   140    1
    40   121   120    2
    41   135   132    1
    42   135   136    1
    43   120   123   am
    44    84    83    2
    45   132   131    1
    46    83    82    1
    47   126   125    2
    48    79    78    1
    49    19    20    1
    50   123   124    1
    51    61    60    2
    52   140   143    1
    53   140   139    1
    54    82    81    1
    55    82    85    1
    56   136   137    2
    57   136   138   am
    58   125   124    1
    59    86    85    1
    60    60    59    1
    61   124   127    1
    62    81    76   am
    63    20    23    1
    64    20    21    1
    65    78    80    1
    66    78    75    1
    67    85    87    1
    68    76    77    2
    69    76    75    1
    70     6     5    1
    71    58    59    1
    72    51    50    1
    73    51    52    1
    74    51    54    1
    75    59    62    1
    76    21    22    2
    77    52    53    2
    78    75    74    1
    79   127   128    1
    80   130   128   ar
    81     5     7    1
    82     5     2    1
    83    55    54    1
    84    55    57    1
    85   151   149    1
    86    54    56    1
    87   128   129   ar
    88    62    63    1
    89    74    68   am
    90   149   150    1
    91   149   148    1
    92     2     1    1
    93     2     3    1
    94    63    65    1
    95    63    64    1
    96    69    68    2
    97    68    67    1
    98    45    44    2
    99   144   145    1
   100     4     3    2
   101    17    16    1
   102   148   145    1
   103     3     8   am
   104   145   146    1
   105    24    25    1
   106    14    15    2
   107    14    13    1
   108    44    43    1
   109    67    66    1
   110    67    70    1
   111    49    47    1
   112    16    13    1
   113    16    18    1
   114     8     9    1
   115    43    46    1
   116    43    42    1
   117    70    71    1
   118    46    47    1
   119    13    12    1
   120   146   147    2
   121   146   152   am
   122    25    28    1
   123    25    26    1
   124    47    48    1
   125   170   168   ar
   126   170   169   ar
   127   168   166   ar
   128    28    29    1
   129   152   153    1
   130     9    10    1
   131    26    27    2
   132    71    73    1
   133    71    72    1
   134   169   167   ar
   135   166   165   ar
   136    11    10    2
   137    29    30    1
   138   167   165   ar
   139   165   164    1
   140   159   157   ar
   141   153   156    1
   142   153   154    1
   143    30    31    1
   144   160   154   am
   145   160   161    1
   146   156   157    1
   147   157   158   ar
   148   164   161    1
   149   154   155    2
   150   161   162    1
   151    36    35    2
   152    31    32    1
   153    40    39   ar
   154    35    34    1
   155   162   163    2
   156    38    39    1
   157    38    37    1
   158    39    41   ar
   159    34    37    1
   160    34    33    1
