@<TRIPOS>MOLECULE
tmp/3l8vA00.pdb
 209 199 0 0 0
SMALL
GASTEIGER

@<TRIPOS>ATOM
      1  N          3.9010   18.7950   56.1220 N.3    31  ILE31      -0.1245
      2  CA         3.8570   17.7750   57.1730 C.3    31  ILE31       0.1561
      3  C          5.0400   16.8450   56.8750 C.2    31  ILE31       0.2260
      4  O          4.8500   15.6790   56.5150 O.2    31  ILE31      -0.2867
      5  CB         2.5120   16.9820   57.2640 C.3    31  ILE31       0.0252
      6  CG1        1.2710   17.8780   57.1060 C.3    31  ILE31       0.0019
      7  CG2        2.4610   16.1630   58.5620 C.3    31  ILE31       0.0019
      8  CD1       -0.1070   17.1370   57.1170 C.3    31  ILE31       0.0001
      9  N          4.5230   15.5650   51.9580 N.3    39  VAL39      -0.1245
     10  CA         3.2210   15.5000   52.6140 C.3    39  VAL39       0.1561
     11  C          2.8620   16.9220   53.0480 C.2    39  VAL39       0.2260
     12  O          3.7090   17.6360   53.5900 O.2    39  VAL39      -0.2867
     13  CB         3.1580   14.4510   53.7710 C.3    39  VAL39       0.0252
     14  CG1        1.7690   14.3940   54.4080 C.3    39  VAL39       0.0019
     15  CG2        3.5570   13.0620   53.2750 C.3    39  VAL39       0.0019
     16  N         -4.1560   14.8440   55.2350 N.3    55  ALA55      -0.1245
     17  CA        -2.7390   14.8660   54.8480 C.3    55  ALA55       0.1562
     18  C         -2.6970   14.4820   53.3740 C.2    55  ALA55       0.2260
     19  O         -3.3560   13.5160   52.9740 O.2    55  ALA55      -0.2867
     20  CB        -1.9410   13.8630   55.6720 C.3    55  ALA55       0.0290
     21  N         -0.2350   13.4670   50.2360 N.3    57  LYS57      -0.1245
     22  CA         1.0750   12.9720   49.8000 C.3    57  LYS57       0.1561
     23  C          1.2530   13.1500   48.2780 C.2    57  LYS57       0.2260
     24  O          0.3520   12.8040   47.5120 O.2    57  LYS57      -0.2867
     25  CB         1.2910   11.5030   50.2400 C.3    57  LYS57       0.0271
     26  CG         2.7350   11.0280   50.1380 C.3    57  LYS57       0.0035
     27  CD         2.8560    9.5120   50.1760 C.3    57  LYS57       0.0206
     28  CE         4.2630    9.0430   49.8660 C.3    57  LYS57       0.1093
     29  NZ         4.3350    7.5690   49.6490 N.3    57  LYS57      -0.1314
     30  N          3.2010    4.6120   42.6220 N.3    71  PHE71      -0.1241
     31  CA         2.6350    5.5700   43.5710 C.3    71  PHE71       0.1605
     32  C          1.1260    5.3840   43.7090 C.2    71  PHE71       0.2264
     33  O          0.6120    5.3750   44.8320 O.2    71  PHE71      -0.2867
     34  CB         2.9770    7.0100   43.1520 C.3    71  PHE71       0.0534
     35  CG         2.4860    8.0810   44.0960 C.ar   71  PHE71      -0.0203
     36  CD1        3.0920    8.2730   45.3350 C.ar   71  PHE71      -0.0042
     37  CD2        1.4420    8.9250   43.7330 C.ar   71  PHE71      -0.0042
     38  CE1        2.6460    9.2750   46.2040 C.ar   71  PHE71      -0.0003
     39  CE2        0.9970    9.9250   44.6040 C.ar   71  PHE71      -0.0003
     40  CZ         1.6040   10.0940   45.8310 C.ar   71  PHE71      -0.0000
     41  N          0.4120    1.8900   45.5230 N.3    74  GLU74      -0.1231
     42  CA         0.6040    2.0340   46.9700 C.3    74  GLU74       0.1699
     43  C         -0.6390    2.6050   47.6600 C.2    74  GLU74       0.2592
     44  O         -1.0320    2.0990   48.7120 O.2    74  GLU74      -0.2718
     45  CB         1.8450    2.8830   47.2780 C.3    74  GLU74       0.0402
     46  CG         3.1350    2.0810   47.2280 C.3    74  GLU74       0.1161
     47  CD         4.4040    2.8340   46.8730 C.2    74  GLU74       0.3649
     48  OE1        4.3710    4.0840   46.7830 O.co2  74  GLU74      -0.2457
     49  OE2        5.4400    2.1590   46.6720 O.co2  74  GLU74      -0.2457
     50  N         -1.2610    3.6140   47.0420 N.am   75  GLY75      -0.1957
     51  CA        -2.4850    4.2260   47.5420 C.3    75  GLY75       0.1869
     52  C         -3.6890    3.3170   47.3840 C.2    75  GLY75       0.2309
     53  O         -4.5180    3.2250   48.2940 O.2    75  GLY75      -0.2863
     54  N         -3.6690    0.0580   47.2530 N.3    77  ILE77      -0.1231
     55  CA        -3.4250   -1.0890   48.1350 C.3    77  ILE77       0.1692
     56  C         -4.2000   -0.9250   49.4770 C.2    77  ILE77       0.2591
     57  O         -4.5610   -1.9210   50.1020 O.2    77  ILE77      -0.2718
     58  CB        -1.8790   -1.2720   48.3130 C.3    77  ILE77       0.0266
     59  CG1       -1.3180   -2.4820   47.5200 C.3    77  ILE77       0.0019
     60  CG2       -1.3660   -1.2030   49.7630 C.3    77  ILE77       0.0020
     61  CD1       -1.7190   -3.9240   48.0270 C.3    77  ILE77       0.0001
     62  N         -4.4750    0.3400   49.8700 N.am   78  MET78      -0.1979
     63  CA        -5.1540    0.7530   51.1040 C.3    78  MET78       0.1605
     64  C         -6.6650    0.6230   51.0840 C.2    78  MET78       0.2287
     65  O         -7.2710    0.6470   52.1550 O.2    78  MET78      -0.2864
     66  CB        -4.8080    2.2100   51.4480 C.3    78  MET78       0.0413
     67  CG        -3.3480    2.4630   51.7050 C.3    78  MET78       0.0598
     68  SD        -3.0710    4.1960   52.1260 S.3    78  MET78      -0.1393
     69  CE        -3.6490    4.2040   53.8000 C.3    78  MET78       0.0692
     70  N         -8.2590   -1.5670   53.4900 N.3    81  PHE81      -0.1241
     71  CA        -7.6660   -1.4270   54.8160 C.3    81  PHE81       0.1605
     72  C         -8.6400   -0.6270   55.6720 C.2    81  PHE81       0.2264
     73  O         -8.5480    0.6060   55.7590 O.2    81  PHE81      -0.2867
     74  CB        -6.2660   -0.7620   54.7850 C.3    81  PHE81       0.0534
     75  CG        -5.0810   -1.5060   54.1950 C.ar   81  PHE81      -0.0203
     76  CD1       -5.1990   -2.8320   53.7780 C.ar   81  PHE81      -0.0042
     77  CD2       -3.8380   -0.8850   54.0790 C.ar   81  PHE81      -0.0042
     78  CE1       -4.1070   -3.5040   53.2140 C.ar   81  PHE81      -0.0003
     79  CE2       -2.7390   -1.5670   53.5350 C.ar   81  PHE81      -0.0003
     80  CZ        -2.8810   -2.8700   53.1090 C.ar   81  PHE81      -0.0000
     81  N         -5.3300    0.4850   61.4850 N.3    86  VAL86      -0.1231
     82  CA        -4.6740    0.5610   60.1830 C.3    86  VAL86       0.1692
     83  C         -5.1230    1.8730   59.5420 C.2    86  VAL86       0.2591
     84  O         -6.3080    2.1960   59.5850 O.2    86  VAL86      -0.2718
     85  CB        -4.9800   -0.6820   59.2700 C.3    86  VAL86       0.0266
     86  CG1       -4.2100   -0.6130   57.9480 C.3    86  VAL86       0.0020
     87  CG2       -4.6770   -2.0060   59.9870 C.3    86  VAL86       0.0020
     88  N         -4.1810    2.6190   58.9480 N.am   87  LEU87      -0.1980
     89  CA        -4.4630    3.8870   58.2880 C.3    87  LEU87       0.1596
     90  C         -5.3340    3.6680   57.0660 C.2    87  LEU87       0.2287
     91  O         -5.1270    2.7040   56.3250 O.2    87  LEU87      -0.2864
     92  CB        -3.1610    4.6380   57.9420 C.3    87  LEU87       0.0297
     93  CG        -3.2840    6.0890   57.4390 C.3    87  LEU87       0.0022
     94  CD1       -3.8500    7.0240   58.5110 C.3    87  LEU87       0.0001
     95  CD2       -1.9550    6.6020   56.9810 C.3    87  LEU87       0.0001
     96  N         -2.2770   11.5090   46.9990 N.3   102  VAL102     -0.1245
     97  CA        -2.8570   10.5180   47.9130 C.3   102  VAL102      0.1561
     98  C         -3.3540   11.2380   49.1710 C.2   102  VAL102      0.2260
     99  O         -2.5920   11.9480   49.8350 O.2   102  VAL102     -0.2867
    100  CB        -1.9600    9.2750   48.1630 C.3   102  VAL102      0.0252
    101  CG1       -2.5040    8.4070   49.2970 C.3   102  VAL102      0.0019
    102  CG2       -1.8290    8.4500   46.8830 C.3   102  VAL102      0.0019
    103  N         -5.0600   11.1890   52.8800 N.3   104  LEU104     -0.1231
    104  CA        -5.1950   10.4000   54.0930 C.3   104  LEU104      0.1678
    105  C         -5.7570   11.2020   55.2570 C.2   104  LEU104      0.2434
    106  O         -5.4940   12.4000   55.3370 O.2   104  LEU104     -0.2733
    107  CB        -3.8250    9.7880   54.4680 C.3   104  LEU104      0.0284
    108  CG        -3.0990    9.0020   53.3470 C.3   104  LEU104      0.0019
    109  CD1       -1.8530    8.4690   53.8350 C.3   104  LEU104      0.0001
    110  CD2       -3.9320    7.8220   52.8150 C.3   104  LEU104      0.0001
    111  N         -6.5260   10.5800   56.1850 N.am  105  PRO105     -0.2718
    112  CA        -7.0080   11.3480   57.3490 C.3   105  PRO105      0.1535
    113  C         -5.8140   11.8810   58.1530 C.2   105  PRO105      0.2599
    114  O         -4.7510   11.2380   58.2010 O.2   105  PRO105     -0.2715
    115  CB        -7.8250   10.3310   58.1540 C.3   105  PRO105      0.0310
    116  CG        -7.4130    8.9920   57.6550 C.3   105  PRO105      0.0237
    117  CD        -6.9290    9.1570   56.2570 C.3   105  PRO105      0.0939
    118  N         -5.9570   13.0980   58.6890 N.am  106  TYR106     -0.1960
    119  CA        -4.9060   13.7510   59.4360 C.3   106  TYR106      0.1771
    120  C         -4.6930   13.0520   60.7870 C.2   106  TYR106      0.2619
    121  O         -5.6560   12.7460   61.4970 O.2   106  TYR106     -0.2715
    122  CB        -5.2140   15.2520   59.6070 C.3   106  TYR106      0.0574
    123  CG        -4.1400   16.0170   60.3510 C.ar  106  TYR106     -0.0198
    124  CD1       -2.8770   16.2050   59.7950 C.ar  106  TYR106     -0.0009
    125  CD2       -4.3880   16.5600   61.6090 C.ar  106  TYR106     -0.0009
    126  CE1       -1.8700   16.8640   60.4930 C.ar  106  TYR106      0.0417
    127  CE2       -3.3950   17.2570   62.3050 C.ar  106  TYR106      0.0417
    128  CZ        -2.1320   17.3950   61.7450 C.ar  106  TYR106      0.1957
    129  OH        -1.1400   18.0790   62.4140 O.3   106  TYR106     -0.2866
    130  N         -3.4240   12.7790   61.1080 N.am  107  MET107     -0.1977
    131  CA        -3.0160   12.1720   62.3660 C.3   107  MET107      0.1605
    132  C         -2.3720   13.2730   63.2100 C.2   107  MET107      0.2287
    133  O         -1.2420   13.6820   62.9610 O.2   107  MET107     -0.2864
    134  CB        -2.1020   10.9490   62.1240 C.3   107  MET107      0.0413
    135  CG        -2.7590    9.8730   61.2430 C.3   107  MET107      0.0598
    136  SD        -4.0530    8.9290   62.0820 S.3   107  MET107     -0.1393
    137  CE        -5.4640    9.3810   61.1720 C.3   107  MET107      0.0692
    138  N          1.0570   12.7420   64.8710 N.3   110  GLY110     -0.1225
    139  CA         2.0920   12.3150   63.9300 C.3   110  GLY110      0.1811
    140  C          2.5160   10.8710   64.0940 C.2   110  GLY110      0.2280
    141  O          1.6840   10.0080   64.3920 O.2   110  GLY110     -0.2866
    142  N         -4.0920   -7.2250   59.1500 N.3   142  LEU142     -0.1245
    143  CA        -3.3000   -7.2530   57.9110 C.3   142  LEU142      0.1561
    144  C         -2.8630   -8.6710   57.5320 C.2   142  LEU142      0.2260
    145  O         -2.9670   -9.0530   56.3600 O.2   142  LEU142     -0.2867
    146  CB        -2.0830   -6.2970   57.9940 C.3   142  LEU142      0.0270
    147  CG        -2.4020   -4.7990   58.0510 C.3   142  LEU142      0.0019
    148  CD1       -1.1500   -4.0020   58.2880 C.3   142  LEU142      0.0001
    149  CD2       -3.0780   -4.3190   56.7700 C.3   142  LEU142      0.0001
    150  N         -1.5340   -9.7460   53.9140 N.3   147  PHE147     -0.1241
    151  CA        -0.7300   -8.5760   53.5760 C.3   147  PHE147      0.1605
    152  C          0.5400   -8.5300   54.4480 C.2   147  PHE147      0.2264
    153  O          0.4490   -8.5600   55.6750 O.2   147  PHE147     -0.2867
    154  CB        -1.5560   -7.2800   53.6810 C.3   147  PHE147      0.0534
    155  CG        -0.7770   -6.0460   53.2960 C.ar  147  PHE147     -0.0203
    156  CD1       -0.6510   -5.6720   51.9610 C.ar  147  PHE147     -0.0042
    157  CD2       -0.1570   -5.2620   54.2690 C.ar  147  PHE147     -0.0042
    158  CE1        0.1100   -4.5570   51.6060 C.ar  147  PHE147     -0.0003
    159  CE2        0.5940   -4.1380   53.9140 C.ar  147  PHE147     -0.0003
    160  CZ         0.7280   -3.7980   52.5880 C.ar  147  PHE147     -0.0000
    161  N          3.7770   -6.4380   55.5510 N.3   149  HIS149     -0.1241
    162  CA         4.1820   -5.0350   55.6660 C.3   149  HIS149      0.1621
    163  C          5.5380   -4.7310   55.0370 C.2   149  HIS149      0.2264
    164  O          5.6200   -3.8350   54.1970 O.2   149  HIS149     -0.2867
    165  CB         4.1100   -4.5520   57.1280 C.3   149  HIS149      0.0745
    166  CG         4.0890   -3.0630   57.2700 C.ar  149  HIS149      0.0817
    167  ND1        5.2030   -2.2880   56.9700 N.ar  149  HIS149     -0.2268
    168  CD2        3.0920   -2.2520   57.6960 C.ar  149  HIS149      0.1154
    169  CE1        4.8480   -1.0350   57.2210 C.ar  149  HIS149      0.1986
    170  NE2        3.5820   -0.9640   57.6590 N.ar  149  HIS149     -0.2212
    171  N          1.2030    5.6190   62.9320 N.3   158  MET158     -0.1245
    172  CA         0.5710    6.9270   63.1150 C.3   158  MET158      0.1570
    173  C         -0.3050    7.0010   64.3410 C.2   158  MET158      0.2261
    174  O         -0.9230    6.0060   64.7210 O.2   158  MET158     -0.2867
    175  CB        -0.2100    7.3190   61.8530 C.3   158  MET158      0.0387
    176  CG         0.6420    7.3010   60.5860 C.3   158  MET158      0.0595
    177  SD         2.1290    8.3360   60.6620 S.3   158  MET158     -0.1393
    178  CE         1.4100    9.9250   60.5420 C.3   158  MET158      0.0692
    179  N         -1.4170    1.6820   61.8400 N.3   167  VAL167     -0.1231
    180  CA        -0.2570    1.1030   61.1450 C.3   167  VAL167      0.1692
    181  C         -0.2660    1.6690   59.7440 C.2   167  VAL167      0.2592
    182  O         -1.3080    1.6630   59.0790 O.2   167  VAL167     -0.2718
    183  CB        -0.2150   -0.4660   61.1670 C.3   167  VAL167      0.0266
    184  CG1        0.8510   -1.0190   60.2240 C.3   167  VAL167      0.0020
    185  CG2        0.0120   -1.0050   62.5790 C.3   167  VAL167      0.0020
    186  N          0.8660    2.2220   59.3180 N.am  168  ALA168     -0.1966
    187  CA         0.9660    2.8140   57.9880 C.3   168  ALA168      0.1728
    188  C          2.3460    2.5290   57.3780 C.2   168  ALA168      0.2616
    189  O          3.1050    1.7370   57.9310 O.2   168  ALA168     -0.2715
    190  CB         0.7110    4.3220   58.0820 C.3   168  ALA168      0.0334
    191  N          2.6470    3.1450   56.2310 N.am  169  ASP169     -0.1957
    192  CA         3.9460    3.0590   55.5710 C.3   169  ASP169      0.1840
    193  C          4.1820    4.3580   54.8510 C.2   169  ASP169      0.2622
    194  O          3.4690    4.6720   53.8920 O.2   169  ASP169     -0.2715
    195  CB         4.0610    1.8510   54.6060 C.3   169  ASP169      0.1450
    196  CG         5.4920    1.4470   54.2490 C.2   169  ASP169      0.3671
    197  OD1        6.4070    2.2840   54.3930 O.co2 169  ASP169     -0.2456
    198  OD2        5.6980    0.2840   53.8510 O.co2 169  ASP169     -0.2456
    199  N          5.1650    5.1280   55.3360 N.am  170  PHE170     -0.1974
    200  CA         5.5450    6.4150   54.7490 C.3   170  PHE170      0.1639
    201  C          6.0560    6.3010   53.3090 C.2   170  PHE170      0.2290
    202  O          5.5890    7.0470   52.4470 O.2   170  PHE170     -0.2864
    203  CB         6.5650    7.1510   55.6250 C.3   170  PHE170      0.0560
    204  CG         5.9350    8.1780   56.5310 C.ar  170  PHE170     -0.0200
    205  CD1        5.6380    7.8740   57.8530 C.ar  170  PHE170     -0.0042
    206  CD2        5.6240    9.4510   56.0580 C.ar  170  PHE170     -0.0042
    207  CE1        5.0800    8.8310   58.6970 C.ar  170  PHE170     -0.0003
    208  CE2        5.0450   10.4020   56.9000 C.ar  170  PHE170     -0.0003
    209  CZ         4.7890   10.0880   58.2170 C.ar  170  PHE170     -0.0000
@<TRIPOS>BOND
     1    30    31    1
     2    34    31    1
     3    34    35    1
     4    31    32    1
     5    32    33    2
     6    37    35   ar
     7    37    39   ar
     8    35    36   ar
     9    39    40   ar
    10    36    38   ar
    11    41    42    1
    12    40    38   ar
    13    49    47   ar
    14    48    47   ar
    15    47    46    1
    16   102   100    1
    17    42    45    1
    18    42    43    1
    19    96    97    1
    20    50    51    1
    21    50    43   am
    22    46    45    1
    23    54    55    1
    24    52    51    1
    25    52    53    2
    26    24    23    2
    27    59    61    1
    28    59    58    1
    29    43    44    2
    30    97   100    1
    31    97    98    1
    32    55    58    1
    33    55    56    1
    34   100   101    1
    35    23    22    1
    36    58    60    1
    37    98    99    2
    38    56    62   am
    39    56    57    2
    40    29    28    1
    41    22    21    1
    42    22    25    1
    43    28    27    1
    44    62    63    1
    45    26    27    1
    46    26    25    1
    47    64    63    1
    48    64    65    2
    49    63    66    1
    50    66    67    1
    51   158   156   ar
    52   158   160   ar
    53    67    68    1
    54     9    10    1
    55   156   155   ar
    56    68    69    1
    57   202   201    2
    58   160   159   ar
    59    10    11    1
    60    10    13    1
    61   110   108    1
    62   103   104    1
    63    19    18    2
    64    11    12    2
    65    80    78   ar
    66    80    79   ar
    67    78    76   ar
    68    15    13    1
    69   155   154    1
    70   155   157   ar
    71   201   200    1
    72   108   109    1
    73   108   107    1
    74    18    17    1
    75    70    71    1
    76    79    77   ar
    77   151   154    1
    78   151   150    1
    79   151   152    1
    80    13    14    1
    81    76    75   ar
    82   198   196   ar
    83   194   193    2
    84   159   157   ar
    85    77    75   ar
    86   104   107    1
    87   104   105    1
    88    75    74    1
    89   164   163    2
    90   196   197   ar
    91   196   195    1
    92   152   153    2
    93   195   192    1
    94   200   199    1
    95   200   203    1
    96    74    71    1
    97    71    72    1
    98    17    16    1
    99    17    20    1
   100   193   199   am
   101   193   192    1
   102   163   162    1
   103   105   106    2
   104   105   111   am
   105   161   162    1
   106   192   191    1
   107   203   204    1
   108   162   165    1
   109    72    73    2
   110   206   204   ar
   111   206   208   ar
   112     1     2    1
   113   111   117    1
   114   111   112    1
   115   191   188   am
   116   117   116    1
   117    91    90    2
   118   145   144    2
   119     4     3    2
   120   204   205   ar
   121   149   147    1
   122     3     2    1
   123   208   209   ar
   124   167   169   ar
   125   167   166   ar
   126    95    93    1
   127    90    89    1
   128     6     8    1
   129     6     5    1
   130   165   166    1
   131     2     5    1
   132   169   170   ar
   133     5     7    1
   134   166   168   ar
   135   112   113    1
   136   112   115    1
   137   188   189    2
   138   188   187    1
   139    93    92    1
   140    93    94    1
   141   144   143    1
   142   116   115    1
   143   170   168   ar
   144   205   207   ar
   145   143   146    1
   146   143   142    1
   147    92    89    1
   148    86    85    1
   149   187   190    1
   150   187   186    1
   151   146   147    1
   152   147   148    1
   153   113   114    2
   154   113   118   am
   155   209   207   ar
   156    89    88    1
   157   118   119    1
   158    88    83   am
   159   182   181    2
   160    85    87    1
   161    85    82    1
   162   186   181   am
   163   119   122    1
   164   119   120    1
   165    83    84    2
   166    83    82    1
   167   122   123    1
   168   181   180    1
   169   124   123   ar
   170   124   126   ar
   171    82    81    1
   172   184   183    1
   173   123   125   ar
   174   126   128   ar
   175   178   177    1
   176   176   177    1
   177   176   175    1
   178   120   130   am
   179   120   121    2
   180   130   131    1
   181   180   183    1
   182   180   179    1
   183   183   185    1
   184   137   136    1
   185   135   136    1
   186   135   134    1
   187   125   127   ar
   188   128   127   ar
   189   128   129    1
   190   175   172    1
   191   134   131    1
   192   131   132    1
   193   171   172    1
   194   133   132    2
   195   172   173    1
   196   139   140    1
   197   139   138    1
   198   140   141    2
   199   173   174    2
