@<TRIPOS>MOLECULE
tmp/3l8xA00.pdb
 180 169 0 0 0
SMALL
GASTEIGER

@<TRIPOS>ATOM
      1  N         -6.7060   -3.2310  -11.3000 N.3    27  VAL27      -0.1245
      2  CA        -5.3420   -3.7630  -11.2650 C.3    27  VAL27       0.1561
      3  C         -4.3060   -2.7750  -11.7940 C.2    27  VAL27       0.2260
      4  O         -3.3070   -2.5190  -11.1260 O.2    27  VAL27      -0.2867
      5  CB        -5.2160   -5.1620  -11.9170 C.3    27  VAL27       0.0252
      6  CG1       -5.7340   -6.2510  -10.9810 C.3    27  VAL27       0.0019
      7  CG2       -5.9180   -5.2180  -13.2740 C.3    27  VAL27       0.0019
      8  N         -7.0480    0.3500  -15.4610 N.3    29  VAL29      -0.1245
      9  CA        -7.2300   -0.9890  -16.0310 C.3    29  VAL29       0.1561
     10  C         -7.9240   -1.9020  -15.0060 C.2    29  VAL29       0.2260
     11  O         -7.6760   -1.7850  -13.8030 O.2    29  VAL29      -0.2867
     12  CB        -5.8490   -1.5270  -16.5430 C.3    29  VAL29       0.0252
     13  CG1       -5.9190   -2.9570  -17.0900 C.3    29  VAL29       0.0019
     14  CG2       -5.2770   -0.5910  -17.5900 C.3    29  VAL29       0.0019
     15  N         -8.1040   -8.2790  -19.1310 N.3    42  ALA42      -0.1231
     16  CA        -7.8190   -6.9270  -18.6850 C.3    42  ALA42       0.1694
     17  C         -8.6020   -5.9650  -19.5820 C.2    42  ALA42       0.2592
     18  O         -8.5730   -6.0650  -20.8280 O.2    42  ALA42      -0.2718
     19  CB        -6.3170   -6.6380  -18.7410 C.3    42  ALA42       0.0304
     20  N         -9.3610   -5.0810  -18.9360 N.am   43  VAL43      -0.1966
     21  CA       -10.1920   -4.0910  -19.6170 C.3    43  VAL43       0.1727
     22  C         -9.6730   -2.7260  -19.2060 C.2    43  VAL43       0.2616
     23  O         -9.5520   -2.4350  -18.0070 O.2    43  VAL43      -0.2715
     24  CB       -11.7190   -4.2600  -19.3160 C.3    43  VAL43       0.0290
     25  CG1      -12.5660   -3.4740  -20.3210 C.3    43  VAL43       0.0023
     26  CG2      -12.1390   -5.7370  -19.3160 C.3    43  VAL43       0.0023
     27  N         -9.3410   -1.9100  -20.1960 N.am   44  LYS44      -0.1977
     28  CA        -8.8110   -0.5750  -19.9670 C.3    44  LYS44       0.1596
     29  C         -9.8630    0.4770  -20.2860 C.2    44  LYS44       0.2287
     30  O        -10.3260    0.5370  -21.4230 O.2    44  LYS44      -0.2864
     31  CB        -7.5220   -0.3660  -20.8290 C.3    44  LYS44       0.0298
     32  CG        -6.8460    1.0070  -20.7110 C.3    44  LYS44       0.0038
     33  CD        -5.3640    0.9190  -20.9260 C.3    44  LYS44       0.0206
     34  CE        -4.8790    2.0500  -21.7680 C.3    44  LYS44       0.1093
     35  NZ        -3.4730    1.8410  -22.2310 N.3    44  LYS44      -0.1314
     36  N         -3.3880    4.7080  -30.1190 N.3    62  GLU62      -0.1245
     37  CA        -3.4640    3.4950  -29.3060 C.3    62  GLU62       0.1567
     38  C         -4.3860    2.4420  -29.9690 C.2    62  GLU62       0.2260
     39  O         -4.0070    1.2770  -30.0630 O.2    62  GLU62      -0.2867
     40  CB        -3.9540    3.8520  -27.8980 C.3    62  GLU62       0.0388
     41  CG        -4.0440    2.6670  -26.9410 C.3    62  GLU62       0.1160
     42  CD        -4.2460    2.9980  -25.4720 C.2    62  GLU62       0.3649
     43  OE1       -4.4780    4.1850  -25.1440 O.co2  62  GLU62      -0.2457
     44  OE2       -4.1810    2.0580  -24.6460 O.co2  62  GLU62      -0.2457
     45  N         -2.6150    1.1520  -33.2220 N.3    65  LEU65      -0.1231
     46  CA        -1.5360    0.2610  -32.8100 C.3    65  LEU65       0.1693
     47  C         -2.1050   -1.1050  -32.3920 C.2    65  LEU65       0.2591
     48  O         -1.6250   -2.1360  -32.8780 O.2    65  LEU65      -0.2718
     49  CB        -0.7540    0.8870  -31.6470 C.3    65  LEU65       0.0284
     50  CG         0.2750    1.9550  -32.0190 C.3    65  LEU65       0.0019
     51  CD1        0.5830    2.8360  -30.8400 C.3    65  LEU65       0.0001
     52  CD2        1.5600    1.3350  -32.5570 C.3    65  LEU65       0.0001
     53  N         -3.1600   -1.1130  -31.5570 N.am   66  LEU66      -0.1980
     54  CA        -3.7720   -2.3670  -31.0760 C.3    66  LEU66       0.1596
     55  C         -4.4880   -3.2330  -32.1330 C.2    66  LEU66       0.2287
     56  O         -4.3670   -4.4540  -32.0950 O.2    66  LEU66      -0.2864
     57  CB        -4.6340   -2.1590  -29.8010 C.3    66  LEU66       0.0297
     58  CG        -3.8970   -1.7810  -28.5190 C.3    66  LEU66       0.0022
     59  CD1       -4.8310   -1.7950  -27.3470 C.3    66  LEU66       0.0001
     60  CD2       -2.7530   -2.7180  -28.2220 C.3    66  LEU66       0.0001
     61  N          1.2940   -7.6300  -26.6730 N.3    75  ILE75      -0.1245
     62  CA        -0.1330   -7.6600  -26.3160 C.3    75  ILE75       0.1561
     63  C         -1.0480   -7.3020  -27.5350 C.2    75  ILE75       0.2260
     64  O         -0.7470   -6.3670  -28.3010 O.2    75  ILE75      -0.2867
     65  CB        -0.4620   -6.8920  -25.0040 C.3    75  ILE75       0.0252
     66  CG1       -1.7810   -7.3880  -24.3850 C.3    75  ILE75       0.0019
     67  CG2       -0.4320   -5.3570  -25.1510 C.3    75  ILE75       0.0019
     68  CD1       -1.6430   -8.3380  -23.1830 C.3    75  ILE75       0.0001
     69  N        -10.9370   -0.8140  -24.3090 N.3    95  LEU95      -0.1245
     70  CA       -10.0670   -1.7890  -24.9710 C.3    95  LEU95       0.1561
     71  C         -9.9180   -3.0110  -24.0570 C.2    95  LEU95       0.2260
     72  O         -9.7540   -2.8980  -22.8340 O.2    95  LEU95      -0.2867
     73  CB        -8.6860   -1.1610  -25.2670 C.3    95  LEU95       0.0270
     74  CG        -8.6820    0.2120  -25.9760 C.3    95  LEU95       0.0019
     75  CD1       -7.3770    0.9670  -25.6940 C.3    95  LEU95       0.0001
     76  CD2       -8.8660    0.0580  -27.4840 C.3    95  LEU95       0.0001
     77  N         -7.8990   -6.8570  -23.5790 N.3    97  THR97      -0.1203
     78  CA        -6.7440   -7.7480  -23.8410 C.3    97  THR97       0.1994
     79  C         -6.7540   -8.8590  -22.7910 C.2    97  THR97       0.2618
     80  O         -7.4790   -8.7420  -21.7990 O.2    97  THR97      -0.2717
     81  CB        -5.3800   -7.0190  -23.6570 C.3    97  THR97       0.1784
     82  OG1       -5.1310   -6.8040  -22.2530 O.3    97  THR97      -0.2211
     83  CG2       -5.2270   -5.7390  -24.5110 C.3    97  THR97       0.0376
     84  N         -5.8730   -9.8830  -22.9630 N.am   98  HIS98      -0.1961
     85  CA        -5.6550  -10.9750  -22.0100 C.3    98  HIS98       0.1787
     86  C         -5.0570  -10.3880  -20.7300 C.2    98  HIS98       0.2620
     87  O         -4.2670   -9.4400  -20.7900 O.2    98  HIS98      -0.2715
     88  CB        -4.6240  -11.9760  -22.5500 C.3    98  HIS98       0.0785
     89  CG        -5.0760  -12.7940  -23.7060 C.ar   98  HIS98       0.0821
     90  ND1       -5.8270  -13.9350  -23.5230 N.ar   98  HIS98      -0.2267
     91  CD2       -4.7780  -12.6650  -25.0250 C.ar   98  HIS98       0.1154
     92  CE1       -6.0400  -14.4190  -24.7380 C.ar   98  HIS98       0.1986
     93  NE2       -5.4240  -13.6910  -25.6770 N.ar   98  HIS98      -0.2212
     94  N         -5.3850  -10.9610  -19.5860 N.am   99  LEU99      -0.1963
     95  CA        -4.7770  -10.4960  -18.3510 C.3    99  LEU99       0.1728
     96  C         -3.4050  -11.1770  -18.2430 C.2    99  LEU99       0.2616
     97  O         -3.2120  -12.2410  -18.8400 O.2    99  LEU99      -0.2715
     98  CB        -5.6680  -10.8780  -17.1550 C.3    99  LEU99       0.0311
     99  CG        -5.2310  -10.3900  -15.7590 C.3    99  LEU99       0.0022
    100  CD1       -5.2760   -8.8680  -15.6410 C.3    99  LEU99       0.0001
    101  CD2       -6.0780  -11.0400  -14.6530 C.3    99  LEU99       0.0001
    102  N         -2.4450  -10.5460  -17.5530 N.am  100  MET100     -0.1963
    103  CA        -1.1510  -11.1640  -17.2840 C.3   100  MET100      0.1736
    104  C         -1.0540  -11.4130  -15.7470 C.2   100  MET100      0.2617
    105  O         -1.9920  -11.0700  -15.0110 O.2   100  MET100     -0.2715
    106  CB         0.0200  -10.3460  -17.8480 C.3   100  MET100      0.0427
    107  CG        -0.0570  -10.0570  -19.3590 C.3   100  MET100      0.0599
    108  SD        -0.2110  -11.4590  -20.5030 S.3   100  MET100     -0.1393
    109  CE         1.2690  -12.4260  -20.0900 C.3   100  MET100      0.0692
    110  N         -0.0070  -12.0990  -15.2990 N.am  101  GLY101     -0.1940
    111  CA         0.1550  -12.4470  -13.8920 C.3   101  GLY101      0.2014
    112  C          0.9230  -11.3900  -13.1370 C.2   101  GLY101      0.2639
    113  O          0.4850  -10.8850  -12.0890 O.2   101  GLY101     -0.2714
    114  N          2.0830  -11.0250  -13.7050 N.am  102  ALA102     -0.1963
    115  CA         2.9680  -10.0510  -13.1160 C.3   102  ALA102      0.1728
    116  C          3.7180   -9.2520  -14.1640 C.2   102  ALA102      0.2616
    117  O          3.8600   -9.6940  -15.3120 O.2   102  ALA102     -0.2715
    118  CB         3.9730  -10.7770  -12.2150 C.3   102  ALA102      0.0334
    119  N          4.2000   -8.0650  -13.7460 N.am  103  ASP103     -0.1971
    120  CA         5.1100   -7.2590  -14.5270 C.3   103  ASP103      0.1709
    121  C          6.4890   -7.6740  -14.0330 C.2   103  ASP103      0.2293
    122  O          6.6040   -8.1920  -12.8980 O.2   103  ASP103     -0.2864
    123  CB         4.8770   -5.7360  -14.4140 C.3   103  ASP103      0.1436
    124  CG         4.7540   -5.0970  -13.0390 C.2   103  ASP103      0.3671
    125  OD1        5.4120   -5.5770  -12.0920 O.co2 103  ASP103     -0.2456
    126  OD2        4.0760   -4.0520  -12.9350 O.co2 103  ASP103     -0.2456
    127  N          7.8170   -6.8190  -10.0160 N.3   106  ASN106     -0.1240
    128  CA         7.4570   -7.7010   -8.8940 C.3   106  ASN106      0.1653
    129  C          8.1560   -9.0760   -8.9600 C.2   106  ASN106      0.2266
    130  O          8.3600   -9.7070   -7.9130 O.2   106  ASN106     -0.2867
    131  CB         5.9270   -7.8980   -8.7960 C.3   106  ASN106      0.1155
    132  CG         5.0470   -6.7480   -9.2700 C.2   106  ASN106      0.2627
    133  OD1        5.1600   -5.5980   -8.8110 O.2   106  ASN106     -0.2716
    134  ND2        4.1010   -7.0590  -10.1680 N.am  106  ASN106     -0.0877
    135  N          7.6140   -2.2840  -15.3760 N.3   144  SER144     -0.1217
    136  CA         6.1730   -2.0870  -15.1820 C.3   144  SER144      0.1889
    137  C          5.3080   -2.2340  -16.4490 C.2   144  SER144      0.2288
    138  O          4.0930   -2.0600  -16.3470 O.2   144  SER144     -0.2866
    139  CB         5.9200   -0.7250  -14.5390 C.3   144  SER144      0.2089
    140  OG         6.3270    0.3160  -15.4140 O.3   144  SER144     -0.2183
    141  N          5.1320   -7.7430  -19.2460 N.3   147  ALA147     -0.1245
    142  CA         4.2870   -8.6070  -18.4850 C.3   147  ALA147      0.1562
    143  C          4.3920  -10.0540  -18.8860 C.2   147  ALA147      0.2260
    144  O          4.5070  -10.3930  -20.0700 O.2   147  ALA147     -0.2867
    145  CB         2.8530   -8.1080  -18.5630 C.3   147  ALA147      0.0290
    146  N          3.7140   -4.4080  -23.3540 N.3   157  LEU157     -0.1231
    147  CA         2.5850   -3.5900  -22.9540 C.3   157  LEU157      0.1693
    148  C          2.9520   -2.1170  -23.0920 C.2   157  LEU157      0.2592
    149  O          4.1170   -1.7460  -22.8920 O.2   157  LEU157     -0.2718
    150  CB         2.3610   -3.8860  -21.4580 C.3   157  LEU157      0.0284
    151  CG         1.0590   -4.4620  -20.9480 C.3   157  LEU157      0.0019
    152  CD1        0.8120   -5.8660  -21.4780 C.3   157  LEU157      0.0001
    153  CD2        1.1130   -4.5290  -19.4510 C.3   157  LEU157      0.0001
    154  N          1.9310   -1.2850  -23.3330 N.am  158  ASP158     -0.1960
    155  CA         1.9620    0.1800  -23.4370 C.3   158  ASP158      0.1840
    156  C          2.9480    0.8030  -24.4270 C.2   158  ASP158      0.2622
    157  O          3.3750    1.9370  -24.2220 O.2   158  ASP158     -0.2715
    158  CB         2.0020    0.8530  -22.0570 C.3   158  ASP158      0.1450
    159  CG         1.0470    0.2720  -21.0510 C.2   158  ASP158      0.3671
    160  OD1       -0.0800   -0.1390  -21.4550 O.co2 158  ASP158     -0.2456
    161  OD2        1.4230    0.1940  -19.8580 O.co2 158  ASP158     -0.2456
    162  N          3.2620    0.1050  -25.5280 N.am  159  PHE159     -0.1974
    163  CA         4.1400    0.6970  -26.5410 C.3   159  PHE159      0.1639
    164  C          3.4680    1.8710  -27.2770 C.2   159  PHE159      0.2290
    165  O          2.2390    1.9590  -27.3100 O.2   159  PHE159     -0.2864
    166  CB         4.6240   -0.3440  -27.5670 C.3   159  PHE159      0.0560
    167  CG         3.4950   -1.1710  -28.1310 C.ar  159  PHE159     -0.0200
    168  CD1        3.1810   -2.4130  -27.5820 C.ar  159  PHE159     -0.0042
    169  CD2        2.6910   -0.6760  -29.1570 C.ar  159  PHE159     -0.0042
    170  CE1        2.0940   -3.1310  -28.0420 C.ar  159  PHE159     -0.0003
    171  CE2        1.5920   -1.3960  -29.6090 C.ar  159  PHE159     -0.0003
    172  CZ         1.3150   -2.6240  -29.0630 C.ar  159  PHE159     -0.0000
    173  N          2.7740    4.8750  -26.8410 N.3   161  LEU161     -0.1245
    174  CA         1.9320    5.8340  -26.1440 C.3   161  LEU161      0.1561
    175  C          2.7030    7.0440  -25.5850 C.2   161  LEU161      0.2260
    176  O          2.8160    8.0840  -26.2540 O.2   161  LEU161     -0.2867
    177  CB         1.1890    5.1200  -25.0040 C.3   161  LEU161      0.0270
    178  CG         0.0690    4.1480  -25.3950 C.3   161  LEU161      0.0019
    179  CD1       -0.4310    3.4240  -24.1810 C.3   161  LEU161      0.0001
    180  CD2       -1.0870    4.8930  -26.0670 C.3   161  LEU161      0.0001
@<TRIPOS>BOND
     1    45    46    1
     2    48    47    2
     3    46    47    1
     4    46    49    1
     5    52    50    1
     6    47    53   am
     7    55    56    2
     8    55    54    1
     9    50    49    1
    10    50    51    1
    11    53    54    1
    12    54    57    1
    13    36    37    1
    14    39    38    2
    15    38    37    1
    16    57    58    1
    17   171   169   ar
    18   171   172   ar
    19    37    40    1
    20   169   167   ar
    21   172   170   ar
    22    58    60    1
    23    58    59    1
    24    64    63    2
    25   167   168   ar
    26   167   166    1
    27   170   168   ar
    28    40    41    1
    29   166   163    1
    30    63    62    1
    31    76    74    1
    32   165   164    2
    33   164   163    1
    34    41    42    1
    35   173   174    1
    36    61    62    1
    37   163   162    1
    38    62    65    1
    39   176   175    2
    40   174   175    1
    41   174   177    1
    42   180   178    1
    43    74    75    1
    44    74    73    1
    45    93    91   ar
    46    93    92   ar
    47   162   156   am
    48    42    43   ar
    49    42    44   ar
    50   178   177    1
    51   178   179    1
    52    73    70    1
    53    67    65    1
    54    91    89   ar
    55    65    66    1
    56    70    69    1
    57    70    71    1
    58    92    90   ar
    59    83    81    1
    60   156   157    2
    61   156   155    1
    62    66    68    1
    63    71    72    2
    64    78    81    1
    65    78    77    1
    66    78    79    1
    67    89    90   ar
    68    89    88    1
    69    81    82    1
    70   155   154    1
    71   155   158    1
    72   146   147    1
    73   154   148   am
    74   148   147    1
    75   148   149    2
    76    84    79   am
    77    84    85    1
    78   147   150    1
    79    79    80    2
    80    88    85    1
    81    35    34    1
    82   158   159    1
    83    85    86    1
    84    34    33    1
    85   152   151    1
    86   150   151    1
    87   160   159   ar
    88    30    29    2
    89   159   161   ar
    90   151   153    1
    91    33    32    1
    92    31    32    1
    93    31    28    1
    94    18    17    2
    95    87    86    2
    96    86    94   am
    97   108   109    1
    98   108   107    1
    99    25    24    1
   100    29    28    1
   101    27    28    1
   102    27    22   am
   103   144   143    2
   104    21    24    1
   105    21    22    1
   106    21    20    1
   107    94    95    1
   108    17    20   am
   109    17    16    1
   110   107   106    1
   111    24    26    1
   112   141   142    1
   113    22    23    2
   114    15    16    1
   115   143   142    1
   116    97    96    2
   117    19    16    1
   118   145   142    1
   119    95    96    1
   120    95    98    1
   121    96   102   am
   122   106   103    1
   123    14    12    1
   124   102   103    1
   125   103   104    1
   126    98    99    1
   127    13    12    1
   128    12     9    1
   129   137   138    2
   130   137   136    1
   131     9     8    1
   132     9    10    1
   133    99   100    1
   134    99   101    1
   135   104   110   am
   136   104   105    2
   137   140   139    1
   138   135   136    1
   139   117   116    2
   140   110   111    1
   141   136   139    1
   142    10    11    2
   143   120   123    1
   144   120   121    1
   145   120   119    1
   146   123   124    1
   147   116   119   am
   148   116   115    1
   149   121   122    2
   150   111   112    1
   151   114   112   am
   152   114   115    1
   153     7     5    1
   154   112   113    2
   155   115   118    1
   156   124   126   ar
   157   124   125   ar
   158     5     2    1
   159     5     6    1
   160     3     2    1
   161     3     4    2
   162     1     2    1
   163   134   132   am
   164   127   128    1
   165   132   133    2
   166   132   131    1
   167   129   128    1
   168   129   130    2
   169   128   131    1
