@<TRIPOS>MOLECULE
tmp/3l91B00.pdb
 142 143 0 0 0
SMALL
GASTEIGER

@<TRIPOS>ATOM
      1  N         36.0900   59.2850   48.5730 N.3     1  SER1       -0.1217
      2  CA        35.5970   59.8430   49.8320 C.3     1  SER1        0.1889
      3  C         36.2690   61.1770   50.1220 C.2     1  SER1        0.2288
      4  O         37.4180   61.3800   49.7350 O.2     1  SER1       -0.2866
      5  CB        35.8920   58.8860   50.9970 C.3     1  SER1        0.2089
      6  OG        35.2390   57.6340   50.7770 O.3     1  SER1       -0.2183
      7  N         32.0300   60.0680   52.9530 N.3    22  PRO22      -0.2102
      8  CA        32.5150   58.8530   52.2920 C.3    22  PRO22       0.1504
      9  C         31.8170   58.6080   50.9470 C.2    22  PRO22       0.2576
     10  O         30.6060   58.8680   50.8180 O.2    22  PRO22      -0.2718
     11  CB        32.1400   57.7380   53.2900 C.3    22  PRO22       0.0282
     12  CG        31.0250   58.3310   54.1300 C.3    22  PRO22       0.0208
     13  CD        31.3980   59.7710   54.2580 C.3    22  PRO22       0.0893
     14  N         32.5610   58.1020   49.9700 N.am   23  HIS23      -0.1962
     15  CA        32.0080   57.7280   48.6720 C.3    23  HIS23       0.1787
     16  C         32.0830   56.2120   48.5680 C.2    23  HIS23       0.2620
     17  O         33.1610   55.6310   48.4490 O.2    23  HIS23      -0.2715
     18  CB        32.7720   58.4070   47.5290 C.3    23  HIS23       0.0785
     19  CG        32.7870   59.9050   47.6160 C.ar   23  HIS23       0.0821
     20  ND1       33.8510   60.6630   47.1790 N.ar   23  HIS23      -0.2267
     21  CD2       31.8850   60.7800   48.1260 C.ar   23  HIS23       0.1154
     22  CE1       33.6010   61.9420   47.4000 C.ar   23  HIS23       0.1986
     23  NE2       32.4030   62.0430   47.9540 N.ar   23  HIS23      -0.2212
     24  N         30.9280   55.5610   48.6530 N.am   24  PHE24      -0.1974
     25  CA        30.8520   54.1170   48.7980 C.3    24  PHE24       0.1639
     26  C         29.7470   53.5800   47.8930 C.2    24  PHE24       0.2290
     27  O         28.9100   54.3650   47.3850 O.2    24  PHE24      -0.2864
     28  CB        30.5180   53.7750   50.2640 C.3    24  PHE24       0.0560
     29  CG        31.6960   53.3270   51.0800 C.ar   24  PHE24      -0.0200
     30  CD1       32.8820   54.0290   51.0600 C.ar   24  PHE24      -0.0042
     31  CD2       31.5890   52.2120   51.9070 C.ar   24  PHE24      -0.0042
     32  CE1       33.9580   53.6070   51.8140 C.ar   24  PHE24      -0.0003
     33  CE2       32.6470   51.7930   52.6720 C.ar   24  PHE24      -0.0003
     34  CZ        33.8400   52.4870   52.6230 C.ar   24  PHE24      -0.0000
     35  N         26.2680   51.4180   53.5020 N.3    32  PHE32      -0.1241
     36  CA        26.1600   51.9760   54.8840 C.3    32  PHE32       0.1605
     37  C         24.7410   51.8980   55.4400 C.2    32  PHE32       0.2264
     38  O         23.7440   51.9590   54.6920 O.2    32  PHE32      -0.2867
     39  CB        26.5910   53.4530   54.9020 C.3    32  PHE32       0.0534
     40  CG        28.0740   53.6580   54.9570 C.ar   32  PHE32      -0.0203
     41  CD1       28.7310   54.3220   53.9270 C.ar   32  PHE32      -0.0042
     42  CD2       28.8050   53.2300   56.0670 C.ar   32  PHE32      -0.0042
     43  CE1       30.1240   54.5240   53.9830 C.ar   32  PHE32      -0.0003
     44  CE2       30.1870   53.4230   56.1290 C.ar   32  PHE32      -0.0003
     45  CZ        30.8370   54.0710   55.0820 C.ar   32  PHE32      -0.0000
     46  N         28.6130   49.0490   58.4350 N.3    50  LEU50      -0.1245
     47  CA        28.5930   48.2510   57.2090 C.3    50  LEU50       0.1561
     48  C         27.8660   46.9370   57.4960 C.2    50  LEU50       0.2260
     49  O         27.8890   46.4720   58.6230 O.2    50  LEU50      -0.2867
     50  CB        30.0300   48.0270   56.7030 C.3    50  LEU50       0.0270
     51  CG        30.7240   49.3430   56.2730 C.3    50  LEU50       0.0019
     52  CD1       32.1960   49.1030   56.0570 C.3    50  LEU50       0.0001
     53  CD2       30.1010   49.8980   54.9800 C.3    50  LEU50       0.0001
     54  N         31.0010   52.4330   62.0360 N.3    57  ASN57      -0.1225
     55  CA        32.2070   52.5840   61.2150 C.3    57  ASN57       0.1785
     56  C         32.6510   54.0460   61.1150 C.2    57  ASN57       0.2597
     57  O         33.8410   54.3580   61.2330 O.2    57  ASN57      -0.2718
     58  CB        31.9280   52.0020   59.8200 C.3    57  ASN57       0.1169
     59  CG        33.1190   52.1190   58.8840 C.2    57  ASN57       0.2627
     60  OD1       33.2130   53.0730   58.0970 O.2    57  ASN57      -0.2716
     61  ND2       34.0290   51.1610   58.9680 N.am   57  ASN57      -0.0877
     62  N         31.6860   54.9320   60.8880 N.am   58  ILE58      -0.1980
     63  CA        31.9220   56.3790   60.7940 C.3    58  ILE58       0.1595
     64  C         30.8710   57.0120   61.6920 C.2    58  ILE58       0.2287
     65  O         29.6980   56.6890   61.5720 O.2    58  ILE58      -0.2864
     66  CB        31.7470   56.8800   59.3210 C.3    58  ILE58       0.0276
     67  CG1       32.9340   56.4010   58.4690 C.3    58  ILE58       0.0022
     68  CG2       31.6110   58.4070   59.2830 C.3    58  ILE58       0.0022
     69  CD1       32.7940   56.7200   56.9500 C.3    58  ILE58       0.0001
     70  N         36.4550   58.1880   57.7910 N.3    68  HIS68      -0.1226
     71  CA        37.5140   57.4730   57.1120 C.3    68  HIS68       0.1752
     72  C         37.4960   57.7820   55.6230 C.2    68  HIS68       0.2597
     73  O         36.4430   58.0960   55.0530 O.2    68  HIS68      -0.2718
     74  CB        37.3390   55.9520   57.3010 C.3    68  HIS68       0.0759
     75  CG        37.3800   55.5260   58.7340 C.ar   68  HIS68       0.0818
     76  ND1       38.5320   55.5670   59.4830 N.ar   68  HIS68      -0.2268
     77  CD2       36.4070   55.0630   59.5570 C.ar   68  HIS68       0.1154
     78  CE1       38.2700   55.1550   60.7180 C.ar   68  HIS68       0.1986
     79  NE2       36.9860   54.8410   60.7860 N.ar   68  HIS68      -0.2212
     80  N         38.6600   57.6640   55.0000 N.am   69  THR69      -0.1939
     81  CA        38.7250   57.7040   53.5430 C.3    69  THR69       0.2028
     82  C         39.6710   56.6020   53.0900 C.2    69  THR69       0.2642
     83  O         40.6220   56.2660   53.7840 O.2    69  THR69      -0.2714
     84  CB        39.2570   59.0660   53.0140 C.3    69  THR69       0.1808
     85  OG1       40.6030   59.2620   53.4850 O.3    69  THR69      -0.2208
     86  CG2       38.3870   60.2470   53.4810 C.3    69  THR69       0.0379
     87  N         39.4610   56.0580   51.8970 N.am   70  VAL70      -0.1977
     88  CA        40.4160   55.0480   51.4040 C.3    70  VAL70       0.1596
     89  C         41.7830   55.6780   51.1890 C.2    70  VAL70       0.2287
     90  O         41.8940   56.7450   50.5610 O.2    70  VAL70      -0.2864
     91  CB        39.8890   54.3250   50.1390 C.3    70  VAL70       0.0276
     92  CG1       40.9760   53.4210   49.5360 C.3    70  VAL70       0.0022
     93  CG2       38.6780   53.4500   50.5140 C.3    70  VAL70       0.0022
     94  N         40.3280   43.7880   63.5340 N.3   158  VAL158     -0.1245
     95  CA        39.4970   44.8090   62.8800 C.3   158  VAL158      0.1561
     96  C         38.2150   45.1740   63.6450 C.2   158  VAL158      0.2260
     97  O         37.8790   46.3640   63.7640 O.2   158  VAL158     -0.2867
     98  CB        39.2150   44.4260   61.4030 C.3   158  VAL158      0.0252
     99  CG1       38.5580   43.0270   61.3070 C.3   158  VAL158      0.0019
    100  CG2       38.3740   45.4870   60.6940 C.3   158  VAL158      0.0019
    101  N         37.2730   48.8660   65.7890 N.3   162  TRP162     -0.1241
    102  CA        36.1470   49.8110   65.6900 C.3   162  TRP162      0.1605
    103  C         35.3100   49.8680   66.9640 C.2   162  TRP162      0.2264
    104  O         34.8140   50.9290   67.3250 O.2   162  TRP162     -0.2867
    105  CB        35.2880   49.5740   64.4520 C.3   162  TRP162      0.0550
    106  CG        35.7170   50.4960   63.3500 C.ar  162  TRP162      0.0003
    107  CD1       35.2740   51.7740   63.1240 C.ar  162  TRP162      0.0946
    108  CD2       36.7300   50.2400   62.3680 C.ar  162  TRP162      0.0152
    109  NE1       35.9430   52.3200   62.0460 N.ar  162  TRP162     -0.2442
    110  CE2       36.8360   51.3990   61.5620 C.ar  162  TRP162      0.0810
    111  CE3       37.5660   49.1400   62.0930 C.ar  162  TRP162      0.0012
    112  CZ2       37.7290   51.4900   60.4800 C.ar  162  TRP162      0.0191
    113  CZ3       38.4690   49.2360   61.0230 C.ar  162  TRP162      0.0001
    114  CH2       38.5300   50.4020   60.2210 C.ar  162  TRP162      0.0015
    115  N         42.1400   48.3520   58.4790 N.3   185  PRO185     -0.2102
    116  CA        42.6950   47.6410   57.3240 C.3   185  PRO185      0.1504
    117  C         43.2330   48.5210   56.2030 C.2   185  PRO185      0.2576
    118  O         44.3560   48.2840   55.7350 O.2   185  PRO185     -0.2718
    119  CB        41.5040   46.7990   56.8100 C.3   185  PRO185      0.0282
    120  CG        40.6580   46.6090   58.0180 C.3   185  PRO185      0.0208
    121  CD        40.7390   47.9620   58.7300 C.3   185  PRO185      0.0893
    122  N         42.4720   49.5200   55.7620 N.am  186  TRP186     -0.1963
    123  CA        42.8390   50.2000   54.5060 C.3   186  TRP186      0.1771
    124  C         42.2830   51.6070   54.3490 C.2   186  TRP186      0.2619
    125  O         42.1120   52.0990   53.2270 O.2   186  TRP186     -0.2715
    126  CB        42.5490   49.3120   53.2490 C.3   186  TRP186      0.0590
    127  CG        41.2740   48.4870   53.2900 C.ar  186  TRP186      0.0006
    128  CD1       41.1800   47.1390   53.5410 C.ar  186  TRP186      0.0946
    129  CD2       39.9370   48.9390   53.0480 C.ar  186  TRP186      0.0152
    130  NE1       39.8710   46.7350   53.4880 N.ar  186  TRP186     -0.2442
    131  CE2       39.0830   47.8070   53.1730 C.ar  186  TRP186      0.0810
    132  CE3       39.3720   50.1840   52.7240 C.ar  186  TRP186      0.0012
    133  CZ2       37.6980   47.8870   53.0160 C.ar  186  TRP186      0.0191
    134  CZ3       37.9800   50.2650   52.5460 C.ar  186  TRP186      0.0001
    135  CH2       37.1580   49.1100   52.6890 C.ar  186  TRP186      0.0015
    136  N         42.0530   52.2730   55.4780 N.am  187  VAL187     -0.1977
    137  CA        41.5630   53.6490   55.4180 C.3   187  VAL187      0.1596
    138  C         42.3850   54.6040   56.2770 C.2   187  VAL187      0.2287
    139  O         42.9690   54.1940   57.2830 O.2   187  VAL187     -0.2864
    140  CB        40.0820   53.7720   55.8420 C.3   187  VAL187      0.0276
    141  CG1       39.1760   53.1200   54.7860 C.3   187  VAL187      0.0022
    142  CG2       39.8240   53.1660   57.2710 C.3   187  VAL187      0.0022
@<TRIPOS>BOND
     1    20    22   ar
     2    20    19   ar
     3    27    26    2
     4    22    23   ar
     5    18    19    1
     6    18    15    1
     7    19    21   ar
     8    26    25    1
     9    23    21   ar
    10    17    16    2
    11    16    24   am
    12    16    15    1
    13     1     2    1
    14    24    25    1
    15    15    14    1
    16    25    28    1
    17    92    91    1
    18     4     3    2
    19     2     3    1
    20     2     5    1
    21    14     9   am
    22    91    93    1
    23    91    88    1
    24    28    29    1
    25    90    89    2
    26     6     5    1
    27    10     9    2
    28     9     8    1
    29    30    29   ar
    30    30    32   ar
    31    29    31   ar
    32    89    88    1
    33    88    87    1
    34    32    34   ar
    35    87    82   am
    36    31    33   ar
    37     8     7    1
    38     8    11    1
    39   134   135   ar
    40   134   132   ar
    41    34    33   ar
    42   135   133   ar
    43   132   129   ar
    44     7    13    1
    45    84    86    1
    46    84    85    1
    47    84    81    1
    48   133   131   ar
    49   129   131   ar
    50   129   127   ar
    51    82    81    1
    52    82    83    2
    53   131   130   ar
    54   125   124    2
    55   126   127    1
    56   126   123    1
    57   127   128   ar
    58    11    12    1
    59   130   128   ar
    60    35    36    1
    61    81    80    1
    62    41    43   ar
    63    41    40   ar
    64    43    45   ar
    65    12    13    1
    66   124   123    1
    67   124   136   am
    68   123   122    1
    69    38    37    2
    70   141   140    1
    71    36    39    1
    72    36    37    1
    73    39    40    1
    74    40    42   ar
    75    53    51    1
    76    80    72   am
    77    73    72    2
    78    45    44   ar
    79   137   136    1
    80   137   140    1
    81   137   138    1
    82    72    71    1
    83   118   117    2
    84   122   117   am
    85   140   142    1
    86    52    51    1
    87    42    44   ar
    88   117   116    1
    89    51    50    1
    90   138   139    2
    91    50    47    1
    92   119   116    1
    93   119   120    1
    94    69    67    1
    95    71    74    1
    96    71    70    1
    97    47    48    1
    98    47    46    1
    99    74    75    1
   100   116   115    1
   101    48    49    2
   102   120   121    1
   103    60    59    2
   104    67    66    1
   105   115   121    1
   106    75    76   ar
   107    75    77   ar
   108    59    61   am
   109    59    58    1
   110    68    66    1
   111    66    63    1
   112    76    78   ar
   113    77    79   ar
   114    58    55    1
   115   114   112   ar
   116   114   113   ar
   117   112   110   ar
   118   100    98    1
   119    78    79   ar
   120    63    62    1
   121    63    64    1
   122    62    56   am
   123   113   111   ar
   124    56    55    1
   125    56    57    2
   126    55    54    1
   127    99    98    1
   128    98    95    1
   129   110   109   ar
   130   110   108   ar
   131    65    64    2
   132   109   107   ar
   133   111   108   ar
   134   108   106   ar
   135    95    94    1
   136    95    96    1
   137   107   106   ar
   138   106   105    1
   139    96    97    2
   140   105   102    1
   141   102   101    1
   142   102   103    1
   143   103   104    2
