@<TRIPOS>MOLECULE
tmp/3l9gA01.pdb
 75 73 0 0 0
SMALL
GASTEIGER

@<TRIPOS>ATOM
      1  N         53.0900   59.7310   22.0580 N.3     3  VAL3       -0.1231
      2  CA        51.9030   59.4090   22.8380 C.3     3  VAL3        0.1692
      3  C         50.8650   58.7270   21.9720 C.2     3  VAL3        0.2592
      4  O         50.3760   59.2740   20.9780 O.2     3  VAL3       -0.2718
      5  CB        51.3190   60.6770   23.4710 C.3     3  VAL3        0.0266
      6  CG1       50.0330   60.3310   24.2120 C.3     3  VAL3        0.0020
      7  CG2       52.3390   61.3270   24.3970 C.3     3  VAL3        0.0020
      8  N         50.5190   57.5020   22.3270 N.am    4  LYS4       -0.1966
      9  CA        49.5580   56.7190   21.5580 C.3     4  LYS4        0.1728
     10  C         48.1410   56.9300   22.0770 C.2     4  LYS4        0.2616
     11  O         47.1660   56.8850   21.3130 O.2     4  LYS4       -0.2715
     12  CB        49.9160   55.2320   21.5820 C.3     4  LYS4        0.0311
     13  CG        48.8940   54.3120   20.9400 C.3     4  LYS4        0.0038
     14  CD        49.4240   52.8840   20.8100 C.3     4  LYS4        0.0206
     15  CE        48.4390   52.0280   20.0330 C.3     4  LYS4        0.1093
     16  NZ        48.3530   50.6360   20.5540 N.3     4  LYS4       -0.1314
     17  N         48.0750   57.1450   23.3910 N.am    5  ALA5       -0.1963
     18  CA        46.8130   57.3880   24.0740 C.3     5  ALA5        0.1728
     19  C         47.0870   58.2190   25.3320 C.2     5  ALA5        0.2616
     20  O         48.1170   58.0670   25.9860 O.2     5  ALA5       -0.2715
     21  CB        46.0750   56.1200   24.4490 C.3     5  ALA5        0.0334
     22  N         46.1290   59.0910   25.6170 N.am    6  ALA6       -0.1977
     23  CA        46.2440   59.8920   26.8310 C.3     6  ALA6        0.1597
     24  C         44.8760   60.3660   27.2980 C.2     6  ALA6        0.2287
     25  O         44.0570   60.8030   26.4820 O.2     6  ALA6       -0.2864
     26  CB        47.1340   61.1090   26.6090 C.3     6  ALA6        0.0319
     27  N         40.2790   63.8670   26.9690 N.3    39  GLU39      -0.1231
     28  CA        41.2020   63.5710   25.8940 C.3    39  GLU39       0.1699
     29  C         41.2100   64.7260   24.8930 C.2    39  GLU39       0.2593
     30  O         40.2000   65.4190   24.7840 O.2    39  GLU39      -0.2718
     31  CB        40.8010   62.3420   25.1050 C.3    39  GLU39       0.0402
     32  CG        40.9770   60.9760   25.7240 C.3    39  GLU39       0.1161
     33  CD        40.6740   59.9140   24.6750 C.2    39  GLU39       0.3649
     34  OE1       41.5090   59.6790   23.7760 O.co2  39  GLU39      -0.2457
     35  OE2       39.5690   59.3540   24.7620 O.co2  39  GLU39      -0.2457
     36  N         42.2960   64.9160   24.1610 N.am   40  GLY40      -0.1942
     37  CA        42.2710   65.9390   23.1150 C.3    40  GLY40       0.2014
     38  C         43.6700   66.2490   22.6290 C.2    40  GLY40       0.2639
     39  O         44.5510   65.3840   22.6980 O.2    40  GLY40      -0.2714
     40  N         43.8730   67.4770   22.1520 N.am   41  GLU41      -0.1963
     41  CA        45.2410   67.8180   21.7210 C.3    41  GLU41       0.1733
     42  C         46.0680   68.2470   22.9200 C.2    41  GLU41       0.2616
     43  O         46.3850   69.4190   23.1390 O.2    41  GLU41      -0.2715
     44  CB        45.2100   68.8830   20.6200 C.3    41  GLU41       0.0429
     45  CG        44.1930   68.5700   19.5200 C.3    41  GLU41       0.1163
     46  CD        43.7800   69.8150   18.7500 C.2    41  GLU41       0.3649
     47  OE1       44.6530   70.6930   18.5530 O.co2  41  GLU41      -0.2457
     48  OE2       42.5980   69.9220   18.3590 O.co2  41  GLU41      -0.2457
     49  N         46.4250   67.2600   23.7350 N.am   42  ILE42      -0.1963
     50  CA        47.1100   67.4510   25.0060 C.3    42  ILE42       0.1727
     51  C         48.4530   66.7480   25.0290 C.2    42  ILE42       0.2616
     52  O         49.1280   66.7430   26.0600 O.2    42  ILE42      -0.2715
     53  CB        46.2780   66.9080   26.1960 C.3    42  ILE42       0.0290
     54  CG1       45.9530   65.4060   26.0870 C.3    42  ILE42       0.0022
     55  CG2       45.0090   67.7290   26.3920 C.3    42  ILE42       0.0023
     56  CD1       45.2620   64.7990   27.2880 C.3    42  ILE42       0.0001
     57  N         48.8560   66.1320   23.9200 N.am   43  GLU43      -0.1977
     58  CA        50.1040   65.3580   23.9890 C.3    43  GLU43       0.1602
     59  C         51.2840   66.2220   24.3690 C.2    43  GLU43       0.2287
     60  O         52.2010   65.6990   25.0000 O.2    43  GLU43      -0.2864
     61  CB        50.3810   64.6480   22.6550 C.3    43  GLU43       0.0415
     62  CG        50.4180   65.5710   21.4630 C.3    43  GLU43       0.1163
     63  CD        49.1080   65.7820   20.7390 C.2    43  GLU43       0.3649
     64  OE1       48.0180   65.7750   21.3530 O.co2  43  GLU43      -0.2457
     65  OE2       49.1420   65.9800   19.4930 O.co2  43  GLU43      -0.2457
     66  N         38.5950   66.9080   22.9160 N.3    95  HIS95      -0.1241
     67  CA        37.7480   66.2020   21.9500 C.3    95  HIS95       0.1621
     68  C         37.0240   64.9930   22.5030 C.2    95  HIS95       0.2264
     69  O         36.1840   64.3880   21.8360 O.2    95  HIS95      -0.2867
     70  CB        38.6230   65.7800   20.7640 C.3    95  HIS95       0.0745
     71  CG        39.4140   66.8830   20.1230 C.ar   95  HIS95       0.0817
     72  ND1       38.8190   68.0440   19.6820 N.ar   95  HIS95      -0.2268
     73  CD2       40.7300   67.0100   19.8270 C.ar   95  HIS95       0.1154
     74  CE1       39.7400   68.8380   19.1510 C.ar   95  HIS95       0.1986
     75  NE2       40.9190   68.2390   19.2220 N.ar   95  HIS95      -0.2212
@<TRIPOS>BOND
     1    48    46   ar
     2    47    46   ar
     3    46    45    1
     4    74    75   ar
     5    74    72   ar
     6    75    73   ar
     7    65    63   ar
     8    45    44    1
     9    72    71   ar
    10    73    71   ar
    11    15    16    1
    12    15    14    1
    13    71    70    1
    14    44    41    1
    15    63    64   ar
    16    63    62    1
    17    70    67    1
    18    14    13    1
    19    13    12    1
    20     4     3    2
    21    11    10    2
    22    62    61    1
    23     9    12    1
    24     9    10    1
    25     9     8    1
    26    41    40    1
    27    41    42    1
    28    69    68    2
    29    67    68    1
    30    67    66    1
    31     3     8   am
    32     3     2    1
    33     1     2    1
    34    10    17   am
    35    40    38   am
    36    38    39    2
    37    38    37    1
    38    61    58    1
    39     2     5    1
    40    42    43    2
    41    42    49   am
    42    37    36    1
    43    17    18    1
    44     5     6    1
    45     5     7    1
    46    49    50    1
    47    34    33   ar
    48    57    58    1
    49    57    51   am
    50    58    59    1
    51    18    21    1
    52    18    19    1
    53    36    29   am
    54    59    60    2
    55    33    35   ar
    56    33    32    1
    57    30    29    2
    58    29    28    1
    59    50    51    1
    60    50    53    1
    61    51    52    2
    62    31    32    1
    63    31    28    1
    64    19    22   am
    65    19    20    2
    66    22    23    1
    67    28    27    1
    68    54    53    1
    69    54    56    1
    70    53    55    1
    71    25    24    2
    72    26    23    1
    73    23    24    1
