@<TRIPOS>MOLECULE
tmp/3l9hB01.pdb
 164 158 0 0 0
SMALL
GASTEIGER

@<TRIPOS>ATOM
      1  N         24.1240   25.3620   29.1210 N.3   101  GLU101     -0.1231
      2  CA        24.8860   24.1260   29.0140 C.3   101  GLU101      0.1699
      3  C         26.1110   24.1860   28.1120 C.2   101  GLU101      0.2593
      4  O         27.1610   23.6540   28.4570 O.2   101  GLU101     -0.2718
      5  CB        23.9470   23.0080   28.5530 C.3   101  GLU101      0.0402
      6  CG        22.7670   22.7960   29.5160 C.3   101  GLU101      0.1161
      7  CD        21.6950   21.8630   28.9650 C.2   101  GLU101      0.3649
      8  OE1       22.0130   21.0310   28.0910 O.co2 101  GLU101     -0.2457
      9  OE2       20.5320   21.9530   29.4130 O.co2 101  GLU101     -0.2457
     10  N         25.9720   24.8310   26.9640 N.am  102  GLY102     -0.1942
     11  CA        27.0820   24.9260   26.0410 C.3   102  GLY102      0.2014
     12  C         27.1280   23.7310   25.1140 C.2   102  GLY102      0.2639
     13  O         26.2660   22.8480   25.1670 O.2   102  GLY102     -0.2714
     14  N         28.1360   23.7070   24.2500 N.am  103  GLU103     -0.1963
     15  CA        28.3040   22.6150   23.2980 C.3   103  GLU103      0.1733
     16  C         29.7730   22.2670   23.1710 C.2   103  GLU103      0.2616
     17  O         30.6100   22.7690   23.9160 O.2   103  GLU103     -0.2715
     18  CB        27.8020   23.0240   21.9220 C.3   103  GLU103      0.0429
     19  CG        26.4500   23.6550   21.9210 C.3   103  GLU103      0.1163
     20  CD        26.1040   24.2160   20.5680 C.2   103  GLU103      0.3649
     21  OE1       24.9610   24.6910   20.4020 O.co2 103  GLU103     -0.2457
     22  OE2       26.9820   24.1820   19.6760 O.co2 103  GLU103     -0.2457
     23  N         30.0790   21.4080   22.2070 N.am  104  ARG104     -0.1963
     24  CA        31.4530   21.0070   21.9510 C.3   104  ARG104      0.1729
     25  C         31.8720   21.5950   20.6120 C.2   104  ARG104      0.2617
     26  O         31.0940   21.5900   19.6550 O.2   104  ARG104     -0.2715
     27  CB        31.5710   19.4840   21.9040 C.3   104  ARG104      0.0348
     28  CG        31.2100   18.8020   23.2080 C.3   104  ARG104      0.0492
     29  CD        31.8940   19.4860   24.3740 C.3   104  ARG104      0.2205
     30  NE        33.3330   19.6250   24.1720 N.pl3 104  ARG104     -0.0865
     31  CZ        34.2020   18.6220   24.2300 C.cat 104  ARG104      0.5346
     32  NH1       33.7840   17.3920   24.4890 N.pl3 104  ARG104      0.1354
     33  NH2       35.4920   18.8520   24.0290 N.pl3 104  ARG104      0.1354
     34  N         33.0940   22.1120   20.5470 N.am  105  SER105     -0.1936
     35  CA        33.6010   22.6930   19.3090 C.3   105  SER105      0.2040
     36  C         33.4830   21.7000   18.1530 C.2   105  SER105      0.2485
     37  O         33.7500   20.5140   18.3150 O.2   105  SER105     -0.2729
     38  CB        35.0550   23.1220   19.4920 C.3   105  SER105      0.2129
     39  OG        35.1340   24.1450   20.4640 O.3   105  SER105     -0.2179
     40  N         33.0850   22.1960   16.9680 N.am  106  PRO106     -0.2726
     41  CA        32.8680   21.5190   15.6840 C.3   106  PRO106      0.1402
     42  C         33.6810   20.2660   15.3940 C.2   106  PRO106      0.2269
     43  O         33.3350   19.4980   14.4940 O.2   106  PRO106     -0.2865
     44  CB        33.1280   22.6260   14.6740 C.3   106  PRO106      0.0296
     45  CG        32.5100   23.7940   15.3520 C.3   106  PRO106      0.0237
     46  CD        32.9950   23.6570   16.7920 C.3   106  PRO106      0.0939
     47  N         36.8120   18.8570   26.9410 N.3   112  TRP112     -0.1241
     48  CA        35.6890   19.5440   27.5620 C.3   112  TRP112      0.1605
     49  C         36.0880   20.6360   28.5560 C.2   112  TRP112      0.2264
     50  O         35.4720   21.7020   28.5850 O.2   112  TRP112     -0.2867
     51  CB        34.7560   18.5430   28.2530 C.3   112  TRP112      0.0550
     52  CG        35.2650   18.0080   29.5520 C.ar  112  TRP112      0.0003
     53  CD1       36.0090   16.8800   29.7440 C.ar  112  TRP112      0.0946
     54  CD2       35.0730   18.5890   30.8460 C.ar  112  TRP112      0.0152
     55  NE1       36.2900   16.7220   31.0800 N.ar  112  TRP112     -0.2442
     56  CE2       35.7280   17.7590   31.7770 C.ar  112  TRP112      0.0810
     57  CE3       34.4120   19.7320   31.3070 C.ar  112  TRP112      0.0012
     58  CZ2       35.7400   18.0340   33.1400 C.ar  112  TRP112      0.0191
     59  CZ3       34.4250   20.0040   32.6610 C.ar  112  TRP112      0.0001
     60  CH2       35.0850   19.1580   33.5630 C.ar  112  TRP112      0.0015
     61  N         37.0970   23.6670   26.5520 N.3   115  ASP115     -0.1239
     62  CA        36.2730   23.9950   25.3980 C.3   115  ASP115      0.1674
     63  C         35.6770   25.3860   25.5800 C.2   115  ASP115      0.2266
     64  O         34.9790   25.6600   26.5560 O.2   115  ASP115     -0.2867
     65  CB        35.1730   22.9400   25.2120 C.3   115  ASP115      0.1410
     66  CG        34.5990   22.9410   23.8080 C.2   115  ASP115      0.3668
     67  OD1       34.1840   21.8590   23.3300 O.co2 115  ASP115     -0.2456
     68  OD2       34.5590   24.0240   23.1860 O.co2 115  ASP115     -0.2456
     69  N         31.9260   25.8280   26.1080 N.3   118  ALA118     -0.1245
     70  CA        31.3480   25.2970   27.3390 C.3   118  ALA118      0.1562
     71  C         30.4260   26.3390   27.9620 C.2   118  ALA118      0.2260
     72  O         30.7660   27.5230   27.9910 O.2   118  ALA118     -0.2867
     73  CB        32.4410   24.9370   28.3130 C.3   118  ALA118      0.0290
     74  N         26.6850   25.5430   33.2710 N.3   121  ILE121     -0.1231
     75  CA        26.7190   24.3680   34.1230 C.3   121  ILE121      0.1678
     76  C         28.0930   23.6980   34.2280 C.2   121  ILE121      0.2434
     77  O         28.5800   23.4600   35.3280 O.2   121  ILE121     -0.2733
     78  CB        25.6510   23.3470   33.6860 C.3   121  ILE121      0.0265
     79  CG1       24.2630   23.9210   33.9990 C.3   121  ILE121      0.0019
     80  CG2       25.8740   22.0270   34.4020 C.3   121  ILE121      0.0020
     81  CD1       23.0950   23.1210   33.4470 C.3   121  ILE121      0.0001
     82  N         28.7330   23.3830   33.0920 N.am  122  PRO122     -0.2729
     83  CA        30.0500   22.7480   33.1840 C.3   122  PRO122      0.1401
     84  C         31.1060   23.6620   33.8230 C.2   122  PRO122      0.2269
     85  O         31.9220   23.2080   34.6220 O.2   122  PRO122     -0.2865
     86  CB        30.3650   22.3920   31.7360 C.3   122  PRO122      0.0296
     87  CG        29.6470   23.4360   30.9640 C.3   122  PRO122      0.0237
     88  CD        28.3250   23.5450   31.6890 C.3   122  PRO122      0.0939
     89  N         18.8130   16.5610   37.9600 N.3   145  LEU145     -0.1245
     90  CA        18.2310   17.1730   36.7860 C.3   145  LEU145      0.1561
     91  C         16.7660   16.7820   36.6930 C.2   145  LEU145      0.2260
     92  O         16.4150   15.6510   36.3190 O.2   145  LEU145     -0.2867
     93  CB        18.9840   16.7530   35.5260 C.3   145  LEU145      0.0270
     94  CG        18.4840   17.3170   34.1920 C.3   145  LEU145      0.0019
     95  CD1       18.3470   18.8410   34.2940 C.3   145  LEU145      0.0001
     96  CD2       19.4580   16.9170   33.0520 C.3   145  LEU145      0.0001
     97  N         18.8730   12.4640   34.7780 N.3   157  LEU157     -0.1245
     98  CA        20.2500   12.1220   35.1340 C.3   157  LEU157      0.1561
     99  C         20.4100   10.6890   35.6100 C.2   157  LEU157      0.2260
    100  O         21.4220   10.0520   35.3280 O.2   157  LEU157     -0.2867
    101  CB        20.7930   13.0550   36.2170 C.3   157  LEU157      0.0270
    102  CG        21.4360   14.3550   35.7470 C.3   157  LEU157      0.0019
    103  CD1       22.1910   14.9900   36.9070 C.3   157  LEU157      0.0001
    104  CD2       22.3840   14.0730   34.5980 C.3   157  LEU157      0.0001
    105  N         32.1500   15.5790   33.4360 N.3   196  TYR196     -0.1241
    106  CA        31.7570   15.3820   32.0460 C.3   196  TYR196      0.1605
    107  C         30.8590   14.1840   31.7630 C.2   196  TYR196      0.2264
    108  O         29.8550   14.3110   31.0560 O.2   196  TYR196     -0.2867
    109  CB        32.9880   15.3030   31.1460 C.3   196  TYR196      0.0534
    110  CG        32.6490   15.4900   29.6870 C.ar  196  TYR196     -0.0201
    111  CD1       32.1830   16.7090   29.2210 C.ar  196  TYR196     -0.0009
    112  CD2       32.7520   14.4440   28.7870 C.ar  196  TYR196     -0.0009
    113  CE1       31.8290   16.8790   27.9100 C.ar  196  TYR196      0.0417
    114  CE2       32.3950   14.6050   27.4600 C.ar  196  TYR196      0.0417
    115  CZ        31.9350   15.8250   27.0300 C.ar  196  TYR196      0.1957
    116  OH        31.5750   15.9990   25.7120 O.3   196  TYR196     -0.2866
    117  N         27.2340   14.7970   32.8530 N.3   199  LEU199     -0.1231
    118  CA        26.5140   15.6860   31.9520 C.3   199  LEU199      0.1693
    119  C         26.2010   14.9510   30.6560 C.2   199  LEU199      0.2591
    120  O         25.1340   15.1230   30.0650 O.2   199  LEU199     -0.2718
    121  CB        27.3470   16.9320   31.6630 C.3   199  LEU199      0.0284
    122  CG        27.6430   17.7720   32.9100 C.3   199  LEU199      0.0019
    123  CD1       28.5180   18.9700   32.5400 C.3   199  LEU199      0.0001
    124  CD2       26.3290   18.2220   33.5450 C.3   199  LEU199      0.0001
    125  N         27.1430   14.1140   30.2370 N.am  200  GLU200     -0.1979
    126  CA        27.0070   13.3260   29.0240 C.3   200  GLU200      0.1602
    127  C         25.8000   12.3930   29.0760 C.2   200  GLU200      0.2287
    128  O         25.0300   12.3210   28.1230 O.2   200  GLU200     -0.2864
    129  CB        28.2750   12.5030   28.8020 C.3   200  GLU200      0.0415
    130  CG        28.9150   12.7060   27.4650 C.3   200  GLU200      0.1163
    131  CD        30.1480   11.8380   27.2960 C.2   200  GLU200      0.3649
    132  OE1       30.7030   11.8120   26.1820 O.co2 200  GLU200     -0.2457
    133  OE2       30.5580   11.1830   28.2780 O.co2 200  GLU200     -0.2457
    134  N         23.3010   12.7950   30.7850 N.3   202  GLY202     -0.1210
    135  CA        22.1290   13.6480   30.8110 C.3   202  GLY202      0.1956
    136  C         21.6760   13.9450   29.3970 C.2   202  GLY202      0.2611
    137  O         20.5000   13.8180   29.0830 O.2   202  GLY202     -0.2717
    138  N         22.6130   14.3380   28.5390 N.am  203  ALA203     -0.1979
    139  CA        22.2910   14.6510   27.1520 C.3   203  ALA203      0.1597
    140  C         21.7090   13.4260   26.4550 C.2   203  ALA203      0.2287
    141  O         20.7100   13.5230   25.7470 O.2   203  ALA203     -0.2864
    142  CB        23.5440   15.1310   26.4130 C.3   203  ALA203      0.0319
    143  N         18.1280   12.7960   27.2230 N.3   206  ARG206     -0.1245
    144  CA        17.2130   13.7560   26.6210 C.3   206  ARG206      0.1563
    145  C         16.8470   13.3410   25.2000 C.2   206  ARG206      0.2260
    146  O         15.7680   13.6690   24.7100 O.2   206  ARG206     -0.2867
    147  CB        17.8410   15.1400   26.6070 C.3   206  ARG206      0.0307
    148  CG        17.6540   15.8970   27.9010 C.3   206  ARG206      0.0489
    149  CD        18.5020   17.1290   27.8720 C.3   206  ARG206      0.2205
    150  NE        18.2600   18.0140   29.0000 N.pl3 206  ARG206     -0.0865
    151  CZ        19.0660   19.0210   29.3030 C.cat 206  ARG206      0.5346
    152  NH1       20.1420   19.2320   28.5560 N.pl3 206  ARG206      0.1354
    153  NH2       18.7930   19.8140   30.3310 N.pl3 206  ARG206      0.1354
    154  N         18.4270   22.1330   36.5710 N.3   224  PHE224     -0.1241
    155  CA        19.6570   21.4400   36.9210 C.3   224  PHE224      0.1605
    156  C         20.1110   21.9870   38.2660 C.2   224  PHE224      0.2264
    157  O         20.4990   23.1570   38.3720 O.2   224  PHE224     -0.2867
    158  CB        20.7450   21.6590   35.8630 C.3   224  PHE224      0.0534
    159  CG        21.9760   20.8140   36.0880 C.ar  224  PHE224     -0.0203
    160  CD1       22.8810   21.1250   37.0960 C.ar  224  PHE224     -0.0042
    161  CD2       22.2160   19.6970   35.3100 C.ar  224  PHE224     -0.0042
    162  CE1       24.0010   20.3360   37.3190 C.ar  224  PHE224     -0.0003
    163  CE2       23.3340   18.9050   35.5310 C.ar  224  PHE224     -0.0003
    164  CZ        24.2280   19.2270   36.5370 C.ar  224  PHE224     -0.0000
@<TRIPOS>BOND
     1    43    42    2
     2    44    45    1
     3    44    41    1
     4    45    46    1
     5    42    41    1
     6    41    40    1
     7    46    40    1
     8    40    36   am
     9    36    37    2
    10    36    35    1
    11    35    38    1
    12    35    34    1
    13    38    39    1
    14    26    25    2
    15    22    20   ar
    16    21    20   ar
    17    34    25   am
    18    20    19    1
    19    25    24    1
    20    27    24    1
    21    27    28    1
    22    19    18    1
    23    18    15    1
    24    24    23    1
    25    23    16   am
    26    16    15    1
    27    16    17    2
    28    68    66   ar
    29    28    29    1
    30    15    14    1
    31    67    66   ar
    32    66    65    1
    33    33    31    1
    34    30    31    2
    35    30    29    1
    36    31    32    1
    37    14    12   am
    38   146   145    2
    39    12    13    2
    40    12    11    1
    41   145   144    1
    42    65    62    1
    43    62    63    1
    44    62    61    1
    45    63    64    2
    46   116   115    1
    47   141   140    2
    48    11    10    1
    49    69    70    1
    50   132   131   ar
    51   142   139    1
    52   140   139    1
    53   147   144    1
    54   147   148    1
    55   144   143    1
    56    47    48    1
    57    10     3   am
    58   115   114   ar
    59   115   113   ar
    60   139   138    1
    61   131   130    1
    62   131   133   ar
    63    70    71    1
    64    70    73    1
    65   114   112   ar
    66   130   129    1
    67    48    51    1
    68    48    49    1
    69   149   148    1
    70   149   150    1
    71   113   111   ar
    72    71    72    2
    73     8     7   ar
    74     3     4    2
    75     3     2    1
    76   128   127    2
    77    51    52    1
    78   138   136   am
    79     5     2    1
    80     5     6    1
    81   152   151    1
    82    49    50    2
    83   112   110   ar
    84   129   126    1
    85     7     9   ar
    86     7     6    1
    87   150   151    2
    88     2     1    1
    89   126   127    1
    90   126   125    1
    91   137   136    2
    92   111   110   ar
    93   151   153    1
    94   136   135    1
    95    52    53   ar
    96    52    54   ar
    97   110   109    1
    98    53    55   ar
    99   120   119    2
   100   125   119   am
   101   119   118    1
   102   134   135    1
   103    54    57   ar
   104    54    56   ar
   105    87    88    1
   106    87    86    1
   107   108   107    2
   108    55    56   ar
   109   109   106    1
   110    57    59   ar
   111   121   118    1
   112   121   122    1
   113    88    82    1
   114    86    83    1
   115   107   106    1
   116    56    58   ar
   117   118   117    1
   118   106   105    1
   119   123   122    1
   120    59    60   ar
   121   122   124    1
   122    96    94    1
   123    82    83    1
   124    82    76   am
   125    58    60   ar
   126    83    84    1
   127    74    75    1
   128    81    79    1
   129    78    79    1
   130    78    75    1
   131    78    80    1
   132    84    85    2
   133    75    76    1
   134    94    95    1
   135    94    93    1
   136    76    77    2
   137   104   102    1
   138    97    98    1
   139    98    99    1
   140    98   101    1
   141   161   163   ar
   142   161   159   ar
   143   100    99    2
   144    93    90    1
   145   163   164   ar
   146   102   101    1
   147   102   103    1
   148   158   159    1
   149   158   155    1
   150   159   160   ar
   151    92    91    2
   152   164   162   ar
   153   154   155    1
   154    91    90    1
   155    90    89    1
   156   155   156    1
   157   160   162   ar
   158   156   157    2
