@<TRIPOS>MOLECULE
tmp/3l9lA00.pdb
 204 192 0 0 0
SMALL
GASTEIGER

@<TRIPOS>ATOM
      1  N         30.8700    5.9750   16.4500 N.3    39  LEU39      -0.1231
      2  CA        29.6270    5.3520   15.9810 C.3    39  LEU39       0.1693
      3  C         29.7990    3.9480   15.4130 C.2    39  LEU39       0.2592
      4  O         28.8540    3.2010   15.3300 O.2    39  LEU39      -0.2718
      5  CB        29.0060    6.1910   14.8810 C.3    39  LEU39       0.0284
      6  CG        28.5750    7.5910   15.2430 C.3    39  LEU39       0.0019
      7  CD1       28.2720    8.3550   13.9600 C.3    39  LEU39       0.0001
      8  CD2       27.3700    7.5260   16.1590 C.3    39  LEU39       0.0001
      9  N         31.0090    3.6270   14.9820 N.am   40  GLY40      -0.1957
     10  CA        31.2610    2.3120   14.4170 C.3    40  GLY40       0.1869
     11  C         32.7460    2.1940   14.0920 C.2    40  GLY40       0.2309
     12  O         33.3820    3.1920   13.7430 O.2    40  GLY40      -0.2863
     13  N         37.5660   -1.3210    8.4650 N.3    44  PHE44      -0.1241
     14  CA        37.3020   -0.1970    7.5640 C.3    44  PHE44       0.1605
     15  C         37.6310    1.1630    8.1140 C.2    44  PHE44       0.2264
     16  O         37.4740    2.2010    7.4450 O.2    44  PHE44      -0.2867
     17  CB        35.8290   -0.1830    7.1370 C.3    44  PHE44       0.0534
     18  CG        34.8670    0.1920    8.2190 C.ar   44  PHE44      -0.0203
     19  CD1       34.3050   -0.7970    9.0160 C.ar   44  PHE44      -0.0042
     20  CD2       34.6490    1.5250    8.5310 C.ar   44  PHE44      -0.0042
     21  CE1       33.5470   -0.4660   10.1120 C.ar   44  PHE44      -0.0003
     22  CE2       33.8780    1.8740    9.6470 C.ar   44  PHE44      -0.0003
     23  CZ        33.3440    0.8600   10.4460 C.ar   44  PHE44      -0.0000
     24  N         34.2720    5.5100   12.3490 N.3    47  VAL47      -0.1245
     25  CA        33.3380    6.6010   12.1270 C.3    47  VAL47       0.1561
     26  C         32.9400    7.1940   13.4700 C.2    47  VAL47       0.2260
     27  O         32.4230    6.4920   14.3430 O.2    47  VAL47      -0.2867
     28  CB        32.1080    6.0780   11.3720 C.3    47  VAL47       0.0252
     29  CG1       31.1510    7.1950   11.0720 C.3    47  VAL47       0.0019
     30  CG2       32.5740    5.3710   10.1070 C.3    47  VAL47       0.0019
     31  N         28.9700   12.7120   10.7470 N.3    60  ALA60      -0.1245
     32  CA        29.5520   11.3860   10.9040 C.3    60  ALA60       0.1562
     33  C         30.8790   11.4850   10.1530 C.2    60  ALA60       0.2260
     34  O         30.9030   11.5850    8.9250 O.2    60  ALA60      -0.2867
     35  CB        28.6430   10.3190   10.2770 C.3    60  ALA60       0.0290
     36  N         34.3460    9.8500    9.0260 N.3    62  LYS62      -0.1245
     37  CA        35.0650    8.5980    8.8130 C.3    62  LYS62       0.1561
     38  C         36.5490    8.9400    8.8090 C.2    62  LYS62       0.2260
     39  O         36.9880    9.8020    8.0680 O.2    62  LYS62      -0.2867
     40  CB        34.6610    7.9890    7.4730 C.3    62  LYS62       0.0271
     41  CG        35.3230    6.6610    7.1560 C.3    62  LYS62       0.0035
     42  CD        34.8390    6.1810    5.7980 C.3    62  LYS62       0.0206
     43  CE        35.0840    4.7050    5.6120 C.3    62  LYS62       0.1093
     44  NZ        34.5330    4.2190    4.3210 N.3    62  LYS62      -0.1314
     45  N         36.5630    6.1410   -3.4560 N.3    81  GLU81      -0.1245
     46  CA        35.3450    6.3800   -2.6910 C.3    81  GLU81       0.1567
     47  C         35.1130    7.8740   -2.4730 C.2    81  GLU81       0.2260
     48  O         33.9940    8.3470   -2.5530 O.2    81  GLU81      -0.2867
     49  CB        35.3870    5.6880   -1.3200 C.3    81  GLU81       0.0388
     50  CG        34.2440    6.1500   -0.4130 C.3    81  GLU81       0.1160
     51  CD        34.1080    5.3670    0.9200 C.2    81  GLU81       0.3649
     52  OE1       35.1070    4.7850    1.4090 O.co2  81  GLU81      -0.2457
     53  OE2       32.9830    5.3650    1.4620 O.co2  81  GLU81      -0.2457
     54  N         24.1490    9.1340    1.1420 N.3    94  VAL94      -0.1245
     55  CA        24.6270   10.0420    2.2030 C.3    94  VAL94       0.1561
     56  C         25.6520   11.0180    1.6130 C.2    94  VAL94       0.2260
     57  O         26.5510   10.6090    0.8960 O.2    94  VAL94      -0.2867
     58  CB        25.3350    9.2800    3.3430 C.3    94  VAL94       0.0252
     59  CG1       25.8600   10.2670    4.3800 C.3    94  VAL94       0.0019
     60  CG2       24.3770    8.3050    4.0210 C.3    94  VAL94       0.0019
     61  N         30.8200   13.1660    6.7370 N.3   110  MET110     -0.1230
     62  CA        29.5420   12.8970    6.1000 C.3   110  MET110      0.1702
     63  C         28.3540   13.3130    6.9190 C.2   110  MET110      0.2592
     64  O         28.4740   13.6540    8.0900 O.2   110  MET110     -0.2718
     65  CB        29.4550   11.4280    5.8060 C.3   110  MET110      0.0401
     66  CG        30.8180   10.8760    5.5820 C.3   110  MET110      0.0596
     67  SD        31.0960   10.8490    3.8490 S.3   110  MET110     -0.1393
     68  CE        30.5990    9.2290    3.6700 C.3   110  MET110      0.0692
     69  N         27.1950   13.2770    6.2740 N.am  111  GLU111     -0.1966
     70  CA        25.9410   13.5860    6.9150 C.3   111  GLU111      0.1733
     71  C         25.8050   12.5570    8.0360 C.2   111  GLU111      0.2616
     72  O         26.1290   11.3590    7.8750 O.2   111  GLU111     -0.2715
     73  CB        24.7510   13.3800    5.9690 C.3   111  GLU111      0.0429
     74  CG        24.4310   14.4290    4.9380 C.3   111  GLU111      0.1163
     75  CD        23.0850   14.0450    4.1740 C.2   111  GLU111      0.3649
     76  OE1       23.0920   13.0190    3.4470 O.co2 111  GLU111     -0.2457
     77  OE2       22.0530   14.7510    4.3450 O.co2 111  GLU111     -0.2457
     78  N         25.3040   13.0280    9.1630 N.am  112  TYR112     -0.1960
     79  CA        25.0830   12.1670   10.2770 C.3   112  TYR112      0.1771
     80  C         23.6070   11.7230   10.2630 C.2   112  TYR112      0.2619
     81  O         22.6890   12.5370   10.1020 O.2   112  TYR112     -0.2715
     82  CB        25.4560   12.9260   11.5430 C.3   112  TYR112      0.0574
     83  CG        25.1290   12.1900   12.8050 C.ar  112  TYR112     -0.0198
     84  CD1       25.5490   10.8800   12.9930 C.ar  112  TYR112     -0.0009
     85  CD2       24.3140   12.7730   13.7760 C.ar  112  TYR112     -0.0009
     86  CE1       25.1540   10.1440   14.1160 C.ar  112  TYR112      0.0417
     87  CE2       23.9080   12.0480   14.9010 C.ar  112  TYR112      0.0417
     88  CZ        24.3260   10.7280   15.0570 C.ar  112  TYR112      0.1957
     89  OH        23.8580    9.9680   16.1030 O.3   112  TYR112     -0.2866
     90  N         23.4080   10.4120   10.3670 N.am  113  VAL113     -0.1977
     91  CA        22.0750    9.8290   10.3800 C.3   113  VAL113      0.1596
     92  C         21.8180    9.1470   11.7090 C.2   113  VAL113      0.2287
     93  O         22.2310    7.9930   11.9280 O.2   113  VAL113     -0.2864
     94  CB        21.9050    8.8060    9.2460 C.3   113  VAL113      0.0276
     95  CG1       20.4650    8.3550    9.1570 C.3   113  VAL113      0.0022
     96  CG2       22.3570    9.4390    7.9310 C.3   113  VAL113      0.0022
     97  N         21.6500    2.0200   11.7290 N.3   117  GLU117     -0.1245
     98  CA        21.8590    1.0760   10.6450 C.3   117  GLU117      0.1567
     99  C         20.6080    0.2480   10.3920 C.2   117  GLU117      0.2260
    100  O         19.9460   -0.1880   11.3350 O.2   117  GLU117     -0.2867
    101  CB        23.0220    0.1380   11.0140 C.3   117  GLU117      0.0388
    102  CG        24.2070    0.8560   11.6650 C.3   117  GLU117      0.1160
    103  CD        25.1630   -0.1070   12.4560 C.2   117  GLU117      0.3649
    104  OE1       25.9950   -0.7990   11.8390 O.co2 117  GLU117     -0.2457
    105  OE2       25.0480   -0.1540   13.6990 O.co2 117  GLU117     -0.2457
    106  N         28.2000   -3.2990   -3.0050 N.3   156  ASP156     -0.1239
    107  CA        28.1940   -3.6860   -1.6010 C.3   156  ASP156      0.1674
    108  C         26.8760   -3.4090   -0.8940 C.2   156  ASP156      0.2266
    109  O         26.8480   -2.9630    0.2370 O.2   156  ASP156     -0.2867
    110  CB        29.3620   -3.0360   -0.8520 C.3   156  ASP156      0.1410
    111  CG        29.6320   -3.7150    0.5210 C.2   156  ASP156      0.3668
    112  OD1       29.4140   -4.9500    0.6340 O.co2 156  ASP156     -0.2456
    113  OD2       30.0660   -3.0100    1.4540 O.co2 156  ASP156     -0.2456
    114  N         23.7240   -4.1120    1.2110 N.3   158  LYS158     -0.1245
    115  CA        23.4230   -4.9780    2.3460 C.3   158  LYS158      0.1561
    116  C         22.8450   -4.0980    3.4530 C.2   158  LYS158      0.2260
    117  O         23.1320   -2.9200    3.5120 O.2   158  LYS158     -0.2867
    118  CB        24.6850   -5.7170    2.8260 C.3   158  LYS158      0.0271
    119  CG        25.8870   -4.8280    3.1780 C.3   158  LYS158      0.0035
    120  CD        27.0820   -5.6730    3.6270 C.3   158  LYS158      0.0206
    121  CE        28.2920   -4.8010    3.9540 C.3   158  LYS158      0.1093
    122  NZ        29.5190   -5.6190    4.2730 N.3   158  LYS158     -0.1314
    123  N         23.6330   -3.6570    6.3680 N.3   160  GLU160     -0.1231
    124  CA        24.7120   -3.0080    7.1010 C.3   160  GLU160      0.1699
    125  C         25.1430   -1.6650    6.4950 C.2   160  GLU160      0.2592
    126  O         25.6090   -0.7960    7.2050 O.2   160  GLU160     -0.2718
    127  CB        25.9260   -3.9440    7.2020 C.3   160  GLU160      0.0402
    128  CG        25.7250   -5.1590    8.1120 C.3   160  GLU160      0.1161
    129  CD        25.3120   -6.4630    7.3370 C.2   160  GLU160      0.3649
    130  OE1       24.4460   -6.3790    6.4350 O.co2 160  GLU160     -0.2457
    131  OE2       25.8560   -7.5500    7.6570 O.co2 160  GLU160     -0.2457
    132  N         24.9830   -1.4930    5.1840 N.am  161  ASN161     -0.1974
    133  CA        25.3850   -0.2320    4.5570 C.3   161  ASN161      0.1688
    134  C         24.2780    0.7880    4.3930 C.2   161  ASN161      0.2292
    135  O         24.4920    1.8590    3.8260 O.2   161  ASN161     -0.2864
    136  CB        26.0380   -0.4900    3.2030 C.3   161  ASN161      0.1181
    137  CG        27.3790   -1.1040    3.3420 C.2   161  ASN161      0.2629
    138  OD1       27.9300   -1.1670    4.4360 O.2   161  ASN161     -0.2716
    139  ND2       27.9370   -1.5610    2.2360 N.am  161  ASN161     -0.0877
    140  N         21.3780    3.2410    6.2270 N.3   163  LEU163     -0.1245
    141  CA        20.9730    3.9040    7.4660 C.3   163  LEU163      0.1561
    142  C         19.5480    4.4470    7.3110 C.2   163  LEU163      0.2260
    143  O         19.1030    4.7270    6.2080 O.2   163  LEU163     -0.2867
    144  CB        21.9260    5.0580    7.7800 C.3   163  LEU163      0.0270
    145  CG        23.3880    4.6170    7.9150 C.3   163  LEU163      0.0019
    146  CD1       24.2730    5.8450    8.0730 C.3   163  LEU163      0.0001
    147  CD2       23.5380    3.6660    9.1070 C.3   163  LEU163      0.0001
    148  N         25.5160    4.1940    2.3090 N.3   173  THR173     -0.1203
    149  CA        26.8550    4.5920    2.7020 C.3   173  THR173      0.1994
    150  C         27.8750    3.5930    2.1770 C.2   173  THR173      0.2617
    151  O         27.5230    2.5250    1.6920 O.2   173  THR173     -0.2717
    152  CB        27.0040    4.6240    4.2320 C.3   173  THR173      0.1784
    153  OG1       26.8810    3.2900    4.7370 O.3   173  THR173     -0.2211
    154  CG2       25.9160    5.4770    4.8570 C.3   173  THR173      0.0376
    155  N         29.1410    3.9630    2.3170 N.am  174  ASP174     -0.1973
    156  CA        30.2790    3.1500    1.9230 C.3   174  ASP174      0.1709
    157  C         30.4330    2.9250    0.4350 C.2   174  ASP174      0.2293
    158  O         29.7800    2.0780   -0.1440 O.2   174  ASP174     -0.2864
    159  CB        30.2520    1.7830    2.6220 C.3   174  ASP174      0.1436
    160  CG        31.6590    1.1150    2.6670 C.2   174  ASP174      0.3671
    161  OD1       32.4960    1.4370    1.7910 O.co2 174  ASP174     -0.2456
    162  OD2       31.9060    0.2810    3.5680 O.co2 174  ASP174     -0.2456
    163  N         33.8430    0.1500   -2.4270 N.3   177  PHE177     -0.1241
    164  CA        33.8310   -0.9700   -3.3640 C.3   177  PHE177      0.1605
    165  C         33.2430   -0.5820   -4.7080 C.2   177  PHE177      0.2264
    166  O         33.2240   -1.3850   -5.6400 O.2   177  PHE177     -0.2867
    167  CB        33.0220   -2.1140   -2.7620 C.3   177  PHE177      0.0534
    168  CG        33.4330   -2.4320   -1.3720 C.ar  177  PHE177     -0.0203
    169  CD1       34.5190   -3.2640   -1.1380 C.ar  177  PHE177     -0.0042
    170  CD2       32.8120   -1.8040   -0.2910 C.ar  177  PHE177     -0.0042
    171  CE1       35.0060   -3.4530    0.1440 C.ar  177  PHE177     -0.0003
    172  CE2       33.2930   -1.9870    1.0050 C.ar  177  PHE177     -0.0003
    173  CZ        34.3890   -2.8160    1.2240 C.ar  177  PHE177     -0.0000
    174  N         22.7640    3.5740   18.0550 N.3   316  PHE316     -0.1227
    175  CA        24.0000    2.9610   17.6240 C.3   316  PHE316      0.1736
    176  C         24.5540    2.0530   18.7290 C.2   316  PHE316      0.2595
    177  O         24.0310    1.9800   19.8310 O.2   316  PHE316     -0.2718
    178  CB        25.0420    4.0370   17.2130 C.3   316  PHE316      0.0547
    179  CG        24.7430    4.7350   15.8990 C.ar  316  PHE316     -0.0202
    180  CD1       23.9190    5.8620   15.8690 C.ar  316  PHE316     -0.0042
    181  CD2       25.2460    4.2400   14.6960 C.ar  316  PHE316     -0.0042
    182  CE1       23.6130    6.4960   14.6530 C.ar  316  PHE316     -0.0003
    183  CE2       24.9440    4.8670   13.4790 C.ar  316  PHE316     -0.0003
    184  CZ        24.1200    5.9880   13.4590 C.ar  316  PHE316     -0.0000
    185  N         25.6120    1.3380   18.3860 N.am  317  ASP317     -0.1974
    186  CA        26.2670    0.4460   19.3170 C.3   317  ASP317      0.1709
    187  C         27.3870    1.2510   19.9730 C.2   317  ASP317      0.2293
    188  O         27.7710    2.3450   19.5090 O.2   317  ASP317     -0.2864
    189  CB        26.8290   -0.7570   18.5490 C.3   317  ASP317      0.1436
    190  CG        27.2870   -1.9230   19.4620 C.2   317  ASP317      0.3671
    191  OD1       26.9750   -1.9680   20.6690 O.co2 317  ASP317     -0.2456
    192  OD2       27.9730   -2.8150   18.9200 O.co2 317  ASP317     -0.2456
    193  N         31.2790    1.5990   21.3530 N.3   319  TYR319     -0.1241
    194  CA        32.6350    1.2260   21.0050 C.3   319  TYR319      0.1605
    195  C         33.5870    1.8970   21.9650 C.2   319  TYR319      0.2264
    196  O         33.2300    2.8700   22.6290 O.2   319  TYR319     -0.2867
    197  CB        32.9650    1.6670   19.5910 C.3   319  TYR319      0.0534
    198  CG        32.0530    1.0490   18.5870 C.ar  319  TYR319     -0.0201
    199  CD1       30.8380    1.6420   18.2680 C.ar  319  TYR319     -0.0009
    200  CD2       32.3810   -0.1630   17.9890 C.ar  319  TYR319     -0.0009
    201  CE1       29.9660    1.0430   17.3760 C.ar  319  TYR319      0.0417
    202  CE2       31.5180   -0.7780   17.1000 C.ar  319  TYR319      0.0417
    203  CZ        30.3140   -0.1720   16.7950 C.ar  319  TYR319      0.1957
    204  OH        29.4470   -0.7830   15.9170 O.3   319  TYR319     -0.2866
@<TRIPOS>BOND
     1   166   165    2
     2   165   164    1
     3    45    46    1
     4   164   167    1
     5   164   163    1
     6   106   107    1
     7   167   168    1
     8    46    47    1
     9    46    49    1
    10    48    47    2
    11   107   108    1
    12   107   110    1
    13   168   169   ar
    14   168   170   ar
    15    49    50    1
    16   169   171   ar
    17   108   109    2
    18   110   111    1
    19    50    51    1
    20   170   172   ar
    21   158   157    2
    22   171   173   ar
    23   157   156    1
    24   111   112   ar
    25   111   113   ar
    26    57    56    2
    27    51    52   ar
    28    51    53   ar
    29   172   173   ar
    30    54    55    1
    31   114   115    1
    32    56    55    1
    33   151   150    2
    34   161   160   ar
    35   156   155    1
    36   156   159    1
    37   150   155   am
    38   150   149    1
    39    55    58    1
    40   139   137   am
    41   148   149    1
    42   115   118    1
    43   115   116    1
    44   159   160    1
    45   160   162   ar
    46   149   152    1
    47   118   119    1
    48   119   120    1
    49   136   137    1
    50   136   133    1
    51   137   138    2
    52    58    60    1
    53    58    59    1
    54    76    75   ar
    55   116   117    2
    56   120   121    1
    57    68    67    1
    58   135   134    2
    59    67    66    1
    60   121   122    1
    61    75    77   ar
    62    75    74    1
    63   152   153    1
    64   152   154    1
    65    44    43    1
    66   134   133    1
    67   133   132    1
    68    74    73    1
    69   132   125   am
    70    66    65    1
    71    43    42    1
    72    42    41    1
    73    65    62    1
    74    73    70    1
    75    62    61    1
    76    62    63    1
    77   143   142    2
    78   140   141    1
    79    69    70    1
    80    69    63   am
    81   123   124    1
    82   130   129   ar
    83   125   124    1
    84   125   126    2
    85    70    71    1
    86    63    64    2
    87   124   127    1
    88    17    14    1
    89    17    18    1
    90    41    40    1
    91   127   128    1
    92   142   141    1
    93   129   131   ar
    94   129   128    1
    95    16    15    2
    96   141   144    1
    97    40    37    1
    98    14    15    1
    99    14    13    1
   100   144   145    1
   101    72    71    2
   102   145   146    1
   103   145   147    1
   104    96    94    1
   105    71    78   am
   106    39    38    2
   107    18    20   ar
   108    18    19   ar
   109    20    22   ar
   110    38    37    1
   111    37    36    1
   112    34    33    2
   113    19    21   ar
   114    95    94    1
   115    78    79    1
   116    94    91    1
   117    22    23   ar
   118    81    80    2
   119    30    28    1
   120    21    23   ar
   121    33    32    1
   122    80    79    1
   123    80    90   am
   124    35    32    1
   125    79    82    1
   126    90    91    1
   127    91    92    1
   128    99    98    1
   129    99   100    2
   130    98   101    1
   131    98    97    1
   132    31    32    1
   133   101   102    1
   134    29    28    1
   135    28    25    1
   136    82    83    1
   137   102   103    1
   138    92    93    2
   139   104   103   ar
   140    25    24    1
   141    25    26    1
   142   103   105   ar
   143    83    84   ar
   144    83    85   ar
   145    84    86   ar
   146   184   183   ar
   147   184   182   ar
   148    26    27    2
   149   183   181   ar
   150    12    11    2
   151    85    87   ar
   152     7     6    1
   153    11    10    1
   154    86    88   ar
   155    10     9    1
   156   182   180   ar
   157   181   179   ar
   158     5     6    1
   159     5     2    1
   160    87    88   ar
   161     9     3   am
   162    88    89    1
   163     6     8    1
   164     4     3    2
   165     3     2    1
   166   180   179   ar
   167   179   178    1
   168   204   203    1
   169     2     1    1
   170   203   202   ar
   171   203   201   ar
   172   202   200   ar
   173   178   175    1
   174   201   199   ar
   175   175   174    1
   176   175   176    1
   177   200   198   ar
   178   199   198   ar
   179   185   176   am
   180   185   186    1
   181   189   186    1
   182   189   190    1
   183   198   197    1
   184   176   177    2
   185   192   190   ar
   186   186   187    1
   187   190   191   ar
   188   188   187    2
   189   197   194    1
   190   194   193    1
   191   194   195    1
   192   195   196    2
