@<TRIPOS>MOLECULE
tmp/3l9nA00.pdb
 192 179 0 0 0
SMALL
GASTEIGER

@<TRIPOS>ATOM
      1  N         38.8630   14.8740   63.2800 N.3    36  LEU36      -0.1231
      2  CA        39.0140   15.5260   61.9800 C.3    36  LEU36       0.1693
      3  C         38.4880   16.9510   61.9410 C.2    36  LEU36       0.2592
      4  O         38.8330   17.7340   61.0510 O.2    36  LEU36      -0.2718
      5  CB        38.2920   14.7240   60.9110 C.3    36  LEU36       0.0284
      6  CG        38.6920   13.2420   60.7430 C.3    36  LEU36       0.0019
      7  CD1       37.8280   12.6270   59.6550 C.3    36  LEU36       0.0001
      8  CD2       40.1660   13.1130   60.3860 C.3    36  LEU36       0.0001
      9  N         37.6380   17.2780   62.9000 N.am   37  GLY37      -0.1957
     10  CA        37.0710   18.6050   62.9490 C.3    37  GLY37       0.1869
     11  C         36.2570   18.7470   64.2110 C.2    37  GLY37       0.2309
     12  O         35.6950   17.7750   64.7260 O.2    37  GLY37      -0.2863
     13  N         29.3040   23.0260   65.9060 N.3    41  PHE41      -0.1241
     14  CA        28.4820   21.9740   65.3270 C.3    41  PHE41       0.1605
     15  C         28.6610   20.6540   66.0620 C.2    41  PHE41       0.2264
     16  O         27.7830   19.7900   66.0290 O.2    41  PHE41      -0.2867
     17  CB        28.8520   21.7750   63.8550 C.3    41  PHE41       0.0534
     18  CG        30.1560   21.0570   63.6480 C.ar   41  PHE41      -0.0203
     19  CD1       30.2220   19.6680   63.7390 C.ar   41  PHE41      -0.0042
     20  CD2       31.3210   21.7670   63.3680 C.ar   41  PHE41      -0.0042
     21  CE1       31.4290   19.0000   63.5680 C.ar   41  PHE41      -0.0003
     22  CE2       32.5400   21.1010   63.1940 C.ar   41  PHE41      -0.0003
     23  CZ        32.5900   19.7250   63.2890 C.ar   41  PHE41      -0.0000
     24  N         33.7430   15.6520   64.3930 N.3    44  VAL44      -0.1245
     25  CA        33.7780   14.4610   63.5530 C.3    44  VAL44       0.1561
     26  C         35.1230   13.7920   63.7700 C.2    44  VAL44       0.2260
     27  O         36.1720   14.4460   63.7300 O.2    44  VAL44      -0.2867
     28  CB        33.6420   14.8100   62.0670 C.3    44  VAL44       0.0252
     29  CG1       33.5400   13.5260   61.2390 C.3    44  VAL44       0.0019
     30  CG2       32.4290   15.7090   61.8520 C.3    44  VAL44       0.0019
     31  N         33.7170    8.1510   59.1920 N.3    57  ALA57      -0.1245
     32  CA        33.7500    9.4730   59.7890 C.3    57  ALA57       0.1562
     33  C         32.5530    9.4940   60.7190 C.2    57  ALA57       0.2260
     34  O         31.4030    9.4020   60.2800 O.2    57  ALA57      -0.2867
     35  CB        33.6110   10.5500   58.7240 C.3    57  ALA57       0.0290
     36  N         30.3260   11.4960   63.4050 N.3    59  LYS59      -0.1245
     37  CA        29.9510   12.8050   63.9020 C.3    59  LYS59       0.1561
     38  C         29.3260   12.5890   65.2770 C.2    59  LYS59       0.2260
     39  O         28.3850   11.8010   65.4250 O.2    59  LYS59      -0.2867
     40  CB        28.9690   13.4270   62.9660 C.3    59  LYS59       0.0271
     41  CG        28.5480   14.8430   63.3130 C.3    59  LYS59       0.0035
     42  CD        27.5520   15.3380   62.2570 C.3    59  LYS59       0.0206
     43  CE        27.2790   16.8180   62.3610 C.3    59  LYS59       0.1093
     44  NZ        26.3760   17.2550   61.2550 N.3    59  LYS59      -0.1314
     45  N         18.6090   16.1540   59.8350 N.3    78  GLU78      -0.1245
     46  CA        19.7710   15.7730   59.0380 C.3    78  GLU78       0.1567
     47  C         19.8730   14.2570   58.9430 C.2    78  GLU78       0.2260
     48  O         20.1480   13.7160   57.8750 O.2    78  GLU78      -0.2867
     49  CB        21.0830   16.3410   59.6150 C.3    78  GLU78       0.0388
     50  CG        22.3180   15.6300   59.0610 C.3    78  GLU78       0.1160
     51  CD        23.6190   16.2570   59.4820 C.2    78  GLU78       0.3649
     52  OE1       23.8100   16.4510   60.7060 O.co2  78  GLU78      -0.2457
     53  OE2       24.4470   16.5560   58.5880 O.co2  78  GLU78      -0.2457
     54  N         27.2240   12.4180   50.7800 N.3    91  VAL91      -0.1245
     55  CA        27.7850   11.4530   51.7120 C.3    91  VAL91       0.1561
     56  C         26.6690   10.5670   52.2570 C.2    91  VAL91       0.2260
     57  O         25.5270   10.9940   52.3530 O.2    91  VAL91      -0.2867
     58  CB        28.5070   12.1430   52.8900 C.3    91  VAL91       0.0252
     59  CG1       27.4930   12.7750   53.8400 C.3    91  VAL91       0.0019
     60  CG2       29.3630   11.1260   53.6190 C.3    91  VAL91       0.0019
     61  N         29.2930    7.9890   59.1780 N.3   107  MET107     -0.1230
     62  CA        29.1890    8.1760   57.7380 C.3   107  MET107      0.1702
     63  C         30.4460    7.7900   56.9730 C.2   107  MET107      0.2592
     64  O         31.4960    7.5390   57.5660 O.2   107  MET107     -0.2718
     65  CB        28.8720    9.6440   57.4420 C.3   107  MET107      0.0401
     66  CG        27.6710   10.1940   58.1920 C.3   107  MET107      0.0596
     67  SD        27.5460   11.9950   58.1030 S.3   107  MET107     -0.1393
     68  CE        28.3370   12.4650   59.6670 C.3   107  MET107      0.0692
     69  N         30.3210    7.7570   55.6450 N.am  108  GLU108     -0.1966
     70  CA        31.4400    7.4370   54.7640 C.3   108  GLU108      0.1733
     71  C         32.5700    8.4080   55.0590 C.2   108  GLU108      0.2616
     72  O         32.3340    9.6000   55.2740 O.2   108  GLU108     -0.2715
     73  CB        31.0800    7.6380   53.3040 C.3   108  GLU108      0.0429
     74  CG        29.9550    6.7860   52.7710 C.3   108  GLU108      0.1163
     75  CD        29.6660    7.0760   51.3070 C.2   108  GLU108      0.3649
     76  OE1       29.2530    8.2150   50.9920 O.co2 108  GLU108     -0.2457
     77  OE2       29.8690    6.1690   50.4750 O.co2 108  GLU108     -0.2457
     78  N         33.7940    7.9030   55.0350 N.am  109  TYR109     -0.1960
     79  CA        34.9580    8.7420   55.2610 C.3   109  TYR109      0.1771
     80  C         35.4730    9.2330   53.9040 C.2   109  TYR109      0.2619
     81  O         35.5030    8.4770   52.9330 O.2   109  TYR109     -0.2715
     82  CB        36.0390    7.9410   55.9980 C.3   109  TYR109      0.0574
     83  CG        37.3940    8.6200   56.1230 C.ar  109  TYR109     -0.0198
     84  CD1       37.5170    9.9100   56.6360 C.ar  109  TYR109     -0.0009
     85  CD2       38.5640    7.9290   55.7980 C.ar  109  TYR109     -0.0009
     86  CE1       38.7780   10.4940   56.8330 C.ar  109  TYR109      0.0417
     87  CE2       39.8210    8.4950   55.9890 C.ar  109  TYR109      0.0417
     88  CZ        39.9240    9.7770   56.5110 C.ar  109  TYR109      0.1957
     89  OH        41.1680   10.3100   56.7440 O.3   109  TYR109     -0.2866
     90  N         35.8570   10.5040   53.8400 N.am  110  ALA110     -0.1977
     91  CA        36.3860   11.0720   52.6040 C.3   110  ALA110      0.1597
     92  C         37.8880   11.3190   52.8100 C.2   110  ALA110      0.2287
     93  O         38.2950   12.3730   53.3040 O.2   110  ALA110     -0.2864
     94  CB        35.6700   12.3740   52.2780 C.3   110  ALA110      0.0319
     95  N         39.0380   18.1920   53.3130 N.3   114  GLU114     -0.1245
     96  CA        38.1220   19.3110   53.0870 C.3   114  GLU114      0.1567
     97  C         38.5060   20.1310   51.8550 C.2   114  GLU114      0.2260
     98  O         39.6630   20.5190   51.7160 O.2   114  GLU114     -0.2867
     99  CB        38.1590   20.2280   54.3160 C.3   114  GLU114      0.0388
    100  CG        37.6850   19.5710   55.6080 C.3   114  GLU114      0.1160
    101  CD        38.2840   20.1990   56.8600 C.2   114  GLU114      0.3649
    102  OE1       39.4820   19.9730   57.1190 O.co2 114  GLU114     -0.2457
    103  OE2       37.5640   20.9280   57.5780 O.co2 114  GLU114     -0.2457
    104  N         23.4420   25.6160   52.5340 N.3   153  ASP153     -0.1239
    105  CA        24.7200   25.8380   53.2090 C.3   153  ASP153      0.1674
    106  C         25.9330   25.4650   52.3600 C.2   153  ASP153      0.2266
    107  O         26.9170   24.9260   52.8580 O.2   153  ASP153     -0.2867
    108  CB        24.7640   25.1000   54.5660 C.3   153  ASP153      0.1410
    109  CG        25.8600   25.6330   55.4730 C.2   153  ASP153      0.3668
    110  OD1       26.1740   26.8370   55.3560 O.co2 153  ASP153     -0.2456
    111  OD2       26.3950   24.8670   56.3060 O.co2 153  ASP153     -0.2456
    112  N         29.3070   25.6640   50.5540 N.3   155  LYS155     -0.1245
    113  CA        30.5870   26.2980   50.8550 C.3   155  LYS155      0.1561
    114  C         31.6910   25.2440   50.8590 C.2   155  LYS155      0.2260
    115  O         31.4420   24.0690   51.1310 O.2   155  LYS155     -0.2867
    116  CB        30.5560   27.0490   52.2420 C.3   155  LYS155      0.0271
    117  CG        30.1660   26.1990   53.4410 C.3   155  LYS155      0.0035
    118  CD        30.1660   27.0270   54.7340 C.3   155  LYS155      0.0206
    119  CE        29.5530   26.2600   55.9050 C.3   155  LYS155      0.1093
    120  NZ        29.6010   27.0240   57.2020 N.3   155  LYS155     -0.1314
    121  N         33.8180   24.5030   52.9270 N.3   157  GLU157     -0.1231
    122  CA        33.9400   23.8240   54.2070 C.3   157  GLU157      0.1699
    123  C         33.0720   22.5720   54.3490 C.2   157  GLU157      0.2592
    124  O         33.3690   21.7090   55.1730 O.2   157  GLU157     -0.2718
    125  CB        33.6390   24.8110   55.3850 C.3   157  GLU157      0.0402
    126  CG        34.6560   25.9380   55.5190 C.3   157  GLU157      0.1161
    127  CD        34.2050   27.2290   54.8470 C.2   157  GLU157      0.3649
    128  OE1       33.7560   27.1850   53.6800 O.co2 157  GLU157     -0.2457
    129  OE2       34.3050   28.2890   55.4910 O.co2 157  GLU157     -0.2457
    130  N         32.0200   22.4600   53.5430 N.am  158  ASN158     -0.1974
    131  CA        31.1320   21.2980   53.6220 C.3   158  ASN158      0.1688
    132  C         31.3440   20.2940   52.5040 C.2   158  ASN158      0.2292
    133  O         30.6650   19.2760   52.4450 O.2   158  ASN158     -0.2864
    134  CB        29.6590   21.7360   53.6080 C.3   158  ASN158      0.1181
    135  CG        29.2600   22.4760   54.8630 C.2   158  ASN158      0.2629
    136  OD1       30.0110   22.5070   55.8410 O.2   158  ASN158     -0.2716
    137  ND2       28.0670   23.0700   54.8510 N.am  158  ASN158     -0.0877
    138  N         33.6280   17.5910   50.9730 N.3   160  MET160     -0.1245
    139  CA        34.7720   16.7000   51.1610 C.3   160  MET160      0.1570
    140  C         35.2230   16.1080   49.8220 C.2   160  MET160      0.2261
    141  O         34.4420   16.0390   48.8740 O.2   160  MET160     -0.2867
    142  CB        34.4150   15.5440   52.1180 C.3   160  MET160      0.0387
    143  CG        33.9350   15.9510   53.4990 C.3   160  MET160      0.0595
    144  SD        35.0800   17.0260   54.3730 S.3   160  MET160     -0.1393
    145  CE        34.3500   18.6950   53.8990 C.3   160  MET160      0.0692
    146  N         31.9650   14.9410   48.1070 N.3   168  LYS168     -0.1245
    147  CA        30.9740   14.3310   48.9820 C.3   168  LYS168      0.1561
    148  C         30.3910   15.5160   49.7550 C.2   168  LYS168      0.2260
    149  O         31.0950   16.1530   50.5490 O.2   168  LYS168     -0.2867
    150  CB        31.5980   13.3460   49.9680 C.3   168  LYS168      0.0271
    151  CG        32.1130   12.0380   49.3700 C.3   168  LYS168      0.0035
    152  CD        31.0190   11.2850   48.6420 C.3   168  LYS168      0.0206
    153  CE        31.4880    9.8850   48.2360 C.3   168  LYS168      0.1093
    154  NZ        30.5670    9.2950   47.2260 N.3   168  LYS168     -0.1314
    155  N         28.4720   17.3220   52.6250 N.3   170  THR170     -0.1203
    156  CA        28.1850   17.0150   54.0290 C.3   170  THR170      0.1994
    157  C         27.3670   18.1030   54.7150 C.2   170  THR170      0.2617
    158  O         27.2160   19.2020   54.1930 O.2   170  THR170     -0.2717
    159  CB        29.4800   16.8160   54.8570 C.3   170  THR170      0.1784
    160  OG1       30.1860   18.0610   54.9660 O.3   170  THR170     -0.2211
    161  CG2       30.3680   15.7760   54.2100 C.3   170  THR170      0.0376
    162  N         26.8600   17.7860   55.9020 N.am  171  ASP171     -0.1973
    163  CA        26.0670   18.7140   56.7080 C.3   171  ASP171      0.1709
    164  C         24.7250   19.0910   56.0880 C.2   171  ASP171      0.2293
    165  O         24.6510   19.9860   55.2410 O.2   171  ASP171     -0.2864
    166  CB        26.8700   20.0290   57.0000 C.3   171  ASP171      0.1436
    167  CG        26.3760   20.7360   58.2570 C.2   171  ASP171      0.3671
    168  OD1       25.1590   20.6720   58.5190 O.co2 171  ASP171     -0.2456
    169  OD2       27.1990   21.3500   58.9750 O.co2 171  ASP171     -0.2456
    170  N         43.6750   16.1130   56.6350 N.3   310  PHE310     -0.1241
    171  CA        42.8890   16.8750   57.6010 C.3   310  PHE310      0.1605
    172  C         43.8000   17.6060   58.5850 C.2   310  PHE310      0.2264
    173  O         44.9480   17.2080   58.7860 O.2   310  PHE310     -0.2867
    174  CB        41.9520   15.9410   58.3870 C.3   310  PHE310      0.0534
    175  CG        40.9140   15.2790   57.5370 C.ar  310  PHE310     -0.0203
    176  CD1       39.6600   15.8490   57.3800 C.ar  310  PHE310     -0.0042
    177  CD2       41.1940   14.0770   56.8890 C.ar  310  PHE310     -0.0042
    178  CE1       38.6980   15.2360   56.5820 C.ar  310  PHE310     -0.0003
    179  CE2       40.2390   13.4580   56.0850 C.ar  310  PHE310     -0.0003
    180  CZ        38.9880   14.0350   55.9390 C.ar  310  PHE310     -0.0000
    181  N         43.6280   18.6560   65.6960 N.3   313  TYR313     -0.1241
    182  CA        42.8240   19.2450   66.7490 C.3   313  TYR313      0.1605
    183  C         43.1670   18.4670   68.0210 C.2   313  TYR313      0.2264
    184  O         43.5030   17.2810   67.9450 O.2   313  TYR313     -0.2867
    185  CB        41.2950   19.1170   66.4140 C.3   313  TYR313      0.0534
    186  CG        40.8710   19.7610   65.1100 C.ar  313  TYR313     -0.0201
    187  CD1       40.8970   19.0490   63.9110 C.ar  313  TYR313     -0.0009
    188  CD2       40.4670   21.1000   65.0680 C.ar  313  TYR313     -0.0009
    189  CE1       40.5340   19.6540   62.7000 C.ar  313  TYR313      0.0417
    190  CE2       40.1050   21.7130   63.8640 C.ar  313  TYR313      0.0417
    191  CZ        40.1440   20.9870   62.6860 C.ar  313  TYR313      0.1957
    192  OH        39.8210   21.6000   61.4940 O.3   313  TYR313     -0.2866
@<TRIPOS>BOND
     1   154   153    1
     2   146   147    1
     3   153   152    1
     4   152   151    1
     5   141   140    2
     6   147   148    1
     7   147   150    1
     8   151   150    1
     9   148   149    2
    10   140   139    1
    11    77    75   ar
    12   112   113    1
    13    54    55    1
    14   113   114    1
    15   113   116    1
    16   114   115    2
    17   138   139    1
    18    76    75   ar
    19   139   142    1
    20    75    74    1
    21    55    56    1
    22    55    58    1
    23    98    97    2
    24    97    96    1
    25   142   143    1
    26   116   117    1
    27    56    57    2
    28    94    91    1
    29   106   107    2
    30   106   105    1
    31   133   132    2
    32   132   131    1
    33   104   105    1
    34    91    92    1
    35    91    90    1
    36   155   156    1
    37    74    73    1
    38    92    93    2
    39    58    60    1
    40    58    59    1
    41   121   122    1
    42    81    80    2
    43    96    95    1
    44    96    99    1
    45   105   108    1
    46    73    70    1
    47   117   118    1
    48   143   144    1
    49   130   131    1
    50   130   123   am
    51   134   131    1
    52   134   135    1
    53   128   127   ar
    54    90    80   am
    55   145   144    1
    56    80    79    1
    57   156   157    1
    58   156   159    1
    59   158   157    2
    60   122   123    1
    61   122   125    1
    62   161   159    1
    63    99   100    1
    64   123   124    2
    65   108   109    1
    66   157   162   am
    67   118   119    1
    68    70    71    1
    69    70    69    1
    70   127   129   ar
    71   127   126    1
    72   137   135   am
    73   159   160    1
    74   135   136    2
    75    78    71   am
    76    78    79    1
    77    71    72    2
    78   165   164    2
    79    79    82    1
    80   110   109   ar
    81   125   126    1
    82   109   111   ar
    83   100   101    1
    84    69    63   am
    85    85    87   ar
    86    85    83   ar
    87   162   163    1
    88   119   120    1
    89   180   179   ar
    90   180   178   ar
    91    87    88   ar
    92    82    83    1
    93   179   177   ar
    94   164   163    1
    95    83    84   ar
    96    88    89    1
    97    88    86   ar
    98   178   176   ar
    99   170   171    1
   100    84    86   ar
   101   163   166    1
   102   101   102   ar
   103   101   103   ar
   104   177   175   ar
   105    63    64    2
   106    63    62    1
   107   166   167    1
   108   176   175   ar
   109    65    62    1
   110    65    66    1
   111   175   174    1
   112   171   174    1
   113   171   172    1
   114    62    61    1
   115    48    47    2
   116    67    66    1
   117    67    68    1
   118   167   168   ar
   119   167   169   ar
   120   172   173    2
   121    53    51   ar
   122    35    32    1
   123    47    46    1
   124    46    49    1
   125    46    45    1
   126    50    51    1
   127    50    49    1
   128    31    32    1
   129    51    52   ar
   130     7     6    1
   131    32    33    1
   132    34    33    2
   133     8     6    1
   134     6     5    1
   135     5     2    1
   136     4     3    2
   137    29    28    1
   138    44    43    1
   139   192   191    1
   140    30    28    1
   141     3     2    1
   142     3     9   am
   143     2     1    1
   144    28    25    1
   145    42    43    1
   146    42    41    1
   147   191   189   ar
   148   191   190   ar
   149   189   187   ar
   150     9    10    1
   151    10    11    1
   152    40    41    1
   153    40    37    1
   154    22    23   ar
   155    22    20   ar
   156    23    21   ar
   157    20    18   ar
   158    36    37    1
   159    25    26    1
   160    25    24    1
   161    21    19   ar
   162    18    19   ar
   163    18    17    1
   164    27    26    2
   165    17    14    1
   166   190   188   ar
   167    37    38    1
   168   187   186   ar
   169    11    12    2
   170   188   186   ar
   171   186   185    1
   172    38    39    2
   173    14    13    1
   174    14    15    1
   175   181   182    1
   176    16    15    2
   177   185   182    1
   178   182   183    1
   179   184   183    2
