@<TRIPOS>MOLECULE
tmp/3l9rA01.pdb
 89 84 0 0 0
SMALL
GASTEIGER

@<TRIPOS>ATOM
      1  N         90.8630  -47.1770   23.6510 N.3    55  ASN55      -0.1225
      2  CA        92.0550  -47.8510   24.0980 C.3    55  ASN55       0.1785
      3  C         93.3270  -47.1400   23.6770 C.2    55  ASN55       0.2597
      4  O         94.3850  -47.7440   23.6800 O.2    55  ASN55      -0.2718
      5  CB        92.0830  -49.3120   23.6020 C.3    55  ASN55       0.1169
      6  CG        92.3270  -49.4550   22.0800 C.2    55  ASN55       0.2627
      7  OD1       92.1520  -48.5160   21.2810 O.2    55  ASN55      -0.2716
      8  ND2       92.7180  -50.6600   21.6900 N.am   55  ASN55      -0.0877
      9  N         93.2180  -45.8740   23.2890 N.am   56  PHE56      -0.1962
     10  CA        94.3970  -45.1150   22.8110 C.3    56  PHE56       0.1771
     11  C         95.1590  -44.5070   23.9850 C.2    56  PHE56       0.2620
     12  O         94.5460  -44.0470   24.9520 O.2    56  PHE56      -0.2715
     13  CB        93.9560  -43.9920   21.8460 C.3    56  PHE56       0.0574
     14  CG        93.7230  -44.4400   20.4200 C.ar   56  PHE56      -0.0200
     15  CD1       93.8310  -43.5240   19.3800 C.ar   56  PHE56      -0.0042
     16  CD2       93.4030  -45.7680   20.1150 C.ar   56  PHE56      -0.0042
     17  CE1       93.6080  -43.9200   18.0480 C.ar   56  PHE56      -0.0003
     18  CE2       93.1870  -46.1790   18.7980 C.ar   56  PHE56      -0.0003
     19  CZ        93.2960  -45.2450   17.7600 C.ar   56  PHE56      -0.0000
     20  N         96.4890  -44.4880   23.8970 N.am   57  SER57      -0.1950
     21  CA        97.3010  -43.7680   24.8810 C.3    57  SER57       0.1924
     22  C         97.0930  -42.2590   24.8020 C.2    57  SER57       0.2314
     23  O         96.7000  -41.7210   23.7650 O.2    57  SER57      -0.2863
     24  CB        98.7780  -44.1030   24.7350 C.3    57  SER57       0.2116
     25  OG        99.2860  -43.6010   23.5150 O.3    57  SER57      -0.2180
     26  N         99.0660  -40.7400   21.9850 N.3    60  GLU60      -0.1245
     27  CA        98.4420  -40.8810   20.6840 C.3    60  GLU60       0.1567
     28  C         97.2590  -39.9090   20.5130 C.2    60  GLU60       0.2260
     29  O         97.1570  -39.2280   19.4880 O.2    60  GLU60      -0.2867
     30  CB        98.0530  -42.3250   20.3760 C.3    60  GLU60       0.0388
     31  CG        97.4240  -42.4550   18.9780 C.3    60  GLU60       0.1160
     32  CD        97.4710  -43.8460   18.3820 C.2    60  GLU60       0.3649
     33  OE1       97.3640  -43.9510   17.1380 O.co2  60  GLU60      -0.2457
     34  OE2       97.6140  -44.8250   19.1490 O.co2  60  GLU60      -0.2457
     35  N         85.6740  -53.6640    8.4760 N.3   107  ILE107     -0.1245
     36  CA        85.4190  -52.2380    8.7000 C.3   107  ILE107      0.1561
     37  C         85.6110  -51.3460    7.4560 C.2   107  ILE107      0.2260
     38  O         86.6300  -51.4230    6.7700 O.2   107  ILE107     -0.2867
     39  CB        86.2470  -51.7250    9.9040 C.3   107  ILE107      0.0252
     40  CG1       85.8420  -52.5080   11.1520 C.3   107  ILE107      0.0019
     41  CG2       86.0420  -50.2260   10.1050 C.3   107  ILE107      0.0019
     42  CD1       86.6120  -52.1690   12.4070 C.3   107  ILE107      0.0001
     43  N         93.7050  -47.0240    8.9620 N.3   161  GLU161     -0.1245
     44  CA        94.5450  -47.6140    9.9900 C.3   161  GLU161      0.1567
     45  C         94.1300  -47.1910   11.3940 C.2   161  GLU161      0.2260
     46  O         93.8520  -48.0360   12.2370 O.2   161  GLU161     -0.2867
     47  CB        96.0210  -47.2840    9.7400 C.3   161  GLU161      0.0388
     48  CG        96.6530  -48.0160    8.5690 C.3   161  GLU161      0.1160
     49  CD        98.0350  -47.4600    8.2030 C.2   161  GLU161      0.3649
     50  OE1       98.6210  -46.7260    9.0450 O.co2 161  GLU161     -0.2457
     51  OE2       98.5300  -47.7550    7.0800 O.co2 161  GLU161     -0.2457
     52  N         89.8850  -47.6890   12.2760 N.3   164  PRO164     -0.2102
     53  CA        89.3430  -49.0270   12.6200 C.3   164  PRO164      0.1504
     54  C         89.7390  -49.5000   14.0340 C.2   164  PRO164      0.2575
     55  O         88.9560  -50.1570   14.7470 O.2   164  PRO164     -0.2718
     56  CB        89.9600  -49.9260   11.5580 C.3   164  PRO164      0.0282
     57  CG        90.0600  -48.9960   10.3480 C.3   164  PRO164      0.0208
     58  CD        90.5180  -47.6800   10.9480 C.3   164  PRO164      0.0893
     59  N         90.9570  -49.1370   14.3980 N.am  165  ARG165     -0.1980
     60  CA        91.5830  -49.4280   15.6600 C.3   165  ARG165      0.1597
     61  C         90.8390  -48.6450   16.7490 C.2   165  ARG165      0.2287
     62  O         90.4840  -49.1900   17.7870 O.2   165  ARG165     -0.2864
     63  CB        93.0200  -48.9280   15.5070 C.3   165  ARG165      0.0334
     64  CG        94.0510  -49.5570   16.3410 C.3   165  ARG165      0.0492
     65  CD        95.3840  -49.5540   15.6240 C.3   165  ARG165      0.2205
     66  NE        95.9410  -48.2600   15.1860 N.pl3 165  ARG165     -0.0865
     67  CZ        96.3190  -47.2270   15.9530 C.cat 165  ARG165      0.5346
     68  NH1       96.1190  -47.2060   17.2710 N.pl3 165  ARG165      0.1354
     69  NH2       96.8670  -46.1630   15.3640 N.pl3 165  ARG165      0.1354
     70  N         87.0710  -49.9690   17.3640 N.3   168  LEU168     -0.1231
     71  CA        87.0070  -51.2290   18.0900 C.3   168  LEU168      0.1693
     72  C         87.3900  -51.0320   19.5690 C.2   168  LEU168      0.2592
     73  O         86.7240  -51.5670   20.4610 O.2   168  LEU168     -0.2718
     74  CB        87.8630  -52.3020   17.4080 C.3   168  LEU168      0.0284
     75  CG        87.3330  -52.9400   16.1080 C.3   168  LEU168      0.0019
     76  CD1       88.2210  -54.1160   15.6810 C.3   168  LEU168      0.0001
     77  CD2       85.9050  -53.4310   16.2300 C.3   168  LEU168      0.0001
     78  N         88.4210  -50.2260   19.8100 N.am  169  GLY169     -0.1957
     79  CA        88.8460  -49.8700   21.1480 C.3   169  GLY169      0.1869
     80  C         87.7830  -49.1330   21.9410 C.2   169  GLY169      0.2309
     81  O         87.5940  -49.4160   23.1260 O.2   169  GLY169     -0.2863
     82  N         84.6310  -51.1870   22.9350 N.3   172  ASP172     -0.1239
     83  CA        84.9770  -52.0340   24.0740 C.3   172  ASP172      0.1674
     84  C         85.0550  -51.1960   25.3610 C.2   172  ASP172      0.2266
     85  O         84.5280  -51.5960   26.3960 O.2   172  ASP172     -0.2867
     86  CB        86.2910  -52.7620   23.8300 C.3   172  ASP172      0.1410
     87  CG        86.5800  -53.8420   24.8910 C.2   172  ASP172      0.3668
     88  OD1       86.0380  -54.9640   24.7970 O.co2 172  ASP172     -0.2456
     89  OD2       87.3610  -53.5720   25.8220 O.co2 172  ASP172     -0.2456
@<TRIPOS>BOND
     1    38    37    2
     2    51    49   ar
     3    37    36    1
     4    49    48    1
     5    49    50   ar
     6    35    36    1
     7    48    47    1
     8    36    39    1
     9    43    44    1
    10    47    44    1
    11    39    41    1
    12    39    40    1
    13    44    45    1
    14    57    58    1
    15    57    56    1
    16    58    52    1
    17    40    42    1
    18    45    46    2
    19    56    53    1
    20    52    53    1
    21    53    54    1
    22    54    59   am
    23    54    55    2
    24    59    60    1
    25    66    65    1
    26    66    67    2
    27    69    67    1
    28    63    60    1
    29    63    64    1
    30    65    64    1
    31    60    61    1
    32    76    75    1
    33    67    68    1
    34    75    77    1
    35    75    74    1
    36    61    62    2
    37    33    32   ar
    38    70    71    1
    39    74    71    1
    40    19    17   ar
    41    19    18   ar
    42    17    15   ar
    43    71    72    1
    44    32    31    1
    45    32    34   ar
    46    18    16   ar
    47    31    30    1
    48    15    14   ar
    49    29    28    2
    50    72    78   am
    51    72    73    2
    52    78    79    1
    53    16    14   ar
    54    30    27    1
    55    14    13    1
    56    28    27    1
    57    27    26    1
    58    79    80    1
    59     7     6    2
    60     8     6   am
    61    13    10    1
    62    80    81    2
    63     6     5    1
    64    10     9    1
    65    10    11    1
    66    82    83    1
    67     9     3   am
    68    25    24    1
    69     5     2    1
    70     1     2    1
    71     3     4    2
    72     3     2    1
    73    23    22    2
    74    86    83    1
    75    86    87    1
    76    20    11   am
    77    20    21    1
    78    11    12    2
    79    83    84    1
    80    24    21    1
    81    88    87   ar
    82    22    21    1
    83    87    89   ar
    84    84    85    2
