@<TRIPOS>MOLECULE
tmp/3l9rE00.pdb
 89 84 0 0 0
SMALL
GASTEIGER

@<TRIPOS>ATOM
      1  N         22.0370   22.1290  -79.1720 N.3    55  ASN55      -0.1225
      2  CA        21.3360   23.3200  -79.6510 C.3    55  ASN55       0.1785
      3  C         22.0490   24.6020  -79.2310 C.2    55  ASN55       0.2597
      4  O         21.4400   25.6660  -79.1790 O.2    55  ASN55      -0.2718
      5  CB        19.8680   23.3070  -79.1730 C.3    55  ASN55       0.1169
      6  CG        19.7310   23.5090  -77.6650 C.2    55  ASN55       0.2627
      7  OD1       20.7010   23.3950  -76.8960 O.2    55  ASN55      -0.2716
      8  ND2       18.5180   23.8030  -77.2410 N.am   55  ASN55      -0.0877
      9  N         23.3420   24.5280  -78.9160 N.am   56  PHE56      -0.1962
     10  CA        24.0110   25.7570  -78.4210 C.3    56  PHE56       0.1771
     11  C         24.5060   26.5960  -79.6170 C.2    56  PHE56       0.2620
     12  O         24.9790   26.0420  -80.6040 O.2    56  PHE56      -0.2715
     13  CB        25.1710   25.3870  -77.4860 C.3    56  PHE56       0.0574
     14  CG        24.7640   25.1230  -76.0520 C.ar   56  PHE56      -0.0200
     15  CD1       25.6840   25.3180  -75.0150 C.ar   56  PHE56      -0.0042
     16  CD2       23.4770   24.7040  -75.7230 C.ar   56  PHE56      -0.0042
     17  CE1       25.3330   25.0810  -73.6780 C.ar   56  PHE56      -0.0003
     18  CE2       23.0980   24.4910  -74.3840 C.ar   56  PHE56      -0.0003
     19  CZ        24.0310   24.6680  -73.3590 C.ar   56  PHE56      -0.0000
     20  N         24.4150   27.9180  -79.5500 N.am   57  SER57      -0.1950
     21  CA        25.1180   28.7400  -80.5620 C.3    57  SER57       0.1924
     22  C         26.6550   28.5810  -80.4850 C.2    57  SER57       0.2314
     23  O         27.1870   28.2230  -79.4520 O.2    57  SER57      -0.2863
     24  CB        24.7610   30.2100  -80.4350 C.3    57  SER57       0.2116
     25  OG        25.3230   30.7210  -79.2390 O.3    57  SER57      -0.2180
     26  N         28.1530   30.5860  -77.6250 N.3    60  GLU60      -0.1245
     27  CA        28.0210   30.0510  -76.2760 C.3    60  GLU60       0.1567
     28  C         28.9920   28.8910  -76.0940 C.2    60  GLU60       0.2260
     29  O         29.6080   28.7380  -75.0390 O.2    60  GLU60      -0.2867
     30  CB        26.5790   29.6590  -75.9310 C.3    60  GLU60       0.0388
     31  CG        26.4610   28.8470  -74.6160 C.3    60  GLU60       0.1160
     32  CD        25.0710   28.8650  -73.9750 C.2    60  GLU60       0.3649
     33  OE1       24.9970   28.7260  -72.7330 O.co2  60  GLU60      -0.2457
     34  OE2       24.0570   29.0270  -74.7000 O.co2  60  GLU60      -0.2457
     35  N         15.8560   16.4410  -64.0560 N.3   107  ILE107     -0.1245
     36  CA        17.3170   16.3880  -64.2950 C.3   107  ILE107      0.1561
     37  C         18.1650   16.6490  -63.0500 C.2   107  ILE107      0.2260
     38  O         18.0110   17.6670  -62.3810 O.2   107  ILE107     -0.2867
     39  CB        17.7470   17.3410  -65.4400 C.3   107  ILE107      0.0252
     40  CG1       17.1450   16.8630  -66.7740 C.3   107  ILE107      0.0019
     41  CG2       19.2940   17.4690  -65.5310 C.3   107  ILE107      0.0019
     42  CD1       17.1210   17.9320  -67.8700 C.3   107  ILE107      0.0001
     43  N         22.2870   24.8690  -64.4190 N.3   161  GLU161     -0.1245
     44  CA        21.6260   25.7550  -65.4060 C.3   161  GLU161      0.1567
     45  C         22.0180   25.3860  -66.8310 C.2   161  GLU161      0.2260
     46  O         21.1450   25.1770  -67.6670 O.2   161  GLU161     -0.2867
     47  CB        21.8800   27.2620  -65.1330 C.3   161  GLU161      0.0388
     48  CG        21.1470   27.8320  -63.9000 C.3   161  GLU161      0.1160
     49  CD        21.5870   29.2780  -63.4970 C.2   161  GLU161      0.3649
     50  OE1       22.3970   29.9110  -64.2390 O.co2 161  GLU161     -0.2457
     51  OE2       21.1100   29.7810  -62.4400 O.co2 161  GLU161     -0.2457
     52  N         21.7160   20.9180  -67.9250 N.3   164  PRO164     -0.2102
     53  CA        20.3940   20.3550  -68.2720 C.3   164  PRO164      0.1504
     54  C         19.8950   20.8260  -69.6550 C.2   164  PRO164      0.2575
     55  O         19.2740   20.0730  -70.4190 O.2   164  PRO164     -0.2718
     56  CB        19.4810   20.9010  -67.1570 C.3   164  PRO164      0.0282
     57  CG        20.4220   21.1690  -65.9910 C.3   164  PRO164      0.0208
     58  CD        21.6730   21.6830  -66.6590 C.3   164  PRO164      0.0893
     59  N         20.2020   22.0750  -69.9510 N.am  165  ARG165     -0.1980
     60  CA        19.8590   22.7400  -71.1920 C.3   165  ARG165      0.1597
     61  C         20.6310   22.0620  -72.3410 C.2   165  ARG165      0.2287
     62  O         20.0450   21.6130  -73.3490 O.2   165  ARG165     -0.2864
     63  CB        20.2760   24.1950  -71.0090 C.3   165  ARG165      0.0334
     64  CG        19.6370   25.1640  -71.8480 C.3   165  ARG165      0.0492
     65  CD        19.5940   26.5400  -71.2000 C.3   165  ARG165      0.2205
     66  NE        20.8730   27.1090  -70.7360 N.pl3 165  ARG165     -0.0865
     67  CZ        21.9120   27.4870  -71.4910 C.cat 165  ARG165      0.5346
     68  NH1       21.9250   27.3040  -72.8050 N.pl3 165  ARG165      0.1354
     69  NH2       22.9700   28.0490  -70.9050 N.pl3 165  ARG165      0.1354
     70  N         19.4540   18.2320  -72.9720 N.3   168  LEU168     -0.1231
     71  CA        18.2010   18.0840  -73.6960 C.3   168  LEU168      0.1693
     72  C         18.4020   18.4480  -75.1550 C.2   168  LEU168      0.2592
     73  O         17.8700   17.7760  -76.0490 O.2   168  LEU168     -0.2718
     74  CB        17.0610   18.8810  -73.0610 C.3   168  LEU168      0.0284
     75  CG        16.5590   18.2670  -71.7540 C.3   168  LEU168      0.0019
     76  CD1       15.6840   19.2700  -71.0030 C.3   168  LEU168      0.0001
     77  CD2       15.7710   16.9830  -71.9590 C.3   168  LEU168      0.0001
     78  N         19.1800   19.5030  -75.3850 N.am  169  GLY169     -0.1957
     79  CA        19.4680   19.9510  -76.7330 C.3   169  GLY169      0.1869
     80  C         20.2770   18.9410  -77.5260 C.2   169  GLY169      0.2309
     81  O         20.0140   18.7540  -78.7240 O.2   169  GLY169     -0.2863
     82  N         18.3200   15.8340  -78.5960 N.3   172  ASP172     -0.1239
     83  CA        17.4590   16.1360  -79.7320 C.3   172  ASP172      0.1674
     84  C         18.3010   16.2390  -81.0210 C.2   172  ASP172      0.2266
     85  O         17.9770   15.6100  -82.0430 O.2   172  ASP172     -0.2867
     86  CB        16.7570   17.4650  -79.4910 C.3   172  ASP172      0.1410
     87  CG        15.5740   17.6720  -80.4180 C.2   172  ASP172      0.3668
     88  OD1       14.5440   16.9500  -80.2880 O.co2 172  ASP172     -0.2456
     89  OD2       15.6650   18.5790  -81.2680 O.co2 172  ASP172     -0.2456
@<TRIPOS>BOND
     1    85    84    2
     2    89    87   ar
     3    84    83    1
     4    12    11    2
     5    21    22    1
     6    21    24    1
     7    21    20    1
     8    22    23    2
     9    24    25    1
    10    87    88   ar
    11    87    86    1
    12    83    86    1
    13    83    82    1
    14     2     3    1
    15     2     5    1
    16     2     1    1
    17    11    20   am
    18    11    10    1
    19     3     4    2
    20     3     9   am
    21     5     6    1
    22     9    10    1
    23    81    80    2
    24    10    13    1
    25     6     8   am
    26     6     7    2
    27    26    27    1
    28    80    79    1
    29    13    14    1
    30    79    78    1
    31    27    28    1
    32    27    30    1
    33    28    29    2
    34    14    16   ar
    35    14    15   ar
    36    73    72    2
    37    30    31    1
    38    16    18   ar
    39    78    72   am
    40    72    71    1
    41    15    17   ar
    42    34    32   ar
    43    31    32    1
    44    18    19   ar
    45    32    33   ar
    46    71    74    1
    47    71    70    1
    48    17    19   ar
    49    62    61    2
    50    74    75    1
    51    68    67    1
    52    61    60    1
    53    77    75    1
    54    64    65    1
    55    64    63    1
    56    75    76    1
    57    67    69    1
    58    67    66    2
    59    65    66    1
    60    60    63    1
    61    60    59    1
    62    55    54    2
    63    59    54   am
    64    54    53    1
    65    53    52    1
    66    53    56    1
    67    52    58    1
    68    42    40    1
    69    46    45    2
    70    56    57    1
    71    45    44    1
    72    40    39    1
    73    58    57    1
    74    41    39    1
    75    39    36    1
    76    44    47    1
    77    44    43    1
    78    47    48    1
    79    36    35    1
    80    36    37    1
    81    50    49   ar
    82    48    49    1
    83    49    51   ar
    84    37    38    2
