@<TRIPOS>MOLECULE
tmp/3l9tA00.pdb
 92 92 0 0 0
SMALL
GASTEIGER

@<TRIPOS>ATOM
      1  N          6.6240   25.0050   30.7610 N.3    74  ASP74      -0.1225
      2  CA         5.9590   23.9100   31.4650 C.3    74  ASP74       0.1805
      3  C          4.6170   24.3200   32.0690 C.2    74  ASP74       0.2598
      4  O          4.5120   25.3530   32.7300 O.2    74  ASP74      -0.2718
      5  CB         6.8590   23.2930   32.5400 C.3    74  ASP74       0.1424
      6  CG         6.4780   21.8630   32.8490 C.2    74  ASP74       0.3668
      7  OD1        5.3870   21.6470   33.4220 O.co2  74  ASP74      -0.2456
      8  OD2        7.2680   20.9520   32.5060 O.co2  74  ASP74      -0.2456
      9  N          3.6070   23.4850   31.8370 N.am   75  ASN75      -0.1960
     10  CA         2.2360   23.7560   32.2450 C.3    75  ASN75       0.1819
     11  C          2.0120   23.5480   33.7240 C.2    75  ASN75       0.2621
     12  O          0.9920   23.9600   34.2660 O.2    75  ASN75      -0.2715
     13  CB         1.2700   22.8370   31.4910 C.3    75  ASN75       0.1195
     14  CG         0.9040   23.3710   30.1270 C.2    75  ASN75       0.2630
     15  OD1        1.0240   24.5700   29.8680 O.2    75  ASN75      -0.2716
     16  ND2        0.4550   22.4800   29.2420 N.am   75  ASN75      -0.0877
     17  N          2.9510   22.8730   34.3680 N.am   76  ASN76      -0.1958
     18  CA         2.7770   22.5380   35.7650 C.3    76  ASN76       0.1819
     19  C          3.5250   23.4870   36.7010 C.2    76  ASN76       0.2621
     20  O          4.7340   23.6710   36.5780 O.2    76  ASN76      -0.2715
     21  CB         3.1790   21.0890   36.0170 C.3    76  ASN76       0.1195
     22  CG         2.8330   20.6400   37.4070 C.2    76  ASN76       0.2630
     23  OD1        3.5690   20.9180   38.3530 O.2    76  ASN76      -0.2716
     24  ND2        1.7040   19.9520   37.5480 N.am   76  ASN76      -0.0877
     25  N          2.7880   24.0800   37.6350 N.am   77  TRP77      -0.1974
     26  CA         3.3310   25.0960   38.5260 C.3    77  TRP77       0.1640
     27  C          4.4750   24.5930   39.4060 C.2    77  TRP77       0.2290
     28  O          5.3870   25.3480   39.7400 O.2    77  TRP77      -0.2864
     29  CB         2.2150   25.7030   39.3890 C.3    77  TRP77       0.0576
     30  CG         1.7250   24.8160   40.5030 C.ar   77  TRP77       0.0006
     31  CD1        0.7560   23.8510   40.4250 C.ar   77  TRP77       0.0946
     32  CD2        2.1680   24.8270   41.8690 C.ar   77  TRP77       0.0152
     33  NE1        0.5780   23.2570   41.6540 N.ar   77  TRP77      -0.2442
     34  CE2        1.4300   23.8400   42.5570 C.ar   77  TRP77       0.0810
     35  CE3        3.1210   25.5760   42.5750 C.ar   77  TRP77       0.0012
     36  CZ2        1.6150   23.5810   43.9160 C.ar   77  TRP77       0.0191
     37  CZ3        3.3040   25.3170   43.9210 C.ar   77  TRP77       0.0001
     38  CH2        2.5540   24.3280   44.5790 C.ar   77  TRP77       0.0015
     39  N          7.5900   24.6100   37.5310 N.3    80  GLN80      -0.1245
     40  CA         8.0810   25.9820   37.4510 C.3    80  GLN80       0.1566
     41  C          8.8980   26.3570   38.6940 C.2    80  GLN80       0.2260
     42  O          9.8880   27.0800   38.5960 O.2    80  GLN80      -0.2867
     43  CB         6.9330   26.9870   37.2260 C.3    80  GLN80       0.0367
     44  CG         6.2640   26.9200   35.8390 C.3    80  GLN80       0.0905
     45  CD         7.1510   27.4500   34.7100 C.2    80  GLN80       0.2608
     46  OE1        8.1070   28.1910   34.9520 O.2    80  GLN80      -0.2717
     47  NE2        6.8320   27.0680   33.4710 N.am   80  GLN80      -0.0878
     48  N          7.3500   35.1390   30.3650 N.3   112  LEU112     -0.1231
     49  CA         7.1010   35.5690   31.7330 C.3   112  LEU112      0.1693
     50  C          7.6090   34.5390   32.7530 C.2   112  LEU112      0.2592
     51  O          7.9870   34.8990   33.8510 O.2   112  LEU112     -0.2718
     52  CB         5.6160   35.8820   31.9470 C.3   112  LEU112      0.0284
     53  CG         4.6080   34.7240   31.9970 C.3   112  LEU112      0.0019
     54  CD1        4.5200   34.1250   33.3990 C.3   112  LEU112      0.0001
     55  CD2        3.2270   35.1880   31.5250 C.3   112  LEU112      0.0001
     56  N          7.6200   33.2620   32.3830 N.am  113  HIS113     -0.1976
     57  CA         8.0900   32.2200   33.2990 C.3   113  HIS113      0.1656
     58  C          9.6060   32.2560   33.4550 C.2   113  HIS113      0.2291
     59  O         10.1450   31.9190   34.5140 O.2   113  HIS113     -0.2864
     60  CB         7.6230   30.8360   32.8560 C.3   113  HIS113      0.0771
     61  CG         6.1350   30.7000   32.7890 C.ar  113  HIS113      0.0820
     62  ND1        5.3810   30.2160   33.8400 N.ar  113  HIS113     -0.2267
     63  CD2        5.2550   30.9900   31.7980 C.ar  113  HIS113      0.1154
     64  CE1        4.1040   30.2150   33.4990 C.ar  113  HIS113      0.1986
     65  NE2        4.0000   30.6810   32.2660 N.ar  113  HIS113     -0.2212
     66  N          2.9770   40.4950   33.8130 N.3   150  SER150     -0.1202
     67  CA         2.5650   39.2640   34.4830 C.3   150  SER150      0.2020
     68  C          2.4420   39.4610   35.9970 C.2   150  SER150      0.2619
     69  O          3.3970   39.8820   36.6520 O.2   150  SER150     -0.2717
     70  CB         3.5690   38.1450   34.1810 C.3   150  SER150      0.2103
     71  OG         3.1990   36.9350   34.8210 O.3   150  SER150     -0.2182
     72  N          1.2660   39.1580   36.5470 N.am  151  GLU151     -0.1965
     73  CA         1.0700   39.2160   37.9920 C.3   151  GLU151      0.1733
     74  C          1.9700   38.1830   38.6670 C.2   151  GLU151      0.2616
     75  O          2.6110   38.4620   39.6780 O.2   151  GLU151     -0.2715
     76  CB        -0.3930   38.9760   38.3740 C.3   151  GLU151      0.0429
     77  CG        -0.6170   39.0220   39.8790 C.3   151  GLU151      0.1163
     78  CD        -2.0750   38.8950   40.2770 C.2   151  GLU151      0.3649
     79  OE1       -2.8220   38.1550   39.6030 O.co2 151  GLU151     -0.2457
     80  OE2       -2.4740   39.5310   41.2770 O.co2 151  GLU151     -0.2457
     81  N          2.0040   36.9890   38.0870 N.am  152  TYR152     -0.1974
     82  CA         2.9190   35.9320   38.5040 C.3   152  TYR152      0.1639
     83  C          4.3290   36.4870   38.7220 C.2   152  TYR152      0.2290
     84  O          4.9480   36.2410   39.7470 O.2   152  TYR152     -0.2864
     85  CB         2.9260   34.8460   37.4320 C.3   152  TYR152      0.0560
     86  CG         3.6980   33.5870   37.7450 C.ar  152  TYR152     -0.0198
     87  CD1        3.3640   32.7860   38.8300 C.ar  152  TYR152     -0.0009
     88  CD2        4.7290   33.1680   36.9130 C.ar  152  TYR152     -0.0009
     89  CE1        4.0600   31.6220   39.0940 C.ar  152  TYR152      0.0417
     90  CE2        5.4190   32.0100   37.1620 C.ar  152  TYR152      0.0417
     91  CZ         5.0810   31.2390   38.2500 C.ar  152  TYR152      0.1957
     92  OH         5.7740   30.0880   38.4900 O.3   152  TYR152     -0.2866
@<TRIPOS>BOND
     1    16    14   am
     2    15    14    2
     3    14    13    1
     4    48    49    1
     5     1     2    1
     6     2     3    1
     7     2     5    1
     8    13    10    1
     9    55    53    1
    10    49    52    1
    11    49    50    1
    12    63    65   ar
    13    63    61   ar
    14     9     3   am
    15     9    10    1
    16    52    53    1
    17    53    54    1
    18     3     4    2
    19    10    11    1
    20    65    64   ar
    21    56    50   am
    22    56    57    1
    23     8     6   ar
    24     5     6    1
    25    50    51    2
    26    61    60    1
    27    61    62   ar
    28     6     7   ar
    29    60    57    1
    30    57    58    1
    31    58    59    2
    32    47    45   am
    33    64    62   ar
    34    11    12    2
    35    11    17   am
    36    66    67    1
    37    70    67    1
    38    70    71    1
    39    17    18    1
    40    67    68    1
    41    45    46    2
    42    45    44    1
    43    18    21    1
    44    18    19    1
    45    44    43    1
    46    68    72   am
    47    68    69    2
    48    21    22    1
    49    72    73    1
    50    20    19    2
    51    19    25   am
    52    88    90   ar
    53    88    86   ar
    54    90    91   ar
    55    43    40    1
    56    22    24   am
    57    22    23    2
    58    85    86    1
    59    85    82    1
    60    40    39    1
    61    40    41    1
    62    25    26    1
    63    86    87   ar
    64    73    76    1
    65    73    74    1
    66    81    82    1
    67    81    74   am
    68    91    92    1
    69    91    89   ar
    70    76    77    1
    71    82    83    1
    72    26    29    1
    73    26    27    1
    74    42    41    2
    75    74    75    2
    76    83    84    2
    77    87    89   ar
    78    29    30    1
    79    27    28    2
    80    79    78   ar
    81    77    78    1
    82    78    80   ar
    83    31    30   ar
    84    31    33   ar
    85    30    32   ar
    86    33    34   ar
    87    32    34   ar
    88    32    35   ar
    89    34    36   ar
    90    35    37   ar
    91    36    38   ar
    92    37    38   ar
