@<TRIPOS>MOLECULE
tmp/3l9vA00.pdb
 118 118 0 0 0
SMALL
GASTEIGER

@<TRIPOS>ATOM
      1  N         34.5720  110.2500   19.4630 N.3    25  PRO25      -0.2103
      2  CA        35.1410  110.8600   20.6750 C.3    25  PRO25       0.1489
      3  C         34.1050  111.1960   21.7730 C.2    25  PRO25       0.2417
      4  O         34.3010  110.8620   22.9410 O.2    25  PRO25      -0.2734
      5  CB        35.8060  112.1480   20.1420 C.3    25  PRO25       0.0282
      6  CG        36.1830  111.8090   18.7230 C.3    25  PRO25       0.0208
      7  CD        35.0290  110.9260   18.2290 C.3    25  PRO25       0.0893
      8  N         32.9850  111.8410   21.4000 N.am   26  PRO26      -0.2729
      9  CA        31.9930  112.1300   22.4360 C.3    26  PRO26       0.1401
     10  C         31.4170  110.8440   23.0590 C.2    26  PRO26       0.2269
     11  O         31.0590  110.8710   24.2260 O.2    26  PRO26      -0.2865
     12  CB        30.9040  112.9030   21.6820 C.3    26  PRO26       0.0296
     13  CG        31.5530  113.4060   20.4670 C.3    26  PRO26       0.0237
     14  CD        32.6180  112.4160   20.0990 C.3    26  PRO26       0.0939
     15  N         33.1910  108.0670   23.5220 N.3    28  TYR28      -0.1227
     16  CA        34.2460  107.7390   24.4740 C.3    28  TYR28       0.1736
     17  C         34.0370  108.5340   25.7410 C.2    28  TYR28       0.2595
     18  O         34.0690  108.0020   26.8500 O.2    28  TYR28      -0.2718
     19  CB        35.6200  108.1060   23.8830 C.3    28  TYR28       0.0548
     20  CG        36.7660  107.9700   24.8730 C.ar   28  TYR28      -0.0200
     21  CD1       37.0290  106.7520   25.4970 C.ar   28  TYR28      -0.0009
     22  CD2       37.5920  109.0540   25.1680 C.ar   28  TYR28      -0.0009
     23  CE1       38.0860  106.6110   26.3800 C.ar   28  TYR28       0.0417
     24  CE2       38.6580  108.9210   26.0580 C.ar   28  TYR28       0.0417
     25  CZ        38.8950  107.7000   26.6550 C.ar   28  TYR28       0.1957
     26  OH        39.9260  107.5610   27.5380 O.3    28  TYR28      -0.2866
     27  N         33.8360  109.8440   25.5850 N.am   29  ALA29      -0.1966
     28  CA        33.6170  110.6990   26.7480 C.3    29  ALA29       0.1728
     29  C         32.3830  110.2720   27.5630 C.2    29  ALA29       0.2616
     30  O         32.4480  110.1760   28.7990 O.2    29  ALA29      -0.2715
     31  CB        33.5320  112.1940   26.3340 C.3    29  ALA29       0.0334
     32  N         31.2540  110.0150   26.8950 N.am   30  PHE30      -0.1974
     33  CA        30.0440  109.6450   27.6540 C.3    30  PHE30       0.1639
     34  C         30.2690  108.3590   28.4730 C.2    30  PHE30       0.2290
     35  O         29.8230  108.2380   29.6200 O.2    30  PHE30      -0.2864
     36  CB        28.8350  109.4210   26.7330 C.3    30  PHE30       0.0560
     37  CG        28.1410  110.6790   26.3110 C.ar   30  PHE30      -0.0200
     38  CD1       28.7660  111.9170   26.4290 C.ar   30  PHE30      -0.0042
     39  CD2       26.8630  110.6270   25.7830 C.ar   30  PHE30      -0.0042
     40  CE1       28.1200  113.0740   26.0320 C.ar   30  PHE30      -0.0003
     41  CE2       26.2100  111.7890   25.3890 C.ar   30  PHE30      -0.0003
     42  CZ        26.8410  113.0070   25.5080 C.ar   30  PHE30      -0.0000
     43  N         45.5060  103.5480   20.8500 N.3    88  LYS88      -0.1245
     44  CA        45.6660  103.7090   19.4140 C.3    88  LYS88       0.1561
     45  C         46.1730  102.4280   18.7510 C.2    88  LYS88       0.2260
     46  O         47.0200  102.4750   17.8620 O.2    88  LYS88      -0.2867
     47  CB        46.6210  104.8690   19.1020 C.3    88  LYS88       0.0271
     48  CG        46.4690  106.1020   19.9900 C.3    88  LYS88       0.0035
     49  CD        45.2940  106.9390   19.5660 C.3    88  LYS88       0.0206
     50  CE        45.4020  108.3800   20.0660 C.3    88  LYS88       0.1093
     51  NZ        44.9470  108.5610   21.4770 N.3    88  LYS88      -0.1314
     52  N         26.4840  109.7990   16.1340 N.3   137  THR137     -0.1204
     53  CA        26.7520  109.2410   17.4450 C.3   137  THR137      0.1979
     54  C         27.3830  110.2820   18.3530 C.2   137  THR137      0.2459
     55  O         28.0320  111.2110   17.8850 O.2   137  THR137     -0.2732
     56  CB        27.7620  108.0710   17.3310 C.3   137  THR137      0.1783
     57  OG1       28.8770  108.4960   16.5360 O.3   137  THR137     -0.2211
     58  CG2       27.1170  106.8360   16.6730 C.3   137  THR137      0.0376
     59  N         27.1970  110.1270   19.6660 N.am  138  PRO138     -0.2728
     60  CA        26.2390  109.2110   20.2990 C.3   138  PRO138      0.1401
     61  C         24.7980  109.6850   20.0410 C.2   138  PRO138      0.2269
     62  O         24.5670  110.8800   19.9650 O.2   138  PRO138     -0.2865
     63  CB        26.5350  109.4180   21.7750 C.3   138  PRO138      0.0296
     64  CG        27.0010  110.8430   21.8290 C.3   138  PRO138      0.0237
     65  CD        27.8920  110.9520   20.6570 C.3   138  PRO138      0.0939
     66  N         22.2060  116.3700   21.6850 N.3   150  ASN150     -0.1225
     67  CA        23.5020  116.5660   22.3600 C.3   150  ASN150      0.1785
     68  C         23.9460  118.0360   22.2760 C.2   150  ASN150      0.2597
     69  O         24.6520  118.5570   23.1370 O.2   150  ASN150     -0.2718
     70  CB        24.5980  115.7260   21.6970 C.3   150  ASN150      0.1169
     71  CG        24.2830  114.2180   21.6780 C.2   150  ASN150      0.2627
     72  OD1       23.5910  113.7030   22.5490 O.2   150  ASN150     -0.2716
     73  ND2       24.7990  113.5240   20.6730 N.am  150  ASN150     -0.0877
     74  N         23.5590  118.6930   21.2030 N.am  151  ALA151     -0.1979
     75  CA        24.1310  119.9980   20.9290 C.3   151  ALA151      0.1597
     76  C         23.2980  121.1180   21.5650 C.2   151  ALA151      0.2287
     77  O         23.5110  122.2920   21.2700 O.2   151  ALA151     -0.2864
     78  CB        24.2910  120.1940   19.4330 C.3   151  ALA151      0.0319
     79  N         27.5820  123.9600   29.5310 N.3   155  ALA155     -0.1231
     80  CA        28.1780  123.8830   30.8580 C.3   155  ALA155      0.1694
     81  C         29.6460  124.2840   30.7940 C.2   155  ALA155      0.2592
     82  O         30.2900  124.1080   29.7720 O.2   155  ALA155     -0.2718
     83  CB        28.0470  122.4650   31.4040 C.3   155  ALA155      0.0304
     84  N         30.1710  124.8070   31.8940 N.am  156  PHE156     -0.1962
     85  CA        31.5980  125.0710   31.9910 C.3   156  PHE156      0.1771
     86  C         32.3420  123.8990   32.6020 C.2   156  PHE156      0.2620
     87  O         33.5690  123.8900   32.6300 O.2   156  PHE156     -0.2715
     88  CB        31.8680  126.3200   32.8300 C.3   156  PHE156      0.0574
     89  CG        31.2750  127.5600   32.2640 C.ar  156  PHE156     -0.0200
     90  CD1       31.2540  127.7680   30.9020 C.ar  156  PHE156     -0.0042
     91  CD2       30.7670  128.5400   33.0970 C.ar  156  PHE156     -0.0042
     92  CE1       30.7110  128.9230   30.3770 C.ar  156  PHE156     -0.0003
     93  CE2       30.2260  129.6830   32.5750 C.ar  156  PHE156     -0.0003
     94  CZ        30.2020  129.8740   31.2110 C.ar  156  PHE156     -0.0000
     95  N         31.6090  122.9070   33.0870 N.am  157  SER157     -0.1936
     96  CA        32.2450  121.7770   33.7490 C.3   157  SER157      0.2055
     97  C         31.6440  120.4310   33.3300 C.2   157  SER157      0.2642
     98  O         30.4860  120.3450   32.9130 O.2   157  SER157     -0.2714
     99  CB        32.1800  121.9440   35.2760 C.3   157  SER157      0.2130
    100  OG        30.8400  121.8890   35.7570 O.3   157  SER157     -0.2179
    101  N         32.4550  119.3860   33.4390 N.am  158  VAL158     -0.1977
    102  CA        32.0090  118.0370   33.1550 C.3   158  VAL158      0.1596
    103  C         30.8300  117.7210   34.0480 C.2   158  VAL158      0.2287
    104  O         29.8270  117.1500   33.6120 O.2   158  VAL158     -0.2864
    105  CB        33.1220  117.0170   33.4210 C.3   158  VAL158      0.0276
    106  CG1       32.5410  115.6020   33.4660 C.3   158  VAL158      0.0022
    107  CG2       34.1770  117.1200   32.3700 C.3   158  VAL158      0.0022
    108  N         27.6530  119.5620   32.9810 N.3   161  PHE161     -0.1241
    109  CA        27.2110  118.9760   31.7170 C.3   161  PHE161      0.1605
    110  C         26.5380  117.6310   31.9670 C.2   161  PHE161      0.2264
    111  O         25.4500  117.3820   31.4820 O.2   161  PHE161     -0.2867
    112  CB        28.3480  118.7920   30.6980 C.3   161  PHE161      0.0534
    113  CG        27.8610  118.3440   29.3360 C.ar  161  PHE161     -0.0203
    114  CD1       27.6180  116.9990   29.0730 C.ar  161  PHE161     -0.0042
    115  CD2       27.6170  119.2670   28.3380 C.ar  161  PHE161     -0.0042
    116  CE1       27.1430  116.5890   27.8410 C.ar  161  PHE161     -0.0003
    117  CE2       27.1410  118.8590   27.1030 C.ar  161  PHE161     -0.0003
    118  CZ        26.9020  117.5180   26.8570 C.ar  161  PHE161     -0.0000
@<TRIPOS>BOND
     1    52    53    1
     2    57    56    1
     3    58    56    1
     4    56    53    1
     5    53    54    1
     6    46    45    2
     7    55    54    2
     8     7     6    1
     9     7     1    1
    10    54    59   am
    11     6     5    1
    12    45    44    1
    13    47    44    1
    14    47    48    1
    15    44    43    1
    16    78    75    1
    17     1     2    1
    18    49    48    1
    19    49    50    1
    20    59    60    1
    21    59    65    1
    22    62    61    2
    23    61    60    1
    24    50    51    1
    25    14    13    1
    26    14     8    1
    27     5     2    1
    28    60    63    1
    29    13    12    1
    30    65    64    1
    31    73    71   am
    32     2     3    1
    33    75    74    1
    34    75    76    1
    35    74    68   am
    36    77    76    2
    37     8     3   am
    38     8     9    1
    39    71    70    1
    40    71    72    2
    41    12     9    1
    42    66    67    1
    43    70    67    1
    44     3     4    2
    45    63    64    1
    46    68    67    1
    47    68    69    2
    48     9    10    1
    49    10    11    2
    50    15    16    1
    51    19    16    1
    52    19    20    1
    53    16    17    1
    54    20    22   ar
    55    20    21   ar
    56    22    24   ar
    57    41    42   ar
    58    41    39   ar
    59    21    23   ar
    60    42    40   ar
    61    27    17   am
    62    27    28    1
    63    17    18    2
    64    39    37   ar
    65    40    38   ar
    66    24    25   ar
    67    37    38   ar
    68    37    36    1
    69    31    28    1
    70    23    25   ar
    71    25    26    1
    72    36    33    1
    73    28    29    1
    74   118   117   ar
    75   118   116   ar
    76    32    29   am
    77    32    33    1
    78   117   115   ar
    79    29    30    2
    80    33    34    1
    81   116   114   ar
    82   115   113   ar
    83    34    35    2
    84   114   113   ar
    85   113   112    1
    86    79    80    1
    87    82    81    2
    88    92    90   ar
    89    92    94   ar
    90   112   109    1
    91    81    80    1
    92    81    84   am
    93    80    83    1
    94    90    89   ar
    95    94    93   ar
    96   111   110    2
    97   109   110    1
    98   109   108    1
    99    84    85    1
   100    85    86    1
   101    85    88    1
   102    89    88    1
   103    89    91   ar
   104   107   105    1
   105    93    91   ar
   106    86    87    2
   107    86    95   am
   108    98    97    2
   109    95    96    1
   110   102   105    1
   111   102   101    1
   112   102   103    1
   113    97   101   am
   114    97    96    1
   115   105   106    1
   116   104   103    2
   117    96    99    1
   118    99   100    1
