@<TRIPOS>MOLECULE
tmp/3l9vC00.pdb
 91 89 0 0 0
SMALL
GASTEIGER

@<TRIPOS>ATOM
      1  N         50.0120   80.1650   51.1390 N.3    24  PRO24      -0.2103
      2  CA        51.1630   79.4740   50.5350 C.3    24  PRO24       0.1489
      3  C         51.2830   77.9850   50.8850 C.2    24  PRO24       0.2417
      4  O         51.4190   77.1460   49.9820 O.2    24  PRO24      -0.2734
      5  CB        52.3740   80.2790   51.0430 C.3    24  PRO24       0.0282
      6  CG        51.8150   81.6600   51.2660 C.3    24  PRO24       0.0208
      7  CD        50.3890   81.4580   51.7380 C.3    24  PRO24       0.0893
      8  N         51.2310   77.6420   52.1750 N.am   25  PRO25      -0.2729
      9  CA        51.3510   76.2190   52.5170 C.3    25  PRO25       0.1401
     10  C         50.1760   75.3900   51.9670 C.2    25  PRO25       0.2269
     11  O         50.3200   74.1860   51.7520 O.2    25  PRO25      -0.2865
     12  CB        51.3190   76.2190   54.0370 C.3    25  PRO25       0.0296
     13  CG        51.5700   77.6680   54.4440 C.3    25  PRO25       0.0237
     14  CD        50.9810   78.4800   53.3580 C.3    25  PRO25       0.0939
     15  N         48.8640   76.0860   48.9880 N.3    27  TYR27      -0.1241
     16  CA        49.3730   75.9160   47.6360 C.3    27  TYR27       0.1605
     17  C         50.3130   74.7040   47.5700 C.2    27  TYR27       0.2264
     18  O         50.2190   73.8770   46.6660 O.2    27  TYR27      -0.2867
     19  CB        50.0920   77.1890   47.1670 C.3    27  TYR27       0.0534
     20  CG        50.8240   77.0420   45.8430 C.ar   27  TYR27      -0.0201
     21  CD1       50.1320   76.7580   44.6800 C.ar   27  TYR27      -0.0009
     22  CD2       52.2110   77.2040   45.7580 C.ar   27  TYR27      -0.0009
     23  CE1       50.7830   76.6240   43.4780 C.ar   27  TYR27       0.0417
     24  CE2       52.8740   77.0790   44.5410 C.ar   27  TYR27       0.0417
     25  CZ        52.1560   76.7830   43.4140 C.ar   27  TYR27       0.1957
     26  OH        52.7880   76.6490   42.2040 O.3    27  TYR27      -0.2866
     27  N         50.5590   72.0690   49.6480 N.3    29  PHE29      -0.1241
     28  CA        49.8670   70.8050   49.9050 C.3    29  PHE29       0.1605
     29  C         49.1400   70.3220   48.6670 C.2    29  PHE29       0.2264
     30  O         49.1440   69.1330   48.3370 O.2    29  PHE29      -0.2867
     31  CB        48.8590   70.9800   51.0320 C.3    29  PHE29       0.0534
     32  CG        49.4270   70.7420   52.3920 C.ar   29  PHE29      -0.0203
     33  CD1       50.7170   71.1390   52.6950 C.ar   29  PHE29      -0.0042
     34  CD2       48.6700   70.1260   53.3780 C.ar   29  PHE29      -0.0042
     35  CE1       51.2470   70.9210   53.9590 C.ar   29  PHE29      -0.0003
     36  CE2       49.1870   69.9130   54.6390 C.ar   29  PHE29      -0.0003
     37  CZ        50.4830   70.3070   54.9310 C.ar   29  PHE29      -0.0000
     38  N         51.0200   81.7160   41.2000 N.3    85  VAL85      -0.1245
     39  CA        51.9770   81.6640   40.1120 C.3    85  VAL85       0.1561
     40  C         51.9810   82.9340   39.2810 C.2    85  VAL85       0.2260
     41  O         53.0400   83.4930   39.0110 O.2    85  VAL85      -0.2867
     42  CB        51.7400   80.4610   39.1980 C.3    85  VAL85       0.0252
     43  CG1       52.6900   80.5140   38.0270 C.3    85  VAL85       0.0019
     44  CG2       51.9520   79.1840   39.9700 C.3    85  VAL85       0.0019
     45  N         50.0110   85.8690   39.8000 N.3    87  LYS87      -0.1245
     46  CA        49.7370   87.1100   40.5100 C.3    87  LYS87       0.1561
     47  C         48.6540   87.9320   39.8600 C.2    87  LYS87       0.2260
     48  O         48.7050   89.1620   39.8920 O.2    87  LYS87      -0.2867
     49  CB        50.9970   87.9650   40.6130 C.3    87  LYS87       0.0271
     50  CG        51.9290   87.5450   41.7270 C.3    87  LYS87       0.0035
     51  CD        52.6600   86.2520   41.4210 C.3    87  LYS87       0.0206
     52  CE        53.5580   85.9000   42.5980 C.3    87  LYS87       0.1093
     53  NZ        54.4710   84.7570   42.3440 N.3    87  LYS87      -0.1314
     54  N         45.0070   77.7050   58.1990 N.3   136  THR136     -0.1204
     55  CA        45.0310   76.8420   57.0240 C.3   136  THR136      0.1979
     56  C         46.4800   76.5090   56.6500 C.2   136  THR136      0.2459
     57  O         47.3700   77.3240   56.8630 O.2   136  THR136     -0.2732
     58  CB        44.3680   77.5440   55.8270 C.3   136  THR136      0.1783
     59  OG1       44.9800   78.8260   55.6370 O.3   136  THR136     -0.2211
     60  CG2       42.8510   77.7270   56.0540 C.3   136  THR136      0.0376
     61  N         46.7230   75.2990   56.1210 N.am  137  PRO137     -0.2728
     62  CA        45.6910   74.2750   55.9430 C.3   137  PRO137      0.1401
     63  C         45.3650   73.6370   57.2800 C.2   137  PRO137      0.2269
     64  O         46.1570   73.7070   58.2140 O.2   137  PRO137     -0.2865
     65  CB        46.3650   73.2320   55.0390 C.3   137  PRO137      0.0296
     66  CG        47.8180   73.6740   54.8910 C.3   137  PRO137      0.0237
     67  CD        48.0710   74.7670   55.8720 C.3   137  PRO137      0.0939
     68  N         50.1990   70.2400   61.6000 N.3   149  ASN149     -0.1225
     69  CA        51.1500   70.3390   60.5020 C.3   149  ASN149      0.1785
     70  C         52.6050   70.4400   60.9980 C.2   149  ASN149      0.2597
     71  O         53.5080   69.8480   60.4140 O.2   149  ASN149     -0.2718
     72  CB        50.8100   71.5260   59.5800 C.3   149  ASN149      0.1169
     73  CG        49.3750   71.4810   59.0450 C.2   149  ASN149      0.2627
     74  OD1       48.7740   70.4140   58.9010 O.2   149  ASN149     -0.2716
     75  ND2       48.8280   72.6470   58.7480 N.am  149  ASN149     -0.0877
     76  N         52.8100   71.1600   62.0950 N.am  150  ALA150     -0.1979
     77  CA        54.1600   71.4960   62.5460 C.3   150  ALA150      0.1597
     78  C         54.8130   70.3490   63.2910 C.2   150  ALA150      0.2287
     79  O         55.9630   70.4420   63.7020 O.2   150  ALA150     -0.2864
     80  CB        54.1430   72.7550   63.4080 C.3   150  ALA150      0.0319
     81  N         58.3020   64.4740   54.4560 N.3   160  PHE160     -0.1241
     82  CA        57.1760   65.2040   55.0180 C.3   160  PHE160      0.1605
     83  C         55.8900   64.5430   54.5290 C.2   160  PHE160      0.2264
     84  O         55.0840   64.0730   55.3160 O.2   160  PHE160     -0.2867
     85  CB        57.1830   66.6700   54.6090 C.3   160  PHE160      0.0534
     86  CG        55.9630   67.4190   55.0810 C.ar  160  PHE160     -0.0203
     87  CD1       54.8430   67.5430   54.2650 C.ar  160  PHE160     -0.0042
     88  CD2       55.9170   67.9500   56.3610 C.ar  160  PHE160     -0.0042
     89  CE1       53.7220   68.2050   54.7120 C.ar  160  PHE160     -0.0003
     90  CE2       54.7860   68.6190   56.8180 C.ar  160  PHE160     -0.0003
     91  CZ        53.6890   68.7380   55.9950 C.ar  160  PHE160     -0.0000
@<TRIPOS>BOND
     1    43    42    1
     2    41    40    2
     3    42    44    1
     4    42    39    1
     5    40    39    1
     6    45    46    1
     7    47    48    2
     8    47    46    1
     9    39    38    1
    10    46    49    1
    11    49    50    1
    12    51    50    1
    13    51    52    1
    14    26    25    1
    15    53    52    1
    16    25    23   ar
    17    25    24   ar
    18    23    21   ar
    19    24    22   ar
    20    21    20   ar
    21    22    20   ar
    22    20    19    1
    23    18    17    2
    24    19    16    1
    25    17    16    1
    26    16    15    1
    27    30    29    2
    28    29    28    1
    29    27    28    1
    30    28    31    1
    31     4     3    2
    32     2     3    1
    33     2     5    1
    34     2     1    1
    35     3     8   am
    36    31    32    1
    37     5     6    1
    38     1     7    1
    39     6     7    1
    40    11    10    2
    41    10     9    1
    42     8     9    1
    43     8    14    1
    44    32    33   ar
    45    32    34   ar
    46     9    12    1
    47    33    35   ar
    48    14    13    1
    49    34    36   ar
    50    35    37   ar
    51    12    13    1
    52    87    89   ar
    53    87    86   ar
    54    81    82    1
    55    83    82    1
    56    83    84    2
    57    85    82    1
    58    85    86    1
    59    36    37   ar
    60    89    91   ar
    61    66    65    1
    62    66    67    1
    63    65    62    1
    64    86    88   ar
    65    59    58    1
    66    58    60    1
    67    58    55    1
    68    67    61    1
    69    62    61    1
    70    62    63    1
    71    91    90   ar
    72    61    56   am
    73    88    90   ar
    74    56    57    2
    75    56    55    1
    76    55    54    1
    77    63    64    2
    78    75    73   am
    79    74    73    2
    80    73    72    1
    81    72    69    1
    82    71    70    2
    83    69    70    1
    84    69    68    1
    85    70    76   am
    86    76    77    1
    87    77    78    1
    88    77    80    1
    89    78    79    2
