@<TRIPOS>MOLECULE
tmp/3l9wB00.pdb
 172 176 0 0 0
SMALL
GASTEIGER

@<TRIPOS>ATOM
      1  N        -38.2290   -4.7600  -36.5110 N.3   191  HIS191     -0.1241
      2  CA       -38.5020   -3.6500  -37.4130 C.3   191  HIS191      0.1621
      3  C        -37.9380   -2.3680  -36.7890 C.2   191  HIS191      0.2264
      4  O        -38.2930   -2.0470  -35.6390 O.2   191  HIS191     -0.2867
      5  CB       -40.0670   -3.5130  -37.6010 C.3   191  HIS191      0.0745
      6  CG       -40.4700   -2.7270  -38.8140 C.ar  191  HIS191      0.0817
      7  ND1      -40.0060   -1.4590  -39.0790 N.ar  191  HIS191     -0.2268
      8  CD2      -41.2900   -3.0470  -39.8500 C.ar  191  HIS191      0.1154
      9  CE1      -40.5110   -1.0290  -40.2230 C.ar  191  HIS191      0.1986
     10  NE2      -41.2950   -1.9760  -40.7060 N.ar  191  HIS191     -0.2212
     11  N        -38.8600    0.6150  -37.4080 N.3   193  TYR193     -0.1241
     12  CA       -39.9240    1.6340  -37.3010 C.3   193  TYR193      0.1605
     13  C        -41.2880    0.9590  -37.1320 C.2   193  TYR193      0.2264
     14  O        -42.1290    0.9930  -38.0690 O.2   193  TYR193     -0.2867
     15  CB       -39.9080    2.5900  -38.5140 C.3   193  TYR193      0.0534
     16  CG       -38.5810    3.2570  -38.7120 C.ar  193  TYR193     -0.0201
     17  CD1      -38.1650    4.3170  -37.8900 C.ar  193  TYR193     -0.0009
     18  CD2      -37.6970    2.8070  -39.7100 C.ar  193  TYR193     -0.0009
     19  CE1      -36.9170    4.8930  -38.0560 C.ar  193  TYR193      0.0417
     20  CE2      -36.4700    3.3980  -39.8970 C.ar  193  TYR193      0.0417
     21  CZ       -36.0760    4.4340  -39.0590 C.ar  193  TYR193      0.1957
     22  OH       -34.8620    5.0190  -39.2240 O.3   193  TYR193     -0.2866
     23  N        -44.5200    2.4380  -38.1600 N.3   196  HIS196     -0.1226
     24  CA       -44.7020    2.7210  -39.5780 C.3   196  HIS196      0.1752
     25  C        -44.9660    1.4520  -40.4140 C.2   196  HIS196      0.2597
     26  O        -45.1840    1.5330  -41.6200 O.2   196  HIS196     -0.2718
     27  CB       -43.4880    3.4260  -40.1460 C.3   196  HIS196      0.0759
     28  CG       -43.2490    4.7910  -39.5760 C.ar  196  HIS196      0.0818
     29  ND1      -43.8190    5.9260  -40.1060 N.ar  196  HIS196     -0.2268
     30  CD2      -42.4430    5.2080  -38.5680 C.ar  196  HIS196      0.1154
     31  CE1      -43.3930    6.9850  -39.4300 C.ar  196  HIS196      0.1986
     32  NE2      -42.5490    6.5770  -38.5000 N.ar  196  HIS196     -0.2212
     33  N        -44.9170    0.3040  -39.7700 N.am  197  SER197     -0.1938
     34  CA       -45.0530   -0.9800  -40.4300 C.3   197  SER197      0.2055
     35  C        -46.4830   -1.1990  -40.9000 C.2   197  SER197      0.2643
     36  O        -47.4040   -0.8330  -40.1930 O.2   197  SER197     -0.2714
     37  CB       -44.7360   -2.0670  -39.4280 C.3   197  SER197      0.2130
     38  OG       -44.9680   -3.3420  -39.9650 O.3   197  SER197     -0.2179
     39  N        -46.6400   -1.8500  -42.0550 N.am  198  HIS198     -0.1959
     40  CA       -47.9720   -2.3410  -42.5100 C.3   198  HIS198      0.1787
     41  C        -48.0510   -3.8650  -42.4150 C.2   198  HIS198      0.2620
     42  O        -48.9100   -4.4140  -41.7200 O.2   198  HIS198     -0.2715
     43  CB       -48.2280   -1.8810  -43.9390 C.3   198  HIS198      0.0785
     44  CG       -48.3440   -0.3870  -44.0850 C.ar  198  HIS198      0.0821
     45  ND1      -49.4750    0.3120  -43.7140 N.ar  198  HIS198     -0.2267
     46  CD2      -47.4790    0.5340  -44.5790 C.ar  198  HIS198      0.1154
     47  CE1      -49.2960    1.6000  -43.9570 C.ar  198  HIS198      0.1986
     48  NE2      -48.0970    1.7590  -44.4940 N.ar  198  HIS198     -0.2212
     49  N        -47.0980   -4.5450  -43.0640 N.am  199  ALA199     -0.1963
     50  CA       -47.0510   -6.0090  -43.1370 C.3   199  ALA199      0.1728
     51  C        -46.6590   -6.6940  -41.8430 C.2   199  ALA199      0.2616
     52  O        -47.3730   -7.5610  -41.3240 O.2   199  ALA199     -0.2715
     53  CB       -46.0900   -6.4390  -44.3020 C.3   199  ALA199      0.0334
     54  N        -45.5060   -6.3130  -41.2710 N.am  200  ASN200     -0.1972
     55  CA       -45.1650   -6.8880  -39.9810 C.3   200  ASN200      0.1688
     56  C        -46.1850   -6.5840  -38.8940 C.2   200  ASN200      0.2292
     57  O        -46.4380   -7.3910  -38.0430 O.2   200  ASN200     -0.2864
     58  CB       -43.7470   -6.4460  -39.5190 C.3   200  ASN200      0.1181
     59  CG       -42.6630   -7.2200  -40.2350 C.2   200  ASN200      0.2629
     60  OD1      -42.2930   -8.3190  -39.7980 O.2   200  ASN200     -0.2716
     61  ND2      -42.1760   -6.6770  -41.3550 N.am  200  ASN200     -0.0877
     62  N        -38.6370   -6.9430  -41.4600 N.3   247  PRO247     -0.2102
     63  CA       -38.5920   -6.6000  -42.8690 C.3   247  PRO247      0.1504
     64  C        -37.1720   -6.8120  -43.3490 C.2   247  PRO247      0.2576
     65  O        -36.1790   -6.4970  -42.6590 O.2   247  PRO247     -0.2718
     66  CB       -38.9670   -5.1070  -42.9080 C.3   247  PRO247      0.0282
     67  CG       -38.4720   -4.5760  -41.5570 C.3   247  PRO247      0.0208
     68  CD       -38.7170   -5.7260  -40.6100 C.3   247  PRO247      0.0893
     69  N        -37.0620   -7.4200  -44.5200 N.am  248  MET248     -0.1966
     70  CA       -35.7420   -7.5620  -45.1210 C.3   248  MET248      0.1736
     71  C        -35.1330   -6.2430  -45.5340 C.2   248  MET248      0.2616
     72  O        -35.7780   -5.3880  -46.1260 O.2   248  MET248     -0.2715
     73  CB       -35.8150   -8.5050  -46.3530 C.3   248  MET248      0.0427
     74  CG       -34.5090   -8.5380  -47.0940 C.3   248  MET248      0.0599
     75  SD       -34.4380   -9.9610  -48.2520 S.3   248  MET248     -0.1393
     76  CE       -34.0090  -11.2520  -47.1480 C.3   248  MET248      0.0692
     77  N        -33.8340   -6.0820  -45.2460 N.am  249  GLN249     -0.1963
     78  CA       -33.1280   -4.8800  -45.6020 C.3   249  GLN249      0.1733
     79  C        -31.8250   -5.2870  -46.2660 C.2   249  GLN249      0.2616
     80  O        -31.0690   -6.0090  -45.6680 O.2   249  GLN249     -0.2715
     81  CB       -32.8130   -4.0870  -44.3120 C.3   249  GLN249      0.0408
     82  CG       -34.1220   -3.6640  -43.6640 C.3   249  GLN249      0.0908
     83  CD       -34.0470   -2.6260  -42.5480 C.2   249  GLN249      0.2608
     84  OE1      -35.0910   -2.0120  -42.2350 O.2   249  GLN249     -0.2717
     85  NE2      -32.8700   -2.4310  -41.9360 N.am  249  GLN249     -0.0878
     86  N        -31.6320   -4.8550  -47.5090 N.am  250  TRP250     -0.1960
     87  CA       -30.4300   -5.1470  -48.2660 C.3   250  TRP250      0.1771
     88  C        -30.0880   -6.6620  -48.2140 C.2   250  TRP250      0.2619
     89  O        -28.9500   -7.1050  -47.7940 O.2   250  TRP250     -0.2715
     90  CB       -29.2650   -4.2030  -47.8110 C.3   250  TRP250      0.0590
     91  CG       -29.4620   -2.7970  -48.2320 C.ar  250  TRP250      0.0006
     92  CD1      -29.6750   -1.7110  -47.4260 C.ar  250  TRP250      0.0946
     93  CD2      -29.5220   -2.3160  -49.5790 C.ar  250  TRP250      0.0152
     94  NE1      -29.8500   -0.5760  -48.1930 N.ar  250  TRP250     -0.2442
     95  CE2      -29.7530   -0.9270  -49.5190 C.ar  250  TRP250      0.0810
     96  CE3      -29.3970   -2.9430  -50.8450 C.ar  250  TRP250      0.0012
     97  CZ2      -29.8610   -0.1330  -50.6620 C.ar  250  TRP250      0.0191
     98  CZ3      -29.5130   -2.1640  -51.9790 C.ar  250  TRP250      0.0001
     99  CH2      -29.7460   -0.7680  -51.8890 C.ar  250  TRP250      0.0015
    100  N        -31.1050   -7.4740  -48.5830 N.am  251  TYR251     -0.1974
    101  CA       -30.9260   -8.9320  -48.7250 C.3   251  TYR251      0.1639
    102  C        -30.5600   -9.6530  -47.4150 C.2   251  TYR251      0.2290
    103  O        -30.0310  -10.7590  -47.4190 O.2   251  TYR251     -0.2864
    104  CB       -29.8980   -9.2330  -49.8440 C.3   251  TYR251      0.0560
    105  CG       -30.2900   -8.4720  -51.1090 C.ar  251  TYR251     -0.0198
    106  CD1      -29.7280   -7.2370  -51.3940 C.ar  251  TYR251     -0.0009
    107  CD2      -31.2600   -8.9920  -51.9800 C.ar  251  TYR251     -0.0009
    108  CE1      -30.0690   -6.5210  -52.5320 C.ar  251  TYR251      0.0417
    109  CE2      -31.6430   -8.2670  -53.1220 C.ar  251  TYR251      0.0417
    110  CZ       -31.0470   -7.0510  -53.3810 C.ar  251  TYR251      0.1957
    111  OH       -31.4170   -6.3180  -54.4770 O.3   251  TYR251     -0.2866
    112  N        -40.3760  -10.2720  -44.2640 N.3   288  THR288     -0.1203
    113  CA       -41.1950   -9.5830  -45.2850 C.3   288  THR288      0.1994
    114  C        -40.3020   -8.9170  -46.2830 C.2   288  THR288      0.2619
    115  O        -39.2280   -8.3710  -45.9460 O.2   288  THR288     -0.2717
    116  CB       -42.1640   -8.5610  -44.6530 C.3   288  THR288      0.1784
    117  OG1      -41.4330   -7.5210  -43.9710 O.3   288  THR288     -0.2211
    118  CG2      -43.0890   -9.2830  -43.6150 C.3   288  THR288      0.0376
    119  N        -40.6890   -8.9600  -47.5560 N.am  289  THR289     -0.1938
    120  CA       -39.8250   -8.3660  -48.5650 C.3   289  THR289      0.2028
    121  C        -40.6900   -7.4800  -49.4340 C.2   289  THR289      0.2643
    122  O        -41.8830   -7.7350  -49.5690 O.2   289  THR289     -0.2714
    123  CB       -39.0540   -9.4260  -49.4220 C.3   289  THR289      0.1808
    124  OG1      -39.9460   -9.9700  -50.4160 O.3   289  THR289     -0.2208
    125  CG2      -38.5110  -10.5930  -48.5810 C.3   289  THR289      0.0379
    126  N        -40.1010   -6.4080  -49.9520 N.am  290  GLY290     -0.1939
    127  CA       -40.7640   -5.4730  -50.8400 C.3   290  GLY290      0.2014
    128  C        -40.9690   -6.1050  -52.2010 C.2   290  GLY290      0.2639
    129  O        -42.0760   -6.0100  -52.7900 O.2   290  GLY290     -0.2714
    130  N        -39.9200   -6.7480  -52.7040 N.am  291  GLY291     -0.1954
    131  CA       -39.9980   -7.4460  -54.0020 C.3   291  GLY291      0.1869
    132  C        -40.6450   -8.8140  -53.9720 C.2   291  GLY291      0.2309
    133  O        -40.8080   -9.4640  -52.9170 O.2   291  GLY291     -0.2863
    134  N        -37.4590  -10.5100  -57.7350 N.3   295  HIS295     -0.1226
    135  CA       -36.5210   -9.5160  -57.2200 C.3   295  HIS295      0.1752
    136  C        -35.1680  -10.1040  -56.8190 C.2   295  HIS295      0.2596
    137  O        -34.1620   -9.3860  -56.7560 O.2   295  HIS295     -0.2718
    138  CB       -37.1530   -8.8080  -56.0020 C.3   295  HIS295      0.0759
    139  CG       -36.4180   -7.5720  -55.5710 C.ar  295  HIS295      0.0818
    140  ND1      -35.8250   -7.4480  -54.3320 N.ar  295  HIS295     -0.2268
    141  CD2      -36.1600   -6.4140  -56.2270 C.ar  295  HIS295      0.1154
    142  CE1      -35.2250   -6.2730  -54.2430 C.ar  295  HIS295      0.1986
    143  NE2      -35.4140   -5.6240  -55.3790 N.ar  295  HIS295     -0.2212
    144  N        -35.1270  -11.3970  -56.5470 N.am  296  PHE296     -0.1976
    145  CA       -33.9050  -12.0000  -56.0280 C.3   296  PHE296      0.1639
    146  C        -33.0560  -12.6720  -57.1180 C.2   296  PHE296      0.2290
    147  O        -32.1440  -13.4460  -56.8260 O.2   296  PHE296     -0.2864
    148  CB       -34.2930  -12.9090  -54.8670 C.3   296  PHE296      0.0560
    149  CG       -34.9270  -12.1320  -53.7660 C.ar  296  PHE296     -0.0200
    150  CD1      -36.3230  -12.0110  -53.6840 C.ar  296  PHE296     -0.0042
    151  CD2      -34.1280  -11.3910  -52.8740 C.ar  296  PHE296     -0.0042
    152  CE1      -36.9260  -11.2590  -52.6960 C.ar  296  PHE296     -0.0003
    153  CE2      -34.7390  -10.6100  -51.8940 C.ar  296  PHE296     -0.0003
    154  CZ       -36.1260  -10.5190  -51.8010 C.ar  296  PHE296     -0.0000
    155  N        -44.4980   -6.7270  -50.8520 N.3   331  THR331     -0.1203
    156  CA       -45.1210   -5.6330  -50.0930 C.3   331  THR331      0.1994
    157  C        -45.1840   -4.3120  -50.8820 C.2   331  THR331      0.2617
    158  O        -46.1310   -3.5430  -50.7100 O.2   331  THR331     -0.2717
    159  CB       -44.4870   -5.4100  -48.6770 C.3   331  THR331      0.1784
    160  OG1      -43.1230   -5.0080  -48.8130 O.3   331  THR331     -0.2211
    161  CG2      -44.5550   -6.6650  -47.8340 C.3   331  THR331      0.0376
    162  N        -44.1960   -4.0560  -51.7450 N.am  332  PHE332     -0.1975
    163  CA       -44.2000   -2.8530  -52.5990 C.3   332  PHE332      0.1639
    164  C        -45.4610   -2.8070  -53.4720 C.2   332  PHE332      0.2290
    165  O        -46.0720   -1.7500  -53.6190 O.2   332  PHE332     -0.2864
    166  CB       -42.9620   -2.7660  -53.5230 C.3   332  PHE332      0.0560
    167  CG       -41.6470   -2.4360  -52.8200 C.ar  332  PHE332     -0.0200
    168  CD1      -40.4370   -2.9270  -53.3370 C.ar  332  PHE332     -0.0042
    169  CD2      -41.6070   -1.6420  -51.6620 C.ar  332  PHE332     -0.0042
    170  CE1      -39.2120   -2.6400  -52.7170 C.ar  332  PHE332     -0.0003
    171  CE2      -40.3840   -1.3520  -51.0350 C.ar  332  PHE332     -0.0003
    172  CZ       -39.1850   -1.8490  -51.5690 C.ar  332  PHE332     -0.0000
@<TRIPOS>BOND
     1   134   135    1
     2   135   136    1
     3   135   138    1
     4   146   147    2
     5   146   145    1
     6   136   137    2
     7   136   144   am
     8   144   145    1
     9   141   139   ar
    10   141   143   ar
    11   145   148    1
    12   138   139    1
    13   139   140   ar
    14   143   142   ar
    15   148   149    1
    16   111   110    1
    17   140   142   ar
    18   131   132    1
    19   131   130    1
    20   132   133    2
    21   149   150   ar
    22   149   151   ar
    23   150   152   ar
    24   165   164    2
    25   166   167    1
    26   166   163    1
    27   164   163    1
    28   110   109   ar
    29   110   108   ar
    30   168   167   ar
    31   168   170   ar
    32   109   107   ar
    33   151   153   ar
    34   167   169   ar
    35   129   128    2
    36   170   172   ar
    37   130   128   am
    38   152   154   ar
    39   163   162    1
    40   108   106   ar
    41   128   127    1
    42   107   105   ar
    43    98    99   ar
    44    98    96   ar
    45   153   154   ar
    46    99    97   ar
    47   162   157   am
    48   169   171   ar
    49   172   171   ar
    50   106   105   ar
    51   105   104    1
    52   157   158    2
    53   157   156    1
    54   155   156    1
    55    96    93   ar
    56   127   126    1
    57    97    95   ar
    58   124   123    1
    59   156   159    1
    60   126   121   am
    61   104   101    1
    62    93    95   ar
    63    93    91   ar
    64   122   121    2
    65    95    94   ar
    66   121   120    1
    67   123   125    1
    68   123   120    1
    69   160   159    1
    70   101   100    1
    71   101   102    1
    72   159   161    1
    73   100    88   am
    74   120   119    1
    75    87    88    1
    76    87    90    1
    77    87    86    1
    78    75    76    1
    79    75    74    1
    80    91    90    1
    81    91    92   ar
    82    88    89    2
    83    94    92   ar
    84   119   114   am
    85    86    79   am
    86   103   102    2
    87    74    73    1
    88    73    70    1
    89   114   115    2
    90   114   113    1
    91    79    80    2
    92    79    78    1
    93    72    71    2
    94    78    77    1
    95    78    81    1
    96    71    77   am
    97    71    70    1
    98   113   116    1
    99   113   112    1
   100    70    69    1
   101   116   117    1
   102   116   118    1
   103    46    48   ar
   104    46    44   ar
   105    69    64   am
   106    48    47   ar
   107    81    82    1
   108    53    50    1
   109    44    43    1
   110    44    45   ar
   111    47    45   ar
   112    43    40    1
   113    82    83    1
   114    64    63    1
   115    64    65    2
   116    50    49    1
   117    50    51    1
   118    49    41   am
   119    66    63    1
   120    66    67    1
   121    63    62    1
   122    83    84    2
   123    83    85   am
   124    40    41    1
   125    40    39    1
   126    41    42    2
   127    39    35   am
   128    51    52    2
   129    51    54   am
   130    26    25    2
   131    67    68    1
   132    62    68    1
   133    61    59   am
   134    54    55    1
   135    35    34    1
   136    35    36    2
   137    10     9   ar
   138    10     8   ar
   139    34    33    1
   140    34    37    1
   141    25    33   am
   142    25    24    1
   143    59    60    2
   144    59    58    1
   145     9     7   ar
   146    27    24    1
   147    27    28    1
   148    29    28   ar
   149    29    31   ar
   150    55    58    1
   151    55    56    1
   152    38    37    1
   153    20    18   ar
   154    20    21   ar
   155     8     6   ar
   156    18    16   ar
   157    24    23    1
   158    28    30   ar
   159    31    32   ar
   160    22    21    1
   161     7     6   ar
   162    21    19   ar
   163    56    57    2
   164     6     5    1
   165    16    15    1
   166    16    17   ar
   167    30    32   ar
   168    15    12    1
   169    14    13    2
   170    19    17   ar
   171     5     2    1
   172     2     3    1
   173     2     1    1
   174    11    12    1
   175    12    13    1
   176     3     4    2
