@<TRIPOS>MOLECULE
tmp/3l9wB02.pdb
 86 82 0 0 0
SMALL
GASTEIGER

@<TRIPOS>ATOM
      1  N        -34.9070   22.3760   -7.3430 N.3    76  PRO76      -0.2116
      2  CA       -35.5940   21.1250   -7.0530 C.3    76  PRO76       0.1372
      3  C        -36.9350   21.2950   -6.2940 C.2    76  PRO76       0.2244
      4  O        -37.9190   20.6470   -6.6390 O.2    76  PRO76      -0.2868
      5  CB       -34.5820   20.3570   -6.2230 C.3    76  PRO76       0.0268
      6  CG       -33.2780   20.9010   -6.6780 C.3    76  PRO76       0.0207
      7  CD       -33.5090   22.3370   -6.8680 C.3    76  PRO76       0.0892
      8  N        -32.3760   17.2850  -10.5120 N.3   100  ARG100     -0.1231
      9  CA       -31.0620   17.8560  -10.2070 C.3   100  ARG100      0.1694
     10  C        -30.0150   16.7500   -9.9080 C.2   100  ARG100      0.2592
     11  O        -28.8340   16.8220  -10.3570 O.2   100  ARG100     -0.2718
     12  CB       -31.2100   18.8250   -9.0010 C.3   100  ARG100      0.0321
     13  CG       -29.8160   19.3430   -8.6090 C.3   100  ARG100      0.0489
     14  CD       -29.7480   20.7210   -8.0310 C.3   100  ARG100      0.2205
     15  NE       -28.3290   20.9920   -7.6970 N.pl3 100  ARG100     -0.0865
     16  CZ       -27.4770   21.7670   -8.3760 C.cat 100  ARG100      0.5346
     17  NH1      -27.8380   22.4320   -9.4750 N.pl3 100  ARG100      0.1354
     18  NH2      -26.2230   21.8870   -7.9170 N.pl3 100  ARG100      0.1354
     19  N        -30.3960   15.7280   -9.1290 N.am  101  ASP101     -0.1960
     20  CA       -29.4660   14.7500   -8.5660 C.3   101  ASP101      0.1840
     21  C        -30.2590   13.5530   -8.1210 C.2   101  ASP101      0.2622
     22  O        -31.5010   13.4590   -8.3880 O.2   101  ASP101     -0.2715
     23  CB       -28.7340   15.4050   -7.3650 C.3   101  ASP101      0.1450
     24  CG       -29.6980   15.9760   -6.3010 C.2   101  ASP101      0.3671
     25  OD1      -30.9090   15.6260   -6.2490 O.co2 101  ASP101     -0.2456
     26  OD2      -29.2420   16.8550   -5.5280 O.co2 101  ASP101     -0.2456
     27  N        -29.6140   12.6540   -7.4080 N.am  102  VAL102     -0.1963
     28  CA       -30.2770   11.4100   -7.0210 C.3   102  VAL102      0.1727
     29  C        -31.4090   11.6380   -6.0220 C.2   102  VAL102      0.2616
     30  O        -32.4520   11.0370   -6.1660 O.2   102  VAL102     -0.2715
     31  CB       -29.2890   10.3570   -6.4480 C.3   102  VAL102      0.0290
     32  CG1      -30.0370    9.2450   -5.7960 C.3   102  VAL102      0.0023
     33  CG2      -28.4040    9.7540   -7.5800 C.3   102  VAL102      0.0023
     34  N        -31.2130   12.5150   -5.0380 N.am  103  ASP103     -0.1971
     35  CA       -32.3090   12.7820   -4.0510 C.3   103  ASP103      0.1709
     36  C        -33.5740   13.3100   -4.7610 C.2   103  ASP103      0.2293
     37  O        -34.6880   12.8350   -4.5230 O.2   103  ASP103     -0.2864
     38  CB       -31.8420   13.7510   -2.9620 C.3   103  ASP103      0.1436
     39  CG       -30.9620   13.0640   -1.9180 C.2   103  ASP103      0.3671
     40  OD1      -30.5850   11.8920   -2.1300 O.co2 103  ASP103     -0.2456
     41  OD2      -30.6630   13.6760   -0.8570 O.co2 103  ASP103     -0.2456
     42  N        -31.7830   12.8950  -14.6700 N.3   118  ARG118     -0.1245
     43  CA       -30.7980   13.6100  -13.8950 C.3   118  ARG118      0.1563
     44  C        -29.9740   14.4730  -14.8160 C.2   118  ARG118      0.2260
     45  O        -29.3490   13.9340  -15.7900 O.2   118  ARG118     -0.2867
     46  CB       -29.9070   12.6490  -13.1360 C.3   118  ARG118      0.0307
     47  CG       -30.6730   11.9400  -12.0020 C.3   118  ARG118      0.0489
     48  CD       -29.8160   10.8390  -11.4600 C.3   118  ARG118      0.2205
     49  NE       -29.9150    9.6680  -12.3470 N.pl3 118  ARG118     -0.0865
     50  CZ       -29.1610    8.5820  -12.2920 C.cat 118  ARG118      0.5346
     51  NH1      -28.1680    8.4510  -11.3810 N.pl3 118  ARG118      0.1354
     52  NH2      -29.3710    7.6180  -13.1770 N.pl3 118  ARG118      0.1354
     53  N        -27.1640   16.1880  -15.2240 N.3   120  THR120     -0.1203
     54  CA       -25.7440   16.0840  -15.6970 C.3   120  THR120      0.1994
     55  C        -25.2920   14.6730  -15.9960 C.2   120  THR120      0.2617
     56  O        -24.1390   14.4860  -16.3580 O.2   120  THR120     -0.2717
     57  CB       -24.7630   16.6850  -14.6460 C.3   120  THR120      0.1784
     58  OG1      -24.9370   15.9490  -13.4560 O.3   120  THR120     -0.2211
     59  CG2      -25.0080   18.1720  -14.4300 C.3   120  THR120      0.0376
     60  N        -26.1660   13.6730  -15.7920 N.am  121  PHE121     -0.1975
     61  CA       -25.8160   12.2790  -15.7470 C.3   121  PHE121      0.1639
     62  C        -25.2540   11.7990  -17.1160 C.2   121  PHE121      0.2290
     63  O        -24.1330   11.2050  -17.2040 O.2   121  PHE121     -0.2864
     64  CB       -27.0340   11.3940  -15.3650 C.3   121  PHE121      0.0560
     65  CG       -26.7150    9.9300  -15.3310 C.ar  121  PHE121     -0.0200
     66  CD1      -27.0770    9.1100  -16.3820 C.ar  121  PHE121     -0.0042
     67  CD2      -26.0120    9.3650  -14.2620 C.ar  121  PHE121     -0.0042
     68  CE1      -26.7510    7.7500  -16.3660 C.ar  121  PHE121     -0.0003
     69  CE2      -25.6900    8.0380  -14.2360 C.ar  121  PHE121     -0.0003
     70  CZ       -26.0360    7.2140  -15.2950 C.ar  121  PHE121     -0.0000
     71  N        -26.4410    1.5470  -12.5710 N.3   153  ASN153     -0.1240
     72  CA       -26.7360    2.7710  -11.8540 C.3   153  ASN153      0.1653
     73  C        -28.2500    2.9880  -11.7400 C.2   153  ASN153      0.2266
     74  O        -28.7680    3.3010  -10.6700 O.2   153  ASN153     -0.2867
     75  CB       -26.0810    3.9820  -12.5200 C.3   153  ASN153      0.1155
     76  CG       -26.3590    5.2580  -11.7870 C.2   153  ASN153      0.2627
     77  OD1      -27.3240    5.9870  -12.0860 O.2   153  ASN153     -0.2716
     78  ND2      -25.5220    5.5410  -10.7860 N.am  153  ASN153     -0.0877
     79  N        -29.6640    0.5950   -9.2740 N.3   156  MET156     -0.1245
     80  CA       -29.3820    1.0500   -7.9060 C.3   156  MET156      0.1570
     81  C        -30.2940    2.1990   -7.4590 C.2   156  MET156      0.2261
     82  O        -30.8510    2.1730   -6.3190 O.2   156  MET156     -0.2867
     83  CB       -27.9340    1.4630   -7.7910 C.3   156  MET156      0.0387
     84  CG       -27.6430    2.1780   -6.4920 C.3   156  MET156      0.0595
     85  SD       -25.9360    2.6590   -6.5440 S.3   156  MET156     -0.1393
     86  CE       -26.1010    4.2760   -7.3030 C.3   156  MET156      0.0692
@<TRIPOS>BOND
     1    63    62    2
     2    62    61    1
     3    66    68   ar
     4    66    65   ar
     5    68    70   ar
     6    56    55    2
     7    55    60   am
     8    55    54    1
     9    60    61    1
    10    45    44    2
    11    61    64    1
    12    54    53    1
    13    54    57    1
    14    64    65    1
    15    65    67   ar
    16    70    69   ar
    17    44    43    1
    18    42    43    1
    19    57    59    1
    20    57    58    1
    21    67    69   ar
    22    43    46    1
    23    52    50    1
    24    46    47    1
    25    71    72    1
    26    75    72    1
    27    75    76    1
    28    49    50    2
    29    49    48    1
    30    50    51    1
    31    77    76    2
    32    47    48    1
    33    72    73    1
    34    76    78   am
    35    73    74    2
    36     8     9    1
    37    11    10    2
    38     9    10    1
    39     9    12    1
    40    10    19   am
    41    17    16    1
    42    79    80    1
    43    19    20    1
    44    12    13    1
    45    13    14    1
    46    20    21    1
    47    20    23    1
    48    22    21    2
    49    16    18    1
    50    16    15    2
    51    21    27   am
    52    14    15    1
    53    80    83    1
    54    80    81    1
    55    83    84    1
    56    33    31    1
    57    81    82    2
    58    27    28    1
    59    23    24    1
    60     1     2    1
    61     1     7    1
    62    86    85    1
    63     2     3    1
    64     2     5    1
    65    28    31    1
    66    28    29    1
    67     7     6    1
    68     6     5    1
    69     4     3    2
    70    85    84    1
    71    31    32    1
    72    24    25   ar
    73    24    26   ar
    74    30    29    2
    75    29    34   am
    76    34    35    1
    77    36    37    2
    78    36    35    1
    79    35    38    1
    80    38    39    1
    81    40    39   ar
    82    39    41   ar
