@<TRIPOS>MOLECULE
tmp/3l9wB01.pdb
 160 157 0 0 0
SMALL
GASTEIGER

@<TRIPOS>ATOM
      1  N        -39.9590   26.3200  -17.9470 N.3     8  GLY8       -0.1210
      2  CA       -38.5550   26.7600  -17.7840 C.3     8  GLY8        0.1956
      3  C        -37.8290   26.7420  -19.1090 C.2     8  GLY8        0.2612
      4  O        -37.9050   25.7370  -19.8320 O.2     8  GLY8       -0.2717
      5  N        -37.1630   27.8350  -19.4650 N.am    9  PHE9       -0.1962
      6  CA       -36.5840   27.9260  -20.7930 C.3     9  PHE9        0.1771
      7  C        -35.1620   28.4040  -20.6500 C.2     9  PHE9        0.2620
      8  O        -34.7180   29.3030  -21.3610 O.2     9  PHE9       -0.2715
      9  CB       -37.3940   28.8310  -21.7230 C.3     9  PHE9        0.0574
     10  CG       -37.2790   28.4680  -23.1640 C.ar    9  PHE9       -0.0200
     11  CD1      -36.6560   29.3560  -24.0470 C.ar    9  PHE9       -0.0042
     12  CD2      -37.7750   27.2410  -23.6510 C.ar    9  PHE9       -0.0042
     13  CE1      -36.5440   29.0350  -25.4250 C.ar    9  PHE9       -0.0003
     14  CE2      -37.6890   26.9230  -25.0100 C.ar    9  PHE9       -0.0003
     15  CZ       -37.0770   27.8230  -25.9080 C.ar    9  PHE9       -0.0000
     16  N        -34.4910   27.8280  -19.6520 N.am   10  GLY10      -0.1940
     17  CA       -33.0490   28.0720  -19.4510 C.3    10  GLY10       0.2014
     18  C        -32.2410   27.1750  -20.3820 C.2    10  GLY10       0.2639
     19  O        -32.7330   26.7290  -21.4200 O.2    10  GLY10      -0.2714
     20  N        -30.9920   26.8690  -20.0000 N.am   11  ARG11      -0.1963
     21  CA       -30.1410   25.9810  -20.8450 C.3    11  ARG11       0.1729
     22  C        -30.8060   24.6490  -21.1770 C.2    11  ARG11       0.2616
     23  O        -30.7080   24.1500  -22.3170 O.2    11  ARG11      -0.2715
     24  CB       -28.8150   25.6940  -20.1370 C.3    11  ARG11       0.0348
     25  CG       -28.0750   26.9450  -19.7840 C.3    11  ARG11       0.0492
     26  CD       -26.9200   26.5980  -18.7350 C.3    11  ARG11       0.2205
     27  NE       -27.5450   26.1510  -17.4710 N.pl3  11  ARG11      -0.0865
     28  CZ       -27.0430   25.2670  -16.6030 C.cat  11  ARG11       0.5346
     29  NH1      -25.8580   24.7080  -16.8030 N.pl3  11  ARG11       0.1354
     30  NH2      -27.7550   24.9470  -15.5190 N.pl3  11  ARG11       0.1354
     31  N        -31.4770   24.0550  -20.1900 N.am   12  PHE12      -0.1960
     32  CA       -32.0670   22.7880  -20.3340 C.3    12  PHE12       0.1771
     33  C        -33.3300   22.8720  -21.2100 C.2    12  PHE12       0.2620
     34  O        -33.4140   22.1940  -22.2570 O.2    12  PHE12      -0.2715
     35  CB       -32.4070   22.2470  -18.9260 C.3    12  PHE12       0.0574
     36  CG       -32.6800   20.7990  -18.8920 C.ar   12  PHE12      -0.0200
     37  CD1      -33.9380   20.2910  -19.3060 C.ar   12  PHE12      -0.0042
     38  CD2      -31.7140   19.9300  -18.4430 C.ar   12  PHE12      -0.0042
     39  CE1      -34.2170   18.9140  -19.2060 C.ar   12  PHE12      -0.0003
     40  CE2      -31.9510   18.5920  -18.3500 C.ar   12  PHE12      -0.0003
     41  CZ       -33.2220   18.0710  -18.7670 C.ar   12  PHE12      -0.0000
     42  N        -34.3060   23.6670  -20.7650 N.am   13  GLY13      -0.1954
     43  CA       -35.6000   23.7550  -21.5180 C.3    13  GLY13       0.1869
     44  C        -35.3800   24.2640  -22.9440 C.2    13  GLY13       0.2309
     45  O        -36.1050   23.8560  -23.8780 O.2    13  GLY13      -0.2863
     46  N        -43.8070   28.2760  -20.2530 N.3    30  LEU30      -0.1231
     47  CA       -44.0190   29.0310  -19.0240 C.3    30  LEU30       0.1693
     48  C        -42.6070   29.3720  -18.5590 C.2    30  LEU30       0.2592
     49  O        -41.8150   28.4720  -18.3670 O.2    30  LEU30      -0.2718
     50  CB       -44.6400   28.1070  -18.0060 C.3    30  LEU30       0.0284
     51  CG       -46.0510   27.6000  -18.3000 C.3    30  LEU30       0.0019
     52  CD1      -46.4180   26.4140  -17.3750 C.3    30  LEU30       0.0001
     53  CD2      -46.9870   28.7630  -18.0190 C.3    30  LEU30       0.0001
     54  N        -42.2770   30.6450  -18.4460 N.am   31  ASP31      -0.1960
     55  CA       -40.9360   31.0130  -18.0190 C.3    31  ASP31       0.1840
     56  C        -41.0970   32.3520  -17.3240 C.2    31  ASP31       0.2622
     57  O        -42.0410   33.0810  -17.5810 O.2    31  ASP31      -0.2715
     58  CB       -39.9810   31.1010  -19.2320 C.3    31  ASP31       0.1450
     59  CG       -38.4960   31.1910  -18.8460 C.2    31  ASP31       0.3671
     60  OD1      -37.8960   32.2110  -19.1740 O.co2  31  ASP31      -0.2456
     61  OD2      -37.9270   30.2710  -18.2150 O.co2  31  ASP31      -0.2456
     62  N        -40.1700   32.6460  -16.4350 N.am   32  HIS32      -0.1959
     63  CA       -40.2660   33.8340  -15.6040 C.3    32  HIS32       0.1787
     64  C        -38.9400   34.5670  -15.5980 C.2    32  HIS32       0.2620
     65  O        -38.6510   35.3290  -14.6800 O.2    32  HIS32      -0.2715
     66  CB       -40.6460   33.4260  -14.1800 C.3    32  HIS32       0.0785
     67  CG       -41.2460   34.5350  -13.3750 C.ar   32  HIS32       0.0821
     68  ND1      -41.9620   35.5730  -13.9450 N.ar   32  HIS32      -0.2267
     69  CD2      -41.2730   34.7480  -12.0360 C.ar   32  HIS32       0.1154
     70  CE1      -42.3800   36.3920  -12.9920 C.ar   32  HIS32       0.1986
     71  NE2      -41.9780   35.9120  -11.8260 N.ar   32  HIS32      -0.2212
     72  N        -38.1300   34.3520  -16.6250 N.am   33  ASP33      -0.1971
     73  CA       -36.8440   35.0100  -16.7050 C.3    33  ASP33       0.1709
     74  C        -36.8430   36.0580  -17.8380 C.2    33  ASP33       0.2293
     75  O        -36.9820   35.7010  -19.0240 O.2    33  ASP33      -0.2864
     76  CB       -35.7780   33.9540  -16.9350 C.3    33  ASP33       0.1436
     77  CG       -34.3860   34.5000  -16.8520 C.2    33  ASP33       0.3671
     78  OD1      -34.1950   35.7270  -16.9190 O.co2  33  ASP33      -0.2456
     79  OD2      -33.4630   33.6780  -16.7380 O.co2  33  ASP33      -0.2456
     80  N        -34.8650   35.5860  -21.2210 N.3    36  HIS36      -0.1241
     81  CA       -35.2880   34.5790  -22.2110 C.3    36  HIS36       0.1621
     82  C        -36.3480   35.0960  -23.1610 C.2    36  HIS36       0.2264
     83  O        -36.6850   34.4200  -24.1210 O.2    36  HIS36      -0.2867
     84  CB       -35.8690   33.3340  -21.5340 C.3    36  HIS36       0.0745
     85  CG       -34.9240   32.6640  -20.5910 C.ar   36  HIS36       0.0817
     86  ND1      -33.5630   32.6630  -20.7840 N.ar   36  HIS36      -0.2268
     87  CD2      -35.1460   31.9410  -19.4730 C.ar   36  HIS36       0.1154
     88  CE1      -32.9810   31.9940  -19.8100 C.ar   36  HIS36       0.1986
     89  NE2      -33.9150   31.5410  -19.0020 N.ar   36  HIS36      -0.2212
     90  N        -44.4120   34.1430  -16.0910 N.3    50  GLY50      -0.1210
     91  CA       -44.7660   34.0610  -14.6880 C.3    50  GLY50       0.1956
     92  C        -44.2700   32.7710  -14.0760 C.2    50  GLY50       0.2612
     93  O        -43.5480   32.0000  -14.7190 O.2    50  GLY50      -0.2717
     94  N        -44.6310   32.5820  -12.8100 N.am   51  ASP51      -0.1959
     95  CA       -44.3660   31.3780  -12.0380 C.3    51  ASP51       0.1840
     96  C        -45.2180   30.2140  -12.5430 C.2    51  ASP51       0.2622
     97  O        -46.4510   30.2530  -12.4370 O.2    51  ASP51      -0.2715
     98  CB       -44.7010   31.7000  -10.5710 C.3    51  ASP51       0.1450
     99  CG       -44.2540   30.6490   -9.6050 C.2    51  ASP51       0.3671
    100  OD1      -43.9560   29.4870   -9.9810 O.co2  51  ASP51      -0.2456
    101  OD2      -44.2020   30.9950   -8.3990 O.co2  51  ASP51      -0.2456
    102  N        -44.5560   29.1620  -13.0710 N.am   52  ALA52      -0.1963
    103  CA       -45.2450   28.0150  -13.6340 C.3    52  ALA52       0.1728
    104  C        -46.0670   27.2640  -12.6170 C.2    52  ALA52       0.2616
    105  O        -46.8560   26.4260  -12.9900 O.2    52  ALA52      -0.2715
    106  CB       -44.2700   27.0220  -14.3000 C.3    52  ALA52       0.0334
    107  N        -45.8210   27.4980  -11.3240 N.am   53  THR53      -0.1951
    108  CA       -46.5250   26.7050  -10.3230 C.3    53  THR53       0.1897
    109  C        -47.9250   27.2830  -10.0810 C.2    53  THR53       0.2313
    110  O        -48.7160   26.6270   -9.3870 O.2    53  THR53      -0.2863
    111  CB       -45.7590   26.6440   -8.9790 C.3    53  THR53       0.1794
    112  OG1      -45.5290   27.9690   -8.5380 O.3    53  THR53      -0.2208
    113  CG2      -44.4120   25.9570   -9.1760 C.3    53  THR53       0.0378
    114  N        -38.7980   21.4770  -16.8930 N.3    72  ALA72      -0.1231
    115  CA       -37.3650   21.7950  -17.0330 C.3    72  ALA72       0.1694
    116  C        -36.9220   22.8290  -15.9830 C.2    72  ALA72       0.2592
    117  O        -35.9210   23.5800  -16.1800 O.2    72  ALA72      -0.2718
    118  CB       -37.1090   22.3090  -18.4820 C.3    72  ALA72       0.0304
    119  N        -37.6890   22.9290  -14.8800 N.am   73  ILE73      -0.1966
    120  CA       -37.3080   23.8790  -13.8000 C.3    73  ILE73       0.1727
    121  C        -36.1000   23.3480  -13.0380 C.2    73  ILE73       0.2616
    122  O        -36.0330   22.1820  -12.7290 O.2    73  ILE73      -0.2715
    123  CB       -38.4920   24.1240  -12.8150 C.3    73  ILE73       0.0290
    124  CG1      -39.6170   24.8820  -13.5690 C.3    73  ILE73       0.0022
    125  CG2      -38.0180   24.9020  -11.5220 C.3    73  ILE73       0.0023
    126  CD1      -40.9180   24.9810  -12.8100 C.3    73  ILE73       0.0001
    127  N        -35.1500   24.2390  -12.7960 N.am   74  ASP74      -0.1957
    128  CA       -33.8230   23.9160  -12.1970 C.3    74  ASP74       0.1840
    129  C        -33.9240   23.6930  -10.6850 C.2    74  ASP74       0.2622
    130  O        -33.3500   22.7360  -10.1580 O.2    74  ASP74      -0.2715
    131  CB       -32.8890   25.0910  -12.4570 C.3    74  ASP74       0.1450
    132  CG       -31.4170   24.7850  -12.1620 C.2    74  ASP74       0.3671
    133  OD1      -31.0800   23.6290  -11.7640 O.co2  74  ASP74      -0.2456
    134  OD2      -30.5750   25.7260  -12.3570 O.co2  74  ASP74      -0.2456
    135  N        -34.6500   24.5830  -10.0190 N.am   75  ASP75      -0.1971
    136  CA       -34.7490   24.5430   -8.5290 C.3    75  ASP75       0.1709
    137  C        -35.5320   23.3150   -8.0820 C.2    75  ASP75       0.2293
    138  O        -36.7090   23.1670   -8.5040 O.2    75  ASP75      -0.2864
    139  CB       -35.4060   25.8150   -8.0200 C.3    75  ASP75       0.1436
    140  CG       -35.5790   25.7550   -6.5090 C.2    75  ASP75       0.3671
    141  OD1      -34.5320   25.6540   -5.8470 O.co2  75  ASP75      -0.2456
    142  OD2      -36.7230   25.6730   -6.0090 O.co2  75  ASP75      -0.2456
    143  N        -39.1220   23.8840   -6.3380 N.3    78  THR78      -0.1218
    144  CA       -40.0890   24.4630   -7.2840 C.3    78  THR78       0.1862
    145  C        -40.4890   23.4290   -8.3300 C.2    78  THR78       0.2287
    146  O        -41.6700   23.3620   -8.7240 O.2    78  THR78      -0.2866
    147  CB       -39.5260   25.6980   -7.9940 C.3    78  THR78       0.1770
    148  OG1      -39.1590   26.6460   -6.9990 O.3    78  THR78      -0.2211
    149  CG2      -40.5670   26.3790   -8.9220 C.3    78  THR78       0.0375
    150  N        -36.9420   17.0940  -15.6100 N.3    98  ARG98      -0.1245
    151  CA       -35.5270   17.2440  -15.2160 C.3    98  ARG98       0.1563
    152  C        -35.3450   16.9160  -13.7060 C.2    98  ARG98       0.2260
    153  O        -36.1700   17.3560  -12.8890 O.2    98  ARG98      -0.2867
    154  CB       -35.2490   18.6870  -15.4340 C.3    98  ARG98       0.0307
    155  CG       -33.8980   19.2070  -15.0090 C.3    98  ARG98       0.0489
    156  CD       -33.9070   20.6380  -15.1300 C.3    98  ARG98       0.2205
    157  NE       -32.5640   21.2180  -14.8660 N.pl3  98  ARG98      -0.0865
    158  CZ       -32.2170   22.4310  -15.2690 C.cat  98  ARG98       0.5346
    159  NH1      -33.0580   23.2350  -15.8710 N.pl3  98  ARG98       0.1354
    160  NH2      -30.9790   22.8870  -15.0280 N.pl3  98  ARG98       0.1354
@<TRIPOS>BOND
     1    15    13   ar
     2    15    14   ar
     3    13    11   ar
     4    14    12   ar
     5    83    82    2
     6    11    10   ar
     7    45    44    2
     8    12    10   ar
     9    10     9    1
    10    82    81    1
    11    44    43    1
    12    23    22    2
    13    34    33    2
    14    81    84    1
    15    81    80    1
    16     9     6    1
    17    84    85    1
    18    43    42    1
    19    19    18    2
    20     8     7    2
    21    33    42   am
    22    33    32    1
    23    22    21    1
    24    22    31   am
    25    21    24    1
    26    21    20    1
    27     6     7    1
    28     6     5    1
    29    86    85   ar
    30    86    88   ar
    31     7    16   am
    32    85    87   ar
    33    18    20   am
    34    18    17    1
    35    32    31    1
    36    32    35    1
    37    46    47    1
    38    24    25    1
    39     4     3    2
    40    88    89   ar
    41    25    26    1
    42    16    17    1
    43    87    89   ar
    44     5     3   am
    45    37    39   ar
    46    37    36   ar
    47    58    59    1
    48    58    55    1
    49    39    41   ar
    50    60    59   ar
    51     3     2    1
    52    75    74    2
    53    47    48    1
    54    47    50    1
    55    35    36    1
    56    36    38   ar
    57    59    61   ar
    58    41    40   ar
    59    26    27    1
    60    48    54   am
    61    48    49    2
    62   118   115    1
    63    54    55    1
    64    38    40   ar
    65    51    53    1
    66    51    50    1
    67    51    52    1
    68    55    56    1
    69     1     2    1
    70    74    73    1
    71    57    56    2
    72    27    28    2
    73    56    62   am
    74   115   114    1
    75   115   116    1
    76    76    77    1
    77    76    73    1
    78    78    77   ar
    79    77    79   ar
    80    29    28    1
    81    73    72    1
    82    72    64   am
    83    28    30    1
    84    62    63    1
    85   117   116    2
    86    90    91    1
    87   116   119   am
    88   159   158    1
    89   150   151    1
    90    63    64    1
    91    63    66    1
    92    64    65    2
    93   154   151    1
    94   154   155    1
    95   158   160    1
    96   158   157    2
    97   151   152    1
    98   156   155    1
    99   156   157    1
   100   119   120    1
   101    93    92    2
   102    91    92    1
   103   106   103    1
   104    66    67    1
   105    92    94   am
   106    68    67   ar
   107    68    70   ar
   108   120   121    1
   109   120   123    1
   110   152   153    2
   111   103   102    1
   112   103   104    1
   113   124   123    1
   114   124   126    1
   115    67    69   ar
   116   102    96   am
   117   121   127   am
   118   121   122    2
   119    70    71   ar
   120   105   104    2
   121   123   125    1
   122    94    95    1
   123   127   128    1
   124   104   107   am
   125    96    97    2
   126    96    95    1
   127   131   128    1
   128   131   132    1
   129   134   132   ar
   130   128   129    1
   131   132   133   ar
   132    95    98    1
   133    69    71   ar
   134   107   108    1
   135   129   130    2
   136   129   135   am
   137    98    99    1
   138   108   109    1
   139   108   111    1
   140   109   110    2
   141   135   136    1
   142   100    99   ar
   143    99   101   ar
   144   113   111    1
   145   111   112    1
   146   149   147    1
   147   146   145    2
   148   136   137    1
   149   136   139    1
   150   138   137    2
   151   145   144    1
   152   139   140    1
   153   147   144    1
   154   147   148    1
   155   144   143    1
   156   140   142   ar
   157   140   141   ar
