@<TRIPOS>MOLECULE
tmp/3l9xB00.pdb
 94 89 0 0 0
SMALL
GASTEIGER

@<TRIPOS>ATOM
      1  N        -34.9340   23.2900   -7.5910 N.3    75  PRO75      -0.2116
      2  CA       -35.6260   22.0530   -7.2530 C.3    75  PRO75       0.1372
      3  C        -36.9800   22.2310   -6.5170 C.2    75  PRO75       0.2244
      4  O        -37.9040   21.4430   -6.7410 O.2    75  PRO75      -0.2868
      5  CB       -34.6200   21.3030   -6.3620 C.3    75  PRO75       0.0268
      6  CG       -33.2900   21.8790   -6.7060 C.3    75  PRO75       0.0207
      7  CD       -33.5610   23.3350   -7.0340 C.3    75  PRO75       0.0892
      8  N        -32.4380   18.1300  -10.6650 N.3    99  ARG99      -0.1231
      9  CA       -31.1260   18.6170  -10.2900 C.3    99  ARG99       0.1694
     10  C        -30.1440   17.4860   -9.9580 C.2    99  ARG99       0.2592
     11  O        -29.0000   17.4970  -10.4480 O.2    99  ARG99      -0.2718
     12  CB       -31.2350   19.6720   -9.1680 C.3    99  ARG99       0.0321
     13  CG       -29.8900   20.1580   -8.6040 C.3    99  ARG99       0.0489
     14  CD       -29.8080   21.6680   -8.4570 C.3    99  ARG99       0.2205
     15  NE       -28.4700   22.0020   -7.9270 N.pl3  99  ARG99      -0.0865
     16  CZ       -27.5410   22.7390   -8.5430 C.cat  99  ARG99       0.5346
     17  NH1      -27.7790   23.3080   -9.7260 N.pl3  99  ARG99       0.1354
     18  NH2      -26.3630   22.9170   -7.9550 N.pl3  99  ARG99       0.1354
     19  N        -30.5880   16.4900   -9.1800 N.am  100  ASP100     -0.1960
     20  CA       -29.6910   15.4820   -8.5890 C.3   100  ASP100      0.1840
     21  C        -30.4660   14.2470   -8.1850 C.2   100  ASP100      0.2622
     22  O        -31.6590   14.1340   -8.5040 O.2   100  ASP100     -0.2715
     23  CB       -28.9440   16.0720   -7.3710 C.3   100  ASP100      0.1450
     24  CG       -29.8920   16.7000   -6.3180 C.2   100  ASP100      0.3671
     25  OD1      -31.0990   16.3810   -6.2720 O.co2 100  ASP100     -0.2456
     26  OD2      -29.4020   17.5010   -5.4990 O.co2 100  ASP100     -0.2456
     27  N        -29.8340   13.3480   -7.4330 N.am  101  VAL101     -0.1963
     28  CA       -30.4830   12.0950   -7.0610 C.3   101  VAL101      0.1727
     29  C        -31.7120   12.3450   -6.1460 C.2   101  VAL101      0.2616
     30  O        -32.7730   11.7530   -6.3490 O.2   101  VAL101     -0.2715
     31  CB       -29.4970   11.0520   -6.4670 C.3   101  VAL101      0.0290
     32  CG1      -30.2290    9.9160   -5.7490 C.3   101  VAL101      0.0023
     33  CG2      -28.6020   10.4650   -7.5660 C.3   101  VAL101      0.0023
     34  N        -31.5760   13.2670   -5.2010 N.am  102  ASP102     -0.1971
     35  CA       -32.6490   13.5180   -4.2330 C.3   102  ASP102      0.1709
     36  C        -33.8730   14.1470   -4.9270 C.2   102  ASP102      0.2293
     37  O        -34.9900   13.7710   -4.6600 O.2   102  ASP102     -0.2864
     38  CB       -32.1570   14.4500   -3.1240 C.3   102  ASP102      0.1436
     39  CG       -31.3080   13.7360   -2.0690 C.2   102  ASP102      0.3671
     40  OD1      -31.3490   12.4860   -1.9390 O.co2 102  ASP102     -0.2456
     41  OD2      -30.5880   14.4560   -1.3370 O.co2 102  ASP102     -0.2456
     42  N        -31.9010   13.6560  -14.7620 N.3   117  ARG117     -0.1245
     43  CA       -30.8550   14.3640  -13.9850 C.3   117  ARG117      0.1563
     44  C        -30.0230   15.2410  -14.9400 C.2   117  ARG117      0.2260
     45  O        -29.4350   14.7480  -15.8970 O.2   117  ARG117     -0.2867
     46  CB       -29.9770   13.3520  -13.2610 C.3   117  ARG117      0.0307
     47  CG       -30.6660   12.7520  -12.0210 C.3   117  ARG117      0.0489
     48  CD       -29.9090   11.5300  -11.5410 C.3   117  ARG117      0.2205
     49  NE       -30.0970   10.3960  -12.4430 N.pl3 117  ARG117     -0.0865
     50  CZ       -29.3370    9.3010  -12.4170 C.cat 117  ARG117      0.5346
     51  NH1      -28.3220    9.2080  -11.5500 N.pl3 117  ARG117      0.1354
     52  NH2      -29.5920    8.2930  -13.2410 N.pl3 117  ARG117      0.1354
     53  N        -27.2410   16.8550  -15.4080 N.3   119  THR119     -0.1203
     54  CA       -25.8100   16.8480  -15.8250 C.3   119  THR119      0.1994
     55  C        -25.3420   15.4320  -16.0790 C.2   119  THR119      0.2617
     56  O        -24.2090   15.2110  -16.5310 O.2   119  THR119     -0.2717
     57  CB       -24.8330   17.5110  -14.8060 C.3   119  THR119      0.1784
     58  OG1      -24.8360   16.8070  -13.5410 O.3   119  THR119     -0.2211
     59  CG2      -25.1330   18.9930  -14.6040 C.3   119  THR119      0.0376
     60  N        -26.2360   14.4670  -15.8640 N.am  120  PHE120     -0.1975
     61  CA       -25.8590   13.0680  -15.8770 C.3   120  PHE120      0.1639
     62  C        -25.2570   12.5860  -17.2250 C.2   120  PHE120      0.2290
     63  O        -24.1160   12.0640  -17.2860 O.2   120  PHE120     -0.2864
     64  CB       -27.0360   12.1880  -15.4200 C.3   120  PHE120      0.0560
     65  CG       -26.7320   10.6950  -15.4060 C.ar  120  PHE120     -0.0200
     66  CD1      -27.0860    9.8970  -16.4730 C.ar  120  PHE120     -0.0042
     67  CD2      -26.1040   10.1020  -14.3170 C.ar  120  PHE120     -0.0042
     68  CE1      -26.8010    8.5140  -16.4670 C.ar  120  PHE120     -0.0003
     69  CE2      -25.8160    8.7650  -14.2780 C.ar  120  PHE120     -0.0003
     70  CZ       -26.1830    7.9500  -15.3500 C.ar  120  PHE120     -0.0000
     71  N        -26.5390    2.3190  -12.7010 N.3   152  ASN152     -0.1240
     72  CA       -26.8570    3.5240  -11.9270 C.3   152  ASN152      0.1653
     73  C        -28.3800    3.7560  -11.8180 C.2   152  ASN152      0.2266
     74  O        -28.9010    3.9640  -10.7320 O.2   152  ASN152     -0.2867
     75  CB       -26.1210    4.7350  -12.5050 C.3   152  ASN152      0.1155
     76  CG       -26.3840    6.0140  -11.7430 C.2   152  ASN152      0.2627
     77  OD1      -27.3550    6.7330  -12.0300 O.2   152  ASN152     -0.2716
     78  ND2      -25.4860    6.3590  -10.8200 N.am  152  ASN152     -0.0877
     79  N        -29.9530    1.4320   -9.4640 N.3   155  MET155     -0.1245
     80  CA       -29.6240    1.8170   -8.0860 C.3   155  MET155      0.1570
     81  C        -30.4750    2.9960   -7.5920 C.2   155  MET155      0.2261
     82  O        -31.0170    2.9640   -6.4810 O.2   155  MET155     -0.2867
     83  CB       -28.1380    2.1170   -7.9590 C.3   155  MET155      0.0387
     84  CG       -27.7030    2.7010   -6.6350 C.3   155  MET155      0.0595
     85  SD       -26.0180    3.3390   -6.7300 S.3   155  MET155     -0.1393
     86  CE       -26.2640    5.0580   -7.2560 C.3   155  MET155      0.0692
     87  N        -33.3850    3.1290   -4.5410 N.3   159  MET159     -0.1245
     88  CA       -33.4400    4.1380   -3.5080 C.3   159  MET159      0.1570
     89  C        -34.7860    4.8450   -3.4760 C.2   159  MET159      0.2261
     90  O        -35.2470    5.2240   -2.4170 O.2   159  MET159     -0.2867
     91  CB       -32.3310    5.1560   -3.7010 C.3   159  MET159      0.0387
     92  CG       -30.9440    4.5900   -3.6400 C.3   159  MET159      0.0595
     93  SD       -29.7470    5.8830   -3.9840 S.3   159  MET159     -0.1393
     94  CE       -28.2470    5.0310   -3.5010 C.3   159  MET159      0.0692
@<TRIPOS>BOND
     1    63    62    2
     2    62    61    1
     3    56    55    2
     4    66    68   ar
     5    66    65   ar
     6    68    70   ar
     7    55    60   am
     8    55    54    1
     9    45    44    2
    10    61    60    1
    11    61    64    1
    12    54    53    1
    13    54    57    1
    14    64    65    1
    15    65    67   ar
    16    70    69   ar
    17    44    43    1
    18    57    59    1
    19    57    58    1
    20    42    43    1
    21    67    69   ar
    22    43    46    1
    23    46    47    1
    24    52    50    1
    25    71    72    1
    26    75    72    1
    27    75    76    1
    28    49    50    2
    29    49    48    1
    30    50    51    1
    31    77    76    2
    32    47    48    1
    33    72    73    1
    34    73    74    2
    35    76    78   am
    36     8     9    1
    37    11    10    2
    38     9    10    1
    39     9    12    1
    40    10    19   am
    41    17    16    1
    42    79    80    1
    43    19    20    1
    44    12    13    1
    45    13    14    1
    46    20    21    1
    47    20    23    1
    48    16    18    1
    49    16    15    2
    50    22    21    2
    51    14    15    1
    52    21    27   am
    53    80    83    1
    54    80    81    1
    55    83    84    1
    56    81    82    2
    57     1     2    1
    58     1     7    1
    59    33    31    1
    60    27    28    1
    61    23    24    1
    62    86    85    1
    63     2     3    1
    64     2     5    1
    65    28    31    1
    66    28    29    1
    67     7     6    1
    68     4     3    2
    69    85    84    1
    70     6     5    1
    71    31    32    1
    72    30    29    2
    73    24    25   ar
    74    24    26   ar
    75    29    34   am
    76    34    35    1
    77    36    37    2
    78    36    35    1
    79    87    88    1
    80    35    38    1
    81    93    92    1
    82    93    94    1
    83    91    92    1
    84    91    88    1
    85    88    89    1
    86    89    90    2
    87    38    39    1
    88    39    40   ar
    89    39    41   ar
