@<TRIPOS>MOLECULE
tmp/3l9xB01.pdb
 172 176 0 0 0
SMALL
GASTEIGER

@<TRIPOS>ATOM
      1  N        -38.4440   -3.9490  -36.6370 N.3   170  HIS170     -0.1241
      2  CA       -38.7770   -2.8440  -37.5300 C.3   170  HIS170      0.1621
      3  C        -38.2170   -1.5620  -36.9400 C.2   170  HIS170      0.2264
      4  O        -38.4990   -1.2620  -35.7890 O.2   170  HIS170     -0.2867
      5  CB       -40.3130   -2.7160  -37.6880 C.3   170  HIS170      0.0745
      6  CG       -40.7270   -1.9550  -38.9190 C.ar  170  HIS170      0.0817
      7  ND1      -40.2230   -0.7170  -39.2250 N.ar  170  HIS170     -0.2268
      8  CD2      -41.5840   -2.2670  -39.9240 C.ar  170  HIS170      0.1154
      9  CE1      -40.7360   -0.2950  -40.3690 C.ar  170  HIS170      0.1986
     10  NE2      -41.5710   -1.2150  -40.8140 N.ar  170  HIS170     -0.2212
     11  N        -39.0390    1.4920  -37.6240 N.3   172  TYR172     -0.1241
     12  CA       -40.1200    2.4730  -37.4250 C.3   172  TYR172      0.1605
     13  C        -41.4780    1.7870  -37.2620 C.2   172  TYR172      0.2264
     14  O        -42.3150    1.9150  -38.1260 O.2   172  TYR172     -0.2867
     15  CB       -40.1710    3.4650  -38.6040 C.3   172  TYR172      0.0534
     16  CG       -38.8260    4.0890  -38.8550 C.ar  172  TYR172     -0.0201
     17  CD1      -38.3880    5.1390  -38.0580 C.ar  172  TYR172     -0.0009
     18  CD2      -37.9630    3.5950  -39.8440 C.ar  172  TYR172     -0.0009
     19  CE1      -37.1610    5.7040  -38.2280 C.ar  172  TYR172      0.0417
     20  CE2      -36.6970    4.1880  -40.0460 C.ar  172  TYR172      0.0417
     21  CZ       -36.3110    5.2360  -39.2050 C.ar  172  TYR172      0.1957
     22  OH       -35.0920    5.8580  -39.3180 O.3   172  TYR172     -0.2866
     23  N        -44.6980    3.3370  -38.3510 N.3   175  HIS175     -0.1226
     24  CA       -44.8690    3.6600  -39.7650 C.3   175  HIS175      0.1752
     25  C        -45.1800    2.4210  -40.5890 C.2   175  HIS175      0.2597
     26  O        -45.4560    2.5110  -41.7720 O.2   175  HIS175     -0.2718
     27  CB       -43.6250    4.3420  -40.3390 C.3   175  HIS175      0.0759
     28  CG       -43.3040    5.6520  -39.6950 C.ar  175  HIS175      0.0818
     29  ND1      -43.9920    6.8070  -39.9800 N.ar  175  HIS175     -0.2268
     30  CD2      -42.3580    5.9950  -38.7910 C.ar  175  HIS175      0.1154
     31  CE1      -43.4980    7.8010  -39.2630 C.ar  175  HIS175      0.1986
     32  NE2      -42.4980    7.3360  -38.5430 N.ar  175  HIS175     -0.2212
     33  N        -45.0930    1.2660  -39.9510 N.am  176  SER176     -0.1938
     34  CA       -45.2870    0.0000  -40.5970 C.3   176  SER176      0.2055
     35  C        -46.7390   -0.2350  -41.0250 C.2   176  SER176      0.2643
     36  O        -47.6770    0.2130  -40.3320 O.2   176  SER176     -0.2714
     37  CB       -44.8540   -1.0780  -39.6460 C.3   176  SER176      0.2130
     38  OG       -45.1360   -2.3360  -40.1620 O.3   176  SER176     -0.2179
     39  N        -46.9030   -0.9360  -42.1570 N.am  177  HIS177     -0.1959
     40  CA       -48.2120   -1.4680  -42.6070 C.3   177  HIS177      0.1787
     41  C        -48.2390   -2.9920  -42.5570 C.2   177  HIS177      0.2620
     42  O        -49.0480   -3.5690  -41.8430 O.2   177  HIS177     -0.2715
     43  CB       -48.5620   -0.9680  -44.0160 C.3   177  HIS177      0.0785
     44  CG       -48.5760    0.5310  -44.1330 C.ar  177  HIS177      0.0821
     45  ND1      -49.5520    1.3150  -43.5500 N.ar  177  HIS177     -0.2267
     46  CD2      -47.7270    1.3860  -44.7550 C.ar  177  HIS177      0.1154
     47  CE1      -49.3070    2.5900  -43.8120 C.ar  177  HIS177      0.1986
     48  NE2      -48.2020    2.6610  -44.5340 N.ar  177  HIS177     -0.2212
     49  N        -47.3210   -3.6410  -43.2760 N.am  178  ALA178     -0.1963
     50  CA       -47.2850   -5.1190  -43.3560 C.3   178  ALA178      0.1728
     51  C        -46.9980   -5.7950  -42.0270 C.2   178  ALA178      0.2616
     52  O        -47.8030   -6.6110  -41.5630 O.2   178  ALA178     -0.2715
     53  CB       -46.2920   -5.6020  -44.4410 C.3   178  ALA178      0.0334
     54  N        -45.8560   -5.4610  -41.4140 N.am  179  ASN179     -0.1972
     55  CA       -45.4700   -6.0190  -40.1000 C.3   179  ASN179      0.1688
     56  C        -46.4610   -5.7170  -38.9600 C.2   179  ASN179      0.2292
     57  O        -46.7120   -6.5650  -38.0920 O.2   179  ASN179     -0.2864
     58  CB       -44.0340   -5.5630  -39.7140 C.3   179  ASN179      0.1181
     59  CG       -42.9500   -6.3660  -40.4340 C.2   179  ASN179      0.2629
     60  OD1      -42.5750   -7.4390  -39.9960 O.2   179  ASN179     -0.2716
     61  ND2      -42.5030   -5.8690  -41.5710 N.am  179  ASN179     -0.0877
     62  N        -38.9810   -6.0640  -41.5420 N.3   226  PRO226     -0.2102
     63  CA       -38.9350   -5.7730  -42.9630 C.3   226  PRO226      0.1504
     64  C        -37.5010   -5.9900  -43.4670 C.2   226  PRO226      0.2576
     65  O        -36.5190   -5.6400  -42.7690 O.2   226  PRO226     -0.2718
     66  CB       -39.2800   -4.2760  -43.0300 C.3   226  PRO226      0.0282
     67  CG       -38.7760   -3.7210  -41.7450 C.3   226  PRO226      0.0208
     68  CD       -39.0330   -4.8360  -40.7240 C.3   226  PRO226      0.0893
     69  N        -37.3790   -6.5430  -44.6680 N.am  227  MET227     -0.1966
     70  CA       -36.0490   -6.7220  -45.2430 C.3   227  MET227      0.1736
     71  C        -35.4740   -5.3960  -45.7390 C.2   227  MET227      0.2616
     72  O        -36.1650   -4.6040  -46.4030 O.2   227  MET227     -0.2715
     73  CB       -36.0920   -7.7470  -46.3580 C.3   227  MET227      0.0427
     74  CG       -34.9450   -7.6180  -47.3380 C.3   227  MET227      0.0599
     75  SD       -34.7270   -9.1400  -48.2450 S.3   227  MET227     -0.1393
     76  CE       -34.1570   -8.4020  -49.7150 C.3   227  MET227      0.0692
     77  N        -34.2030   -5.1460  -45.4090 N.am  228  GLN228     -0.1963
     78  CA       -33.5160   -3.9710  -45.9010 C.3   228  GLN228      0.1733
     79  C        -32.1730   -4.3910  -46.5050 C.2   228  GLN228      0.2616
     80  O        -31.4110   -5.0730  -45.8480 O.2   228  GLN228     -0.2715
     81  CB       -33.3390   -2.9600  -44.7570 C.3   228  GLN228      0.0408
     82  CG       -34.7130   -2.4500  -44.2120 C.3   228  GLN228      0.0908
     83  CD       -34.6390   -1.7440  -42.8330 C.2   228  GLN228      0.2608
     84  OE1      -35.6350   -1.1320  -42.4090 O.2   228  GLN228     -0.2717
     85  NE2      -33.4580   -1.8250  -42.1350 N.am  228  GLN228     -0.0878
     86  N        -31.9040   -3.9700  -47.7400 N.am  229  TRP229     -0.1960
     87  CA       -30.6810   -4.3350  -48.4930 C.3   229  TRP229      0.1771
     88  C        -30.3380   -5.8200  -48.4180 C.2   229  TRP229      0.2619
     89  O        -29.2170   -6.1730  -48.0490 O.2   229  TRP229     -0.2715
     90  CB       -29.4690   -3.4670  -48.0650 C.3   229  TRP229      0.0590
     91  CG       -29.6740   -2.0430  -48.4430 C.ar  229  TRP229      0.0006
     92  CD1      -29.8990   -0.9900  -47.6000 C.ar  229  TRP229      0.0946
     93  CD2      -29.7550   -1.5160  -49.7770 C.ar  229  TRP229      0.0152
     94  NE1      -30.0900    0.1580  -48.3170 N.ar  229  TRP229     -0.2442
     95  CE2      -30.0070   -0.1310  -49.6580 C.ar  229  TRP229      0.0810
     96  CE3      -29.6400   -2.0850  -51.0600 C.ar  229  TRP229      0.0012
     97  CZ2      -30.1260    0.7200  -50.7850 C.ar  229  TRP229      0.0191
     98  CZ3      -29.7480   -1.2440  -52.1960 C.ar  229  TRP229      0.0001
     99  CH2      -30.0060    0.1510  -52.0390 C.ar  229  TRP229      0.0015
    100  N        -31.3380   -6.6810  -48.6940 N.am  230  TYR230     -0.1974
    101  CA       -31.1260   -8.1210  -48.8840 C.3   230  TYR230      0.1639
    102  C        -30.7500   -8.8230  -47.5960 C.2   230  TYR230      0.2290
    103  O        -30.2330   -9.9690  -47.6110 O.2   230  TYR230     -0.2864
    104  CB       -30.0660   -8.3840  -49.9950 C.3   230  TYR230      0.0560
    105  CG       -30.4330   -7.6520  -51.2520 C.ar  230  TYR230     -0.0198
    106  CD1      -29.9490   -6.3550  -51.4900 C.ar  230  TYR230     -0.0009
    107  CD2      -31.3380   -8.2130  -52.1570 C.ar  230  TYR230     -0.0009
    108  CE1      -30.3190   -5.6470  -52.6060 C.ar  230  TYR230      0.0417
    109  CE2      -31.7160   -7.5350  -53.2960 C.ar  230  TYR230      0.0417
    110  CZ       -31.1960   -6.2490  -53.5200 C.ar  230  TYR230      0.1957
    111  OH       -31.5820   -5.5700  -54.6310 O.3   230  TYR230     -0.2866
    112  N        -40.6500   -9.4110  -44.3630 N.3   267  THR267     -0.1203
    113  CA       -41.4050   -8.7780  -45.4280 C.3   267  THR267      0.1994
    114  C        -40.4840   -8.1000  -46.4340 C.2   267  THR267      0.2619
    115  O        -39.4330   -7.5680  -46.0840 O.2   267  THR267     -0.2717
    116  CB       -42.4400   -7.7770  -44.8790 C.3   267  THR267      0.1784
    117  OG1      -41.7780   -6.6260  -44.3540 O.3   267  THR267     -0.2211
    118  CG2      -43.2970   -8.4120  -43.7370 C.3   267  THR267      0.0376
    119  N        -40.8850   -8.1070  -47.6960 N.am  268  THR268     -0.1938
    120  CA       -40.0770   -7.4740  -48.7500 C.3   268  THR268      0.2028
    121  C        -40.9660   -6.6070  -49.6270 C.2   268  THR268      0.2643
    122  O        -42.1130   -6.9420  -49.8750 O.2   268  THR268     -0.2714
    123  CB       -39.2890   -8.5180  -49.6150 C.3   268  THR268      0.1808
    124  OG1      -40.1400   -9.0790  -50.6320 O.3   268  THR268     -0.2208
    125  CG2      -38.7250   -9.6710  -48.7360 C.3   268  THR268      0.0379
    126  N        -40.4330   -5.4900  -50.1020 N.am  269  GLY269     -0.1939
    127  CA       -41.1930   -4.6420  -50.9730 C.3   269  GLY269      0.2014
    128  C        -41.2860   -5.2140  -52.3820 C.2   269  GLY269      0.2639
    129  O        -42.3150   -5.0330  -53.0430 O.2   269  GLY269     -0.2714
    130  N        -40.2090   -5.8580  -52.8510 N.am  270  GLY270     -0.1954
    131  CA       -40.1980   -6.5070  -54.1680 C.3   270  GLY270      0.1869
    132  C        -40.8450   -7.8820  -54.1500 C.2   270  GLY270      0.2309
    133  O        -41.0140   -8.5030  -53.0800 O.2   270  GLY270     -0.2863
    134  N        -37.5500   -9.4950  -58.0540 N.3   274  HIS274     -0.1226
    135  CA       -36.6300   -8.5070  -57.4850 C.3   274  HIS274      0.1752
    136  C        -35.2790   -9.1180  -57.0660 C.2   274  HIS274      0.2596
    137  O        -34.2420   -8.4400  -57.0730 O.2   274  HIS274     -0.2718
    138  CB       -37.2980   -7.8500  -56.2580 C.3   274  HIS274      0.0759
    139  CG       -36.5640   -6.6580  -55.7250 C.ar  274  HIS274      0.0818
    140  ND1      -36.5180   -5.4530  -56.3940 N.ar  274  HIS274     -0.2268
    141  CD2      -35.8410   -6.4830  -54.5880 C.ar  274  HIS274      0.1154
    142  CE1      -35.7930   -4.5900  -55.6950 C.ar  274  HIS274      0.1986
    143  NE2      -35.3670   -5.1900  -54.5990 N.ar  274  HIS274     -0.2212
    144  N        -35.2970  -10.3990  -56.7180 N.am  275  PHE275     -0.1976
    145  CA       -34.1100  -11.0880  -56.2150 C.3   275  PHE275      0.1639
    146  C        -33.2990  -11.8210  -57.2890 C.2   275  PHE275      0.2290
    147  O        -32.4040  -12.6010  -56.9780 O.2   275  PHE275     -0.2864
    148  CB       -34.4930  -11.9670  -55.0330 C.3   275  PHE275      0.0560
    149  CG       -35.1430  -11.1720  -53.9300 C.ar  275  PHE275     -0.0200
    150  CD1      -36.5140  -11.0800  -53.8490 C.ar  275  PHE275     -0.0042
    151  CD2      -34.3690  -10.4050  -53.0750 C.ar  275  PHE275     -0.0042
    152  CE1      -37.1040  -10.3080  -52.8760 C.ar  275  PHE275     -0.0003
    153  CE2      -34.9600   -9.6120  -52.1010 C.ar  275  PHE275     -0.0003
    154  CZ       -36.3360   -9.5730  -52.0010 C.ar  275  PHE275     -0.0000
    155  N        -44.8950   -6.0250  -50.9660 N.3   310  THR310     -0.1203
    156  CA       -45.4930   -4.9700  -50.1030 C.3   310  THR310      0.1994
    157  C        -45.5160   -3.5710  -50.7530 C.2   310  THR310      0.2617
    158  O        -46.3410   -2.7380  -50.3740 O.2   310  THR310     -0.2717
    159  CB       -44.8350   -4.8660  -48.6840 C.3   310  THR310      0.1784
    160  OG1      -43.5500   -4.2410  -48.7960 O.3   310  THR310     -0.2211
    161  CG2      -44.7380   -6.2280  -47.9840 C.3   310  THR310      0.0376
    162  N        -44.6240   -3.3180  -51.7180 N.am  311  PHE311     -0.1975
    163  CA       -44.6410   -2.0600  -52.4830 C.3   311  PHE311      0.1639
    164  C        -45.9470   -1.8580  -53.2820 C.2   311  PHE311      0.2290
    165  O        -46.4270   -0.7290  -53.4220 O.2   311  PHE311     -0.2864
    166  CB       -43.4740   -1.9760  -53.4850 C.3   311  PHE311      0.0560
    167  CG       -42.1120   -1.6530  -52.8720 C.ar  311  PHE311     -0.0200
    168  CD1      -40.9390   -2.1470  -53.4730 C.ar  311  PHE311     -0.0042
    169  CD2      -41.9930   -0.8490  -51.7380 C.ar  311  PHE311     -0.0042
    170  CE1      -39.6830   -1.8730  -52.9370 C.ar  311  PHE311     -0.0003
    171  CE2      -40.7400   -0.5560  -51.1950 C.ar  311  PHE311     -0.0003
    172  CZ       -39.5850   -1.0700  -51.7920 C.ar  311  PHE311     -0.0000
@<TRIPOS>BOND
     1   134   135    1
     2   135   136    1
     3   135   138    1
     4   146   147    2
     5   146   145    1
     6   137   136    2
     7   136   144   am
     8   144   145    1
     9   140   139   ar
    10   140   142   ar
    11   138   139    1
    12   145   148    1
    13   139   141   ar
    14   142   143   ar
    15   148   149    1
    16   111   110    1
    17   143   141   ar
    18   131   132    1
    19   131   130    1
    20   132   133    2
    21   149   150   ar
    22   149   151   ar
    23   150   152   ar
    24   110   109   ar
    25   110   108   ar
    26   166   167    1
    27   166   163    1
    28   168   170   ar
    29   168   167   ar
    30   165   164    2
    31   109   107   ar
    32   164   163    1
    33   151   153   ar
    34   129   128    2
    35   170   172   ar
    36   152   154   ar
    37   167   169   ar
    38   130   128   am
    39   108   106   ar
    40   163   162    1
    41   128   127    1
    42    98    99   ar
    43    98    96   ar
    44   107   105   ar
    45   153   154   ar
    46    99    97   ar
    47   172   171   ar
    48   169   171   ar
    49   162   157   am
    50   106   105   ar
    51   105   104    1
    52    96    93   ar
    53   127   126    1
    54   155   156    1
    55    97    95   ar
    56   157   158    2
    57   157   156    1
    58   124   123    1
    59   156   159    1
    60   126   121   am
    61   104   101    1
    62   122   121    2
    63    93    95   ar
    64    93    91   ar
    65    76    75    1
    66    95    94   ar
    67   121   120    1
    68   123   120    1
    69   123   125    1
    70   101   100    1
    71   101   102    1
    72   160   159    1
    73   120   119    1
    74   100    88   am
    75   159   161    1
    76    87    88    1
    77    87    90    1
    78    87    86    1
    79    91    90    1
    80    91    92   ar
    81    88    89    2
    82    94    92   ar
    83    75    74    1
    84    86    79   am
    85   119   114   am
    86   103   102    2
    87    74    73    1
    88    79    78    1
    89    79    80    2
    90   114   115    2
    91   114   113    1
    92    72    71    2
    93    73    70    1
    94    78    77    1
    95    78    81    1
    96    71    77   am
    97    71    70    1
    98   113   116    1
    99   113   112    1
   100    70    69    1
   101   116   117    1
   102   116   118    1
   103    81    82    1
   104    46    48   ar
   105    46    44   ar
   106    69    64   am
   107    48    47   ar
   108    53    50    1
   109    82    83    1
   110    44    43    1
   111    44    45   ar
   112    43    40    1
   113    47    45   ar
   114    64    63    1
   115    64    65    2
   116    50    49    1
   117    50    51    1
   118    49    41   am
   119    66    63    1
   120    66    67    1
   121    63    62    1
   122    83    84    2
   123    83    85   am
   124    40    41    1
   125    40    39    1
   126    41    42    2
   127    39    35   am
   128    51    52    2
   129    51    54   am
   130    26    25    2
   131    67    68    1
   132    61    59   am
   133    62    68    1
   134    54    55    1
   135    35    34    1
   136    35    36    2
   137    10     9   ar
   138    10     8   ar
   139    34    33    1
   140    34    37    1
   141    25    33   am
   142    25    24    1
   143    59    60    2
   144    59    58    1
   145     9     7   ar
   146    27    24    1
   147    27    28    1
   148    38    37    1
   149    55    58    1
   150    55    56    1
   151    20    18   ar
   152    20    21   ar
   153    29    28   ar
   154    29    31   ar
   155     8     6   ar
   156    18    16   ar
   157    24    23    1
   158    28    30   ar
   159    22    21    1
   160    31    32   ar
   161     7     6   ar
   162    21    19   ar
   163    56    57    2
   164     6     5    1
   165    16    15    1
   166    16    17   ar
   167    30    32   ar
   168    15    12    1
   169    19    17   ar
   170    14    13    2
   171     5     2    1
   172    11    12    1
   173     2     3    1
   174     2     1    1
   175    12    13    1
   176     3     4    2
