@<TRIPOS>MOLECULE
tmp/3la3A00.pdb
 101 99 0 0 0
SMALL
GASTEIGER

@<TRIPOS>ATOM
      1  N          0.6680   35.5410   34.5890 N.3    11  PHE11      -0.1241
      2  CA        -0.4070   36.4510   34.2180 C.3    11  PHE11       0.1605
      3  C         -1.7210   35.7060   34.0500 C.2    11  PHE11       0.2264
      4  O         -1.7400   34.5080   33.7680 O.2    11  PHE11      -0.2867
      5  CB        -0.0380   37.3300   33.0050 C.3    11  PHE11       0.0534
      6  CG         0.2090   36.5630   31.6880 C.ar   11  PHE11      -0.0203
      7  CD1       -0.7980   35.8170   31.0870 C.ar   11  PHE11      -0.0042
      8  CD2        1.4260   36.6660   31.0290 C.ar   11  PHE11      -0.0042
      9  CE1       -0.5770   35.1420   29.8770 C.ar   11  PHE11      -0.0003
     10  CE2        1.6510   35.9990   29.8080 C.ar   11  PHE11      -0.0003
     11  CZ         0.6420   35.2420   29.2330 C.ar   11  PHE11      -0.0000
     12  N          1.4220   27.7610   29.3490 N.3    30  LEU30      -0.1245
     13  CA         0.3370   28.6240   28.8930 C.3    30  LEU30       0.1561
     14  C         -0.8920   27.7580   28.6550 C.2    30  LEU30       0.2260
     15  O         -0.7970   26.6780   28.0740 O.2    30  LEU30      -0.2867
     16  CB         0.7310   29.3710   27.6210 C.3    30  LEU30       0.0270
     17  CG         2.0740   30.1060   27.7350 C.3    30  LEU30       0.0019
     18  CD1        2.6950   30.2880   26.3770 C.3    30  LEU30       0.0001
     19  CD2        1.9090   31.4530   28.4280 C.3    30  LEU30       0.0001
     20  N         -1.7790   25.0620   25.9820 N.3    42  VAL42      -0.1245
     21  CA        -1.4650   25.3720   24.6010 C.3    42  VAL42       0.1561
     22  C          0.0390   25.4050   24.3630 C.2    42  VAL42       0.2260
     23  O          0.4740   25.2250   23.2460 O.2    42  VAL42      -0.2867
     24  CB        -2.1310   26.6630   24.1040 C.3    42  VAL42       0.0252
     25  CG1       -3.6260   26.6470   24.4470 C.3    42  VAL42       0.0019
     26  CG2       -1.4500   27.8820   24.7030 C.3    42  VAL42       0.0019
     27  N          7.7600   35.2290   25.2310 N.3    51  PHE51      -0.1227
     28  CA         6.3490   34.9500   25.3600 C.3    51  PHE51       0.1736
     29  C          5.5710   36.1430   25.8790 C.2    51  PHE51       0.2596
     30  O          6.1610   37.1510   26.2800 O.2    51  PHE51      -0.2718
     31  CB         6.1130   33.6730   26.1620 C.3    51  PHE51       0.0547
     32  CG         6.2490   33.8170   27.6680 C.ar   51  PHE51      -0.0202
     33  CD1        5.1390   34.0940   28.4550 C.ar   51  PHE51      -0.0042
     34  CD2        7.4620   33.5710   28.3000 C.ar   51  PHE51      -0.0042
     35  CE1        5.2460   34.1790   29.8390 C.ar   51  PHE51      -0.0003
     36  CE2        7.5850   33.6600   29.6840 C.ar   51  PHE51      -0.0003
     37  CZ         6.4690   33.9610   30.4560 C.ar   51  PHE51      -0.0000
     38  N          4.2480   36.0460   25.8420 N.am   52  GLY52      -0.1942
     39  CA         3.3910   37.1800   26.1410 C.3    52  GLY52       0.2014
     40  C          3.1950   37.9970   24.8880 C.2    52  GLY52       0.2639
     41  O          2.8800   39.1840   24.9620 O.2    52  GLY52      -0.2714
     42  N          3.3680   37.3690   23.7220 N.am   53  VAL53      -0.1963
     43  CA         3.4260   38.1450   22.4790 C.3    53  VAL53       0.1727
     44  C          2.1010   38.7840   22.0480 C.2    53  VAL53       0.2616
     45  O          2.0830   39.5570   21.0990 O.2    53  VAL53      -0.2715
     46  CB         4.0570   37.3730   21.2910 C.3    53  VAL53       0.0290
     47  CG1        5.3730   36.7440   21.7130 C.3    53  VAL53       0.0023
     48  CG2        3.0890   36.3350   20.7340 C.3    53  VAL53       0.0023
     49  N          0.9990   38.4850   22.7350 N.am   54  LEU54      -0.1977
     50  CA        -0.2370   39.2000   22.4140 C.3    54  LEU54       0.1596
     51  C         -0.0100   40.7010   22.5130 C.2    54  LEU54       0.2287
     52  O         -0.6410   41.4790   21.8010 O.2    54  LEU54      -0.2864
     53  CB        -1.4070   38.7940   23.3160 C.3    54  LEU54       0.0297
     54  CG        -2.6500   39.6870   23.1970 C.3    54  LEU54       0.0022
     55  CD1       -3.3290   39.6000   21.8110 C.3    54  LEU54       0.0001
     56  CD2       -3.6460   39.3520   24.2710 C.3    54  LEU54       0.0001
     57  N         -5.3470   39.5070   28.0310 N.3    64  ARG64      -0.1231
     58  CA        -4.9210   38.1220   27.9840 C.3    64  ARG64       0.1694
     59  C         -6.1180   37.1750   28.0100 C.2    64  ARG64       0.2592
     60  O         -7.0450   37.3490   28.7940 O.2    64  ARG64      -0.2718
     61  CB        -4.0430   37.8030   29.1980 C.3    64  ARG64       0.0321
     62  CG        -2.8740   38.7330   29.3960 C.3    64  ARG64       0.0489
     63  CD        -1.6830   38.3170   28.5780 C.3    64  ARG64       0.2205
     64  NE        -0.5250   39.1720   28.8220 N.pl3  64  ARG64      -0.0865
     65  CZ         0.4670   39.3570   27.9530 C.cat  64  ARG64       0.5346
     66  NH1        0.4290   38.7600   26.7610 N.pl3  64  ARG64       0.1354
     67  NH2        1.4840   40.1470   28.2630 N.pl3  64  ARG64       0.1354
     68  N         -6.0800   36.1520   27.1710 N.am   65  PHE65      -0.1962
     69  CA        -7.0650   35.0830   27.2450 C.3    65  PHE65       0.1771
     70  C         -6.3810   33.7990   27.6830 C.2    65  PHE65       0.2619
     71  O         -7.0410   32.8370   28.0510 O.2    65  PHE65      -0.2715
     72  CB        -7.7930   34.8860   25.9010 C.3    65  PHE65       0.0574
     73  CG        -6.9250   35.0900   24.7080 C.ar   65  PHE65      -0.0200
     74  CD1       -6.8210   36.3410   24.1210 C.ar   65  PHE65      -0.0042
     75  CD2       -6.1930   34.0320   24.1740 C.ar   65  PHE65      -0.0042
     76  CE1       -6.0000   36.5400   23.0030 C.ar   65  PHE65      -0.0003
     77  CE2       -5.3640   34.2150   23.0570 C.ar   65  PHE65      -0.0003
     78  CZ        -5.2670   35.4710   22.4710 C.ar   65  PHE65      -0.0000
     79  N         -5.0550   33.7710   27.6470 N.am   66  TYR66      -0.1974
     80  CA        -4.3600   32.6530   28.2750 C.3    66  TYR66       0.1639
     81  C         -3.8680   32.9490   29.6970 C.2    66  TYR66       0.2290
     82  O         -3.7310   34.1080   30.1210 O.2    66  TYR66      -0.2864
     83  CB        -3.2070   32.1280   27.4090 C.3    66  TYR66       0.0560
     84  CG        -3.6470   31.5550   26.0690 C.ar   66  TYR66      -0.0198
     85  CD1       -2.8910   31.7880   24.9060 C.ar   66  TYR66      -0.0009
     86  CD2       -4.8070   30.8030   25.9610 C.ar   66  TYR66      -0.0009
     87  CE1       -3.2670   31.2800   23.7000 C.ar   66  TYR66       0.0417
     88  CE2       -5.2030   30.2910   24.7420 C.ar   66  TYR66       0.0417
     89  CZ        -4.4210   30.5360   23.6100 C.ar   66  TYR66       0.1957
     90  OH        -4.7800   30.0120   22.3940 O.3    66  TYR66      -0.2866
     91  N          9.2220   29.9300   18.1650 N.3   105  ARG105     -0.1245
     92  CA         7.9620   29.6810   18.8750 C.3   105  ARG105      0.1563
     93  C          6.9490   29.0910   17.9120 C.2   105  ARG105      0.2260
     94  O          6.2470   28.1220   18.2390 O.2   105  ARG105     -0.2867
     95  CB         7.3870   30.9810   19.4570 C.3   105  ARG105      0.0307
     96  CG         8.1270   31.5650   20.6780 C.3   105  ARG105      0.0489
     97  CD         8.0320   30.6790   21.9180 C.3   105  ARG105      0.2205
     98  NE         6.6980   30.1130   22.0580 N.pl3 105  ARG105     -0.0865
     99  CZ         5.6360   30.7990   22.4750 C.cat 105  ARG105      0.5346
    100  NH1        5.7530   32.0840   22.7970 N.pl3 105  ARG105      0.1354
    101  NH2        4.4630   30.2000   22.5680 N.pl3 105  ARG105      0.1354
@<TRIPOS>BOND
     1    93    94    2
     2    93    92    1
     3    91    92    1
     4    92    95    1
     5    95    96    1
     6    96    97    1
     7    48    46    1
     8    45    44    2
     9    46    47    1
    10    46    43    1
    11    52    51    2
    12    55    54    1
    13    97    98    1
    14    44    43    1
    15    44    49   am
    16    98    99    2
    17    90    89    1
    18    50    51    1
    19    50    49    1
    20    50    53    1
    21    78    76   ar
    22    78    77   ar
    23    99   101    1
    24    99   100    1
    25    43    42    1
    26    76    74   ar
    27    77    75   ar
    28    54    53    1
    29    54    56    1
    30    23    22    2
    31    89    87   ar
    32    89    88   ar
    33    87    85   ar
    34    42    40   am
    35    24    25    1
    36    24    21    1
    37    24    26    1
    38    74    73   ar
    39    75    73   ar
    40    22    21    1
    41    21    20    1
    42    73    72    1
    43    88    86   ar
    44    40    41    2
    45    40    39    1
    46    85    84   ar
    47    27    28    1
    48    28    29    1
    49    28    31    1
    50    38    29   am
    51    38    39    1
    52    29    30    2
    53    72    69    1
    54    86    84   ar
    55    84    83    1
    56    31    32    1
    57    18    17    1
    58    66    65    1
    59    68    69    1
    60    68    59   am
    61    69    70    1
    62    83    80    1
    63    16    17    1
    64    16    13    1
    65    79    70   am
    66    79    80    1
    67    32    34   ar
    68    32    33   ar
    69    70    71    2
    70    17    19    1
    71    65    67    1
    72    65    64    2
    73    58    59    1
    74    58    57    1
    75    58    61    1
    76    59    60    2
    77    15    14    2
    78    80    81    1
    79    34    36   ar
    80    33    35   ar
    81    63    64    1
    82    63    62    1
    83    14    13    1
    84    13    12    1
    85    61    62    1
    86    11    10   ar
    87    11     9   ar
    88    36    37   ar
    89    81    82    2
    90    10     8   ar
    91    35    37   ar
    92     9     7   ar
    93     8     6   ar
    94     7     6   ar
    95     6     5    1
    96     5     2    1
    97     4     3    2
    98     3     2    1
    99     2     1    1
