@<TRIPOS>MOLECULE
tmp/3la6E00.pdb
 177 174 0 0 0
SMALL
GASTEIGER

@<TRIPOS>ATOM
      1  N        102.8070  -11.7500  -40.9910 N.3    21  ILE21      -0.1231
      2  CA       104.1090  -11.9880  -40.3960 C.3    21  ILE21       0.1678
      3  C        104.3670  -11.0510  -39.2230 C.2    21  ILE21       0.2434
      4  O        104.4100   -9.8290  -39.3980 O.2    21  ILE21      -0.2733
      5  CB       105.2580  -12.0360  -41.4490 C.3    21  ILE21       0.0265
      6  CG1      105.0440  -13.1900  -42.4300 C.3    21  ILE21       0.0019
      7  CG2      106.6410  -12.1570  -40.7840 C.3    21  ILE21       0.0020
      8  CD1      105.3730  -12.8540  -43.7900 C.3    21  ILE21       0.0001
      9  N        104.5880  -11.6310  -38.0260 N.am   22  PRO22      -0.2718
     10  CA       104.9140  -10.8080  -36.8560 C.3    22  PRO22       0.1535
     11  C        106.2860  -10.1490  -36.9580 C.2    22  PRO22       0.2598
     12  O        107.0970  -10.4900  -37.8200 O.2    22  PRO22      -0.2715
     13  CB       104.8980  -11.8130  -35.6990 C.3    22  PRO22       0.0310
     14  CG       104.2720  -13.0530  -36.2380 C.3    22  PRO22       0.0237
     15  CD       104.5860  -13.0650  -37.6820 C.3    22  PRO22       0.0939
     16  N        106.5420   -9.2040  -36.0580 N.am   23  LEU23      -0.1964
     17  CA       107.8060   -8.4930  -35.9770 C.3    23  LEU23       0.1728
     18  C        108.7840   -9.3820  -35.2290 C.2    23  LEU23       0.2616
     19  O        108.5320   -9.7370  -34.0680 O.2    23  LEU23      -0.2715
     20  CB       107.6060   -7.1670  -35.2210 C.3    23  LEU23       0.0311
     21  CG       108.6290   -6.0680  -35.4690 C.3    23  LEU23       0.0022
     22  CD1      108.0000   -4.7220  -35.3080 C.3    23  LEU23       0.0001
     23  CD2      109.7810   -6.1500  -34.5160 C.3    23  LEU23       0.0001
     24  N        109.8920   -9.7610  -35.9020 N.am   24  SER24      -0.1950
     25  CA       110.9330  -10.5780  -35.2860 C.3    24  SER24       0.1924
     26  C        111.8950   -9.7180  -34.4670 C.2    24  SER24       0.2314
     27  O        112.8150   -9.0810  -34.9880 O.2    24  SER24      -0.2863
     28  CB       111.6660  -11.4320  -36.3140 C.3    24  SER24       0.2116
     29  OG       112.7550  -12.1170  -35.7160 O.3    24  SER24      -0.2180
     30  N        115.5040  -10.4300  -35.0730 N.3    27  GLN27      -0.1231
     31  CA       115.9600   -9.7580  -36.2910 C.3    27  GLN27       0.1698
     32  C        116.2060   -8.2780  -35.9830 C.2    27  GLN27       0.2592
     33  O        117.2870   -7.7770  -36.2880 O.2    27  GLN27      -0.2718
     34  CB       114.9330   -9.9710  -37.4330 C.3    27  GLN27       0.0381
     35  CG       115.3390   -9.4570  -38.8060 C.3    27  GLN27       0.0905
     36  CD       116.4130  -10.2710  -39.4600 C.2    27  GLN27       0.2608
     37  OE1      117.5960   -9.9210  -39.4300 O.2    27  GLN27      -0.2717
     38  NE2      116.0200  -11.3430  -40.1210 N.am   27  GLN27      -0.0878
     39  N        115.2320   -7.6130  -35.3100 N.am   28  LYS28      -0.1980
     40  CA       115.2920   -6.2030  -34.9110 C.3    28  LYS28       0.1596
     41  C        116.5740   -5.9220  -34.1090 C.2    28  LYS28       0.2287
     42  O        117.2600   -4.9250  -34.3710 O.2    28  LYS28      -0.2864
     43  CB       114.0350   -5.8040  -34.1150 C.3    28  LYS28       0.0298
     44  CG       113.8560   -4.2870  -33.9920 C.3    28  LYS28       0.0038
     45  CD       112.5550   -3.9160  -33.2980 C.3    28  LYS28       0.0206
     46  CE       112.4990   -2.5360  -32.6640 C.3    28  LYS28       0.1093
     47  NZ       112.7330   -1.4110  -33.6160 N.3    28  LYS28      -0.1314
     48  N        119.8680   -6.4670  -36.3700 N.3    31  ASP31      -0.1239
     49  CA       119.9820   -5.3930  -37.3740 C.3    31  ASP31       0.1674
     50  C        120.6260   -4.1490  -36.7660 C.2    31  ASP31       0.2266
     51  O        121.3000   -3.3990  -37.4850 O.2    31  ASP31      -0.2867
     52  CB       118.6230   -5.0550  -38.0120 C.3    31  ASP31       0.1410
     53  CG       118.0140   -6.1330  -38.8980 C.2    31  ASP31       0.3668
     54  OD1      118.7690   -7.0290  -39.3550 O.co2  31  ASP31      -0.2456
     55  OD2      116.7790   -6.0710  -39.1510 O.co2  31  ASP31      -0.2456
     56  N        118.0460    0.0420  -40.9480 N.3    33  TYR33      -0.1227
     57  CA       118.8050    0.0600  -42.2010 C.3    33  TYR33       0.1736
     58  C        118.5160   -1.1890  -43.0630 C.2    33  TYR33       0.2595
     59  O        117.4260   -1.2780  -43.6400 O.2    33  TYR33      -0.2718
     60  CB       120.3310    0.2910  -41.9800 C.3    33  TYR33       0.0548
     61  CG       120.7550    0.5170  -40.5420 C.ar   33  TYR33      -0.0200
     62  CD1      121.1460   -0.5480  -39.7320 C.ar   33  TYR33      -0.0009
     63  CD2      120.7590    1.7950  -39.9880 C.ar   33  TYR33      -0.0009
     64  CE1      121.5120   -0.3470  -38.4000 C.ar   33  TYR33       0.0417
     65  CE2      121.1110    2.0050  -38.6540 C.ar   33  TYR33       0.0417
     66  CZ       121.4910    0.9320  -37.8640 C.ar   33  TYR33       0.1957
     67  OH       121.8540    1.1420  -36.5540 O.3    33  TYR33      -0.2866
     68  N        119.4820   -2.1420  -43.1550 N.am   34  LYS34      -0.1966
     69  CA       119.3520   -3.3790  -43.9430 C.3    34  LYS34       0.1728
     70  C        119.4460   -4.6480  -43.0870 C.2    34  LYS34       0.2616
     71  O        120.0670   -4.6380  -42.0160 O.2    34  LYS34      -0.2715
     72  CB       120.3080   -3.4150  -45.1680 C.3    34  LYS34       0.0311
     73  CG       121.8010   -3.5730  -44.8490 C.3    34  LYS34       0.0038
     74  CD       122.6590   -3.5730  -46.1130 C.3    34  LYS34       0.0206
     75  CE       123.3110   -2.2310  -46.3660 C.3    34  LYS34       0.1093
     76  NZ       124.3360   -2.3000  -47.4420 N.3    34  LYS34      -0.1314
     77  N        118.8040   -5.7310  -43.5740 N.am   35  GLN35      -0.1977
     78  CA       118.7030   -7.0470  -42.9460 C.3    35  GLN35       0.1601
     79  C        120.0760   -7.6860  -42.7260 C.2    35  GLN35       0.2287
     80  O        120.8050   -7.9500  -43.6920 O.2    35  GLN35      -0.2864
     81  CB       117.8090   -7.9290  -43.8090 C.3    35  GLN35       0.0394
     82  CG       117.2560   -9.1530  -43.1260 C.3    35  GLN35       0.0908
     83  CD       116.4130   -9.9390  -44.0900 C.2    35  GLN35       0.2608
     84  OE1      116.0630   -9.4630  -45.1810 O.2    35  GLN35      -0.2717
     85  NE2      116.0980  -11.1780  -43.7190 N.am   35  GLN35      -0.0878
     86  N        109.3760    1.2210  -50.2090 N.3    78  PRO78      -0.2102
     87  CA       110.6620    0.6580  -49.7620 C.3    78  PRO78       0.1504
     88  C        110.7240    0.4510  -48.2500 C.2    78  PRO78       0.2576
     89  O        110.0100    1.1360  -47.5040 O.2    78  PRO78      -0.2718
     90  CB       111.6960    1.7110  -50.1970 C.3    78  PRO78       0.0282
     91  CG       110.9760    2.6430  -51.0830 C.3    78  PRO78       0.0208
     92  CD       109.5520    2.6090  -50.6720 C.3    78  PRO78       0.0893
     93  N        111.5930   -0.5000  -47.8170 N.am   79  SER79      -0.1938
     94  CA       111.8640   -0.8880  -46.4290 C.3    79  SER79       0.2055
     95  C        110.6370   -1.2960  -45.6060 C.2    79  SER79       0.2643
     96  O        110.3540   -0.7350  -44.5420 O.2    79  SER79      -0.2714
     97  CB       112.7320    0.1550  -45.7360 C.3    79  SER79       0.2130
     98  OG       114.0000    0.2110  -46.3730 O.3    79  SER79      -0.2179
     99  N        109.8950   -2.2770  -46.1440 N.am   80  ILE80      -0.1963
    100  CA       108.6920   -2.8700  -45.5510 C.3    80  ILE80       0.1727
    101  C        108.9230   -4.3470  -45.2470 C.2    80  ILE80       0.2617
    102  O        108.2030   -4.9170  -44.4360 O.2    80  ILE80      -0.2715
    103  CB       107.4060   -2.6170  -46.3770 C.3    80  ILE80       0.0290
    104  CG1      107.4970   -3.2050  -47.7930 C.3    80  ILE80       0.0022
    105  CG2      107.0550   -1.1360  -46.3950 C.3    80  ILE80       0.0023
    106  CD1      106.2470   -3.2730  -48.5280 C.3    80  ILE80       0.0001
    107  N        109.9040   -4.9470  -45.9150 N.am   81  GLY81      -0.1940
    108  CA       110.3070   -6.3250  -45.6780 C.3    81  GLY81       0.2014
    109  C        110.0400   -7.2860  -46.8060 C.2    81  GLY81       0.2639
    110  O        109.9410   -8.4910  -46.5680 O.2    81  GLY81      -0.2714
    111  N        109.9510   -6.7870  -48.0400 N.am   82  MET82      -0.1963
    112  CA       109.6980   -7.7050  -49.1570 C.3    82  MET82       0.1736
    113  C        110.8910   -8.6200  -49.4910 C.2    82  MET82       0.2617
    114  O        110.6720   -9.7660  -49.8870 O.2    82  MET82      -0.2715
    115  CB       109.0750   -7.0270  -50.3890 C.3    82  MET82       0.0427
    116  CG       110.0180   -6.0980  -51.1080 C.3    82  MET82       0.0599
    117  SD       109.1420   -4.8610  -52.0760 S.3    82  MET82      -0.1393
    118  CE       109.3880   -3.4250  -51.0730 C.3    82  MET82       0.0692
    119  N        112.1430   -8.1310  -49.2890 N.am   83  THR83      -0.1937
    120  CA       113.3610   -8.9260  -49.4900 C.3    83  THR83       0.2028
    121  C        113.4380   -9.9290  -48.3260 C.2    83  THR83       0.2642
    122  O        113.7700  -11.0920  -48.5550 O.2    83  THR83      -0.2714
    123  CB       114.6110   -8.0290  -49.6170 C.3    83  THR83       0.1808
    124  OG1      114.4230   -7.0970  -50.6800 O.3    83  THR83      -0.2208
    125  CG2      115.8880   -8.8230  -49.8640 C.3    83  THR83       0.0379
    126  N        113.0740   -9.4810  -47.0940 N.am   84  PHE84      -0.1973
    127  CA       113.0350  -10.2890  -45.8750 C.3    84  PHE84       0.1639
    128  C        112.1050  -11.4800  -46.0580 C.2    84  PHE84       0.2290
    129  O        112.5340  -12.6160  -45.8600 O.2    84  PHE84      -0.2864
    130  CB       112.6240   -9.4280  -44.6620 C.3    84  PHE84       0.0560
    131  CG       112.2460  -10.1930  -43.4130 C.ar   84  PHE84      -0.0200
    132  CD1      113.1950  -10.4840  -42.4400 C.ar   84  PHE84      -0.0042
    133  CD2      110.9310  -10.5870  -43.1900 C.ar   84  PHE84      -0.0042
    134  CE1      112.8380  -11.1750  -41.2760 C.ar   84  PHE84      -0.0003
    135  CE2      110.5790  -11.2880  -42.0360 C.ar   84  PHE84      -0.0003
    136  CZ       111.5310  -11.5690  -41.0820 C.ar   84  PHE84      -0.0000
    137  N        116.0150   -6.4020  -58.2400 N.3   106  ASP106     -0.1239
    138  CA       116.2390   -5.0620  -57.7470 C.3   106  ASP106      0.1674
    139  C        117.6590   -4.6930  -58.1470 C.2   106  ASP106      0.2266
    140  O        118.5860   -4.8130  -57.3440 O.2   106  ASP106     -0.2867
    141  CB       116.0290   -4.9970  -56.2280 C.3   106  ASP106      0.1410
    142  CG       116.0560   -3.5960  -55.6640 C.2   106  ASP106      0.3668
    143  OD1      116.3830   -2.6470  -56.4250 O.co2 106  ASP106     -0.2456
    144  OD2      115.7540   -3.4410  -54.4650 O.co2 106  ASP106     -0.2456
    145  N        120.6030   -6.4350  -52.5090 N.3   111  TYR111     -0.1241
    146  CA       121.6910   -6.8820  -51.6370 C.3   111  TYR111      0.1605
    147  C        121.5600   -8.3450  -51.1670 C.2   111  TYR111      0.2264
    148  O        122.1540   -8.7160  -50.1520 O.2   111  TYR111     -0.2867
    149  CB       121.8720   -5.9160  -50.4550 C.3   111  TYR111      0.0534
    150  CG       120.7690   -5.9730  -49.4230 C.ar  111  TYR111     -0.0201
    151  CD1      120.9690   -6.5920  -48.1940 C.ar  111  TYR111     -0.0009
    152  CD2      119.5370   -5.3780  -49.6590 C.ar  111  TYR111     -0.0009
    153  CE1      119.9600   -6.6430  -47.2360 C.ar  111  TYR111      0.0417
    154  CE2      118.5190   -5.4200  -48.7080 C.ar  111  TYR111      0.0417
    155  CZ       118.7370   -6.0500  -47.4940 C.ar  111  TYR111      0.1957
    156  OH       117.7440   -6.0880  -46.5460 O.3   111  TYR111     -0.2866
    157  N        109.8750   -1.9450  -54.7790 N.3   187  PRO187     -0.2116
    158  CA       108.4490   -1.5880  -54.5720 C.3   187  PRO187      0.1372
    159  C        107.7570   -0.9580  -55.7750 C.2   187  PRO187      0.2244
    160  O        108.3560   -0.1320  -56.4570 O.2   187  PRO187     -0.2868
    161  CB       108.4930   -0.6070  -53.4030 C.3   187  PRO187      0.0268
    162  CG       109.8850   -0.0880  -53.3900 C.3   187  PRO187      0.0207
    163  CD       110.7410   -1.2220  -53.8280 C.3   187  PRO187      0.0892
    164  N        103.3740   -7.6640  -43.1870 N.3   238  ASN238     -0.1225
    165  CA       104.6250   -7.8780  -42.4710 C.3   238  ASN238      0.1785
    166  C        104.7320   -6.9520  -41.2480 C.2   238  ASN238      0.2597
    167  O        103.9910   -5.9690  -41.1630 O.2   238  ASN238     -0.2718
    168  CB       105.8090   -7.7060  -43.4380 C.3   238  ASN238      0.1169
    169  CG       107.1280   -8.1770  -42.9020 C.2   238  ASN238      0.2627
    170  OD1      107.2190   -9.1440  -42.1450 O.2   238  ASN238     -0.2716
    171  ND2      108.1770   -7.4770  -43.2570 N.am  238  ASN238     -0.0877
    172  N        105.6420   -7.2880  -40.3010 N.am  239  SER239     -0.1952
    173  CA       105.9470   -6.5440  -39.0770 C.3   239  SER239      0.1924
    174  C        104.7470   -6.2360  -38.1780 C.2   239  SER239      0.2314
    175  O        104.6300   -5.1160  -37.6670 O.2   239  SER239     -0.2863
    176  CB       106.7550   -5.2840  -39.3870 C.3   239  SER239      0.2116
    177  OG       108.0560   -5.6110  -39.8400 O.3   239  SER239     -0.2180
@<TRIPOS>BOND
     1   137   138    1
     2   139   138    1
     3   139   140    2
     4   138   141    1
     5   160   159    2
     6   143   142   ar
     7   141   142    1
     8   159   158    1
     9   142   144   ar
    10   157   158    1
    11   157   163    1
    12   158   161    1
    13   163   162    1
    14   161   162    1
    15   145   146    1
    16   117   116    1
    17   117   118    1
    18   146   147    1
    19   146   149    1
    20   147   148    2
    21   116   115    1
    22    91    92    1
    23    91    90    1
    24   124   123    1
    25    92    86    1
    26   149   150    1
    27   115   112    1
    28    86    87    1
    29    90    87    1
    30   114   113    2
    31   125   123    1
    32    87    88    1
    33   152   150   ar
    34   152   154   ar
    35   123   120    1
    36   113   119   am
    37   113   112    1
    38   120   119    1
    39   120   121    1
    40   150   151   ar
    41   112   111    1
    42   154   155   ar
    43   122   121    2
    44   106   104    1
    45   121   126   am
    46    88    93   am
    47    88    89    2
    48   151   153   ar
    49   111   109   am
    50    93    94    1
    51   104   103    1
    52   155   153   ar
    53   155   156    1
    54    76    75    1
    55   126   127    1
    56   109   110    2
    57   109   108    1
    58    94    97    1
    59    94    95    1
    60   105   103    1
    61   103   100    1
    62    98    97    1
    63    75    74    1
    64    99    95   am
    65    99   100    1
    66    74    73    1
    67   128   127    1
    68   128   129    2
    69   107   108    1
    70   107   101   am
    71   127   130    1
    72    95    96    2
    73   100   101    1
    74   101   102    2
    75    84    83    2
    76    72    73    1
    77    72    69    1
    78   130   131    1
    79    83    85   am
    80    83    82    1
    81    69    68    1
    82    69    70    1
    83    81    82    1
    84    81    78    1
    85     8     6    1
    86    80    79    2
    87    59    58    2
    88    77    70   am
    89    77    78    1
    90   168   169    1
    91   168   165    1
    92   131   133   ar
    93   131   132   ar
    94   171   169   am
    95   133   135   ar
    96   164   165    1
    97    68    58   am
    98    70    71    2
    99    58    57    1
   100    78    79    1
   101   169   170    2
   102   165   166    1
   103   132   134   ar
   104     6     5    1
   105    57    60    1
   106    57    56    1
   107   135   136   ar
   108    60    61    1
   109     5     7    1
   110     5     2    1
   111   134   136   ar
   112   166   167    2
   113   166   172   am
   114     1     2    1
   115    61    63   ar
   116    61    62   ar
   117     2     3    1
   118   172   173    1
   119    38    36   am
   120    63    65   ar
   121   177   176    1
   122    62    64   ar
   123    36    37    2
   124    36    35    1
   125     4     3    2
   126   176   173    1
   127    54    53   ar
   128     3     9   am
   129    55    53   ar
   130   173   174    1
   131    53    52    1
   132    35    34    1
   133    65    66   ar
   134    64    66   ar
   135   174   175    2
   136     9    15    1
   137     9    10    1
   138    52    49    1
   139    66    67    1
   140    12    11    2
   141    15    14    1
   142    51    50    2
   143    34    31    1
   144    49    50    1
   145    49    48    1
   146    11    10    1
   147    11    16   am
   148    10    13    1
   149    28    29    1
   150    28    25    1
   151    31    32    1
   152    31    30    1
   153    33    32    2
   154    14    13    1
   155    16    17    1
   156    32    39   am
   157    17    18    1
   158    17    20    1
   159    24    25    1
   160    24    18   am
   161    21    22    1
   162    21    20    1
   163    21    23    1
   164    39    40    1
   165    25    26    1
   166    18    19    2
   167    27    26    2
   168    40    43    1
   169    40    41    1
   170    42    41    2
   171    43    44    1
   172    44    45    1
   173    47    46    1
   174    45    46    1
