@<TRIPOS>MOLECULE
tmp/3la7A00.pdb
 153 144 0 0 0
SMALL
GASTEIGER

@<TRIPOS>ATOM
      1  N          3.3190  -12.3860   34.8540 N.3     3  ALA3       -0.1231
      2  CA         2.0960  -12.0640   34.1100 C.3     3  ALA3        0.1694
      3  C          1.0750  -11.3160   34.9700 C.2     3  ALA3        0.2591
      4  O          0.5540  -10.2720   34.5610 O.2     3  ALA3       -0.2718
      5  CB         1.4710  -13.3350   33.5000 C.3     3  ALA3        0.0304
      6  N          0.7910  -11.8390   36.1560 N.am    4  LEU4       -0.1980
      7  CA        -0.1390  -11.1880   37.0910 C.3     4  LEU4        0.1596
      8  C          0.3680   -9.7940   37.5160 C.2     4  LEU4        0.2287
      9  O         -0.3960   -8.8270   37.6080 O.2     4  LEU4       -0.2864
     10  CB        -0.2840  -12.0650   38.3240 C.3     4  LEU4        0.0297
     11  CG        -1.4250  -11.9510   39.3220 C.3     4  LEU4        0.0022
     12  CD1       -1.2850  -13.1470   40.2710 C.3     4  LEU4        0.0001
     13  CD2       -1.4350  -10.6460   40.1160 C.3     4  LEU4        0.0001
     14  N          2.2010   -7.8250   35.9930 N.3     6  ASN6       -0.1225
     15  CA         2.0330   -6.9590   34.8250 C.3     6  ASN6        0.1785
     16  C          0.6440   -6.3340   34.8180 C.2     6  ASN6        0.2597
     17  O          0.4980   -5.1620   34.5060 O.2     6  ASN6       -0.2718
     18  CB         2.2540   -7.7360   33.5150 C.3     6  ASN6        0.1169
     19  CG         2.3170   -6.8330   32.2840 C.2     6  ASN6        0.2627
     20  OD1        2.9750   -5.7840   32.2970 O.2     6  ASN6       -0.2716
     21  ND2        1.6540   -7.2530   31.1910 N.am    6  ASN6       -0.0877
     22  N         -0.3690   -7.1380   35.1420 N.am    7  VAL7       -0.1980
     23  CA        -1.7530   -6.6670   35.1480 C.3     7  VAL7        0.1595
     24  C         -1.9480   -5.5970   36.1990 C.2     7  VAL7        0.2287
     25  O         -2.6140   -4.5880   35.9540 O.2     7  VAL7       -0.2864
     26  CB        -2.7490   -7.8310   35.3590 C.3     7  VAL7        0.0276
     27  CG1       -4.1320   -7.3190   35.7760 C.3     7  VAL7        0.0022
     28  CG2       -2.8310   -8.6520   34.0800 C.3     7  VAL7        0.0022
     29  N         -2.8490   -1.7800   35.1800 N.3    11  MET11      -0.1245
     30  CA        -4.1060   -1.2780   35.7340 C.3    11  MET11       0.1570
     31  C         -3.9410   -0.1270   36.7430 C.2    11  MET11       0.2261
     32  O         -4.9500    0.4530   37.2060 O.2    11  MET11      -0.2867
     33  CB        -4.8910   -2.4220   36.3880 C.3    11  MET11       0.0387
     34  CG        -5.6300   -3.2980   35.3970 C.3    11  MET11       0.0595
     35  SD        -6.9760   -2.3840   34.5950 S.3    11  MET11      -0.1393
     36  CE        -7.8840   -1.7590   36.0050 C.3    11  MET11       0.0692
     37  N         -6.3730   -3.4160   41.4350 N.3    18  PRO18      -0.2116
     38  CA        -7.4060   -4.4510   41.3200 C.3    18  PRO18       0.1372
     39  C         -7.4700   -5.2250   42.6280 C.2    18  PRO18       0.2244
     40  O         -6.4500   -5.4460   43.2970 O.2    18  PRO18      -0.2868
     41  CB        -6.8510   -5.3850   40.2450 C.3    18  PRO18       0.0268
     42  CG        -5.9710   -4.5150   39.4620 C.3    18  PRO18       0.0207
     43  CD        -5.3100   -3.6270   40.4440 C.3    18  PRO18       0.0892
     44  N        -15.0490   -4.8570   36.1710 N.3    39  VAL39      -0.1231
     45  CA       -14.4800   -5.7850   35.2120 C.3    39  VAL39       0.1692
     46  C        -13.7140   -6.8330   36.0040 C.2    39  VAL39       0.2592
     47  O        -13.0640   -6.4960   37.0160 O.2    39  VAL39      -0.2718
     48  CB       -13.5330   -5.0490   34.2170 C.3    39  VAL39       0.0266
     49  CG1      -12.8220   -6.0380   33.3060 C.3    39  VAL39       0.0020
     50  CG2      -14.3000   -4.0080   33.3780 C.3    39  VAL39       0.0020
     51  N        -13.7560   -8.0910   35.5420 N.am   40  TYR40      -0.1962
     52  CA       -13.2120   -9.2080   36.2840 C.3    40  TYR40       0.1771
     53  C        -12.1290   -9.9490   35.5070 C.2    40  TYR40       0.2619
     54  O        -12.1830  -10.0690   34.2880 O.2    40  TYR40      -0.2715
     55  CB       -14.3310  -10.2140   36.6240 C.3    40  TYR40       0.0574
     56  CG       -15.3520   -9.6150   37.5170 C.ar   40  TYR40      -0.0198
     57  CD1      -15.2440   -9.7490   38.9050 C.ar   40  TYR40      -0.0009
     58  CD2      -16.3770   -8.8610   36.9930 C.ar   40  TYR40      -0.0009
     59  CE1      -16.1820   -9.1600   39.7520 C.ar   40  TYR40       0.0417
     60  CE2      -17.3310   -8.2740   37.8450 C.ar   40  TYR40       0.0417
     61  CZ       -17.2150   -8.4440   39.2130 C.ar   40  TYR40       0.1957
     62  OH       -18.1460   -7.8630   40.0380 O.3    40  TYR40      -0.2866
     63  N        -11.1570  -10.4540   36.2360 N.am   41  PHE41      -0.1974
     64  CA       -10.0740  -11.2450   35.6550 C.3    41  PHE41       0.1639
     65  C         -9.9470  -12.5320   36.4690 C.2    41  PHE41       0.2290
     66  O         -9.6210  -12.5040   37.6380 O.2    41  PHE41      -0.2864
     67  CB        -8.7730  -10.4320   35.6510 C.3    41  PHE41       0.0560
     68  CG        -7.5580  -11.2110   35.1730 C.ar   41  PHE41      -0.0200
     69  CD1       -7.4280  -11.5980   33.8530 C.ar   41  PHE41      -0.0042
     70  CD2       -6.5540  -11.5630   36.0540 C.ar   41  PHE41      -0.0042
     71  CE1       -6.3160  -12.3250   33.4350 C.ar   41  PHE41      -0.0003
     72  CE2       -5.4470  -12.2870   35.6220 C.ar   41  PHE41      -0.0003
     73  CZ        -5.3340  -12.6610   34.3150 C.ar   41  PHE41      -0.0000
     74  N         -7.5730  -17.0280   33.6570 N.3    67  ASN67      -0.1240
     75  CA        -6.9820  -16.0590   32.7400 C.3    67  ASN67       0.1653
     76  C         -7.9880  -15.3430   31.8320 C.2    67  ASN67       0.2266
     77  O         -7.5910  -14.5030   31.0120 O.2    67  ASN67      -0.2867
     78  CB        -5.8790  -16.7070   31.8800 C.3    67  ASN67       0.1155
     79  CG        -4.5070  -16.5740   32.5040 C.2    67  ASN67       0.2627
     80  OD1       -4.1450  -15.5090   32.9980 O.2    67  ASN67      -0.2716
     81  ND2       -3.7380  -17.6640   32.5010 N.am   67  ASN67      -0.0877
     82  N        -11.1640  -12.7460   30.9480 N.3    69  VAL69      -0.1245
     83  CA       -11.7090  -11.4730   31.3820 C.3    69  VAL69       0.1561
     84  C        -13.1860  -11.4640   31.1070 C.2    69  VAL69       0.2260
     85  O        -13.6190  -11.9520   30.0600 O.2    69  VAL69      -0.2867
     86  CB       -11.0750  -10.3440   30.5380 C.3    69  VAL69       0.0252
     87  CG1      -11.4320   -8.9470   31.1020 C.3    69  VAL69       0.0019
     88  CG2       -9.6140  -10.5140   30.5470 C.3    69  VAL69       0.0019
     89  N         -9.6220  -11.1580   40.1680 N.3    96  LEU96      -0.1231
     90  CA        -9.2990   -9.7340   40.3830 C.3    96  LEU96       0.1693
     91  C        -10.4030   -8.9190   39.7810 C.2    96  LEU96       0.2593
     92  O        -10.9350   -9.2970   38.7200 O.2    96  LEU96      -0.2718
     93  CB        -8.0490   -9.3840   39.5940 C.3    96  LEU96       0.0284
     94  CG        -6.7610   -9.9940   40.0870 C.3    96  LEU96       0.0019
     95  CD1       -5.6310   -9.4630   39.2380 C.3    96  LEU96       0.0001
     96  CD2       -6.5550   -9.5880   41.5620 C.3    96  LEU96       0.0001
     97  N        -10.7630   -7.8040   40.4060 N.am   97  SER97      -0.1938
     98  CA       -11.7820   -6.9580   39.8300 C.3    97  SER97       0.2055
     99  C        -11.4010   -5.4840   39.9920 C.2    97  SER97       0.2642
    100  O        -10.6560   -5.1340   40.9260 O.2    97  SER97      -0.2714
    101  CB       -13.1570   -7.2630   40.4510 C.3    97  SER97       0.2130
    102  OG       -13.2780   -6.6900   41.7450 O.3    97  SER97      -0.2179
    103  N        -11.8620   -4.6480   39.0600 N.am   98  ALA98      -0.1977
    104  CA       -11.6300   -3.2040   39.1230 C.3    98  ALA98       0.1597
    105  C        -12.8610   -2.5170   38.5940 C.2    98  ALA98       0.2287
    106  O        -13.5640   -3.0660   37.7230 O.2    98  ALA98      -0.2864
    107  CB       -10.4040   -2.8200   38.2700 C.3    98  ALA98       0.0319
    108  N        -10.7580    0.7670   34.5120 N.3   103  VAL103     -0.1245
    109  CA       -10.3180    0.0960   33.3110 C.3   103  VAL103      0.1561
    110  C        -10.3170    1.0630   32.1350 C.2   103  VAL103      0.2260
    111  O         -9.3800    1.1080   31.3300 O.2   103  VAL103     -0.2867
    112  CB       -11.1960   -1.1660   33.0040 C.3   103  VAL103      0.0252
    113  CG1      -10.7650   -1.8160   31.6850 C.3   103  VAL103      0.0019
    114  CG2      -11.0870   -2.1490   34.1590 C.3   103  VAL103      0.0019
    115  N         -2.0890   -2.5820   27.5680 N.3   113  LEU113     -0.1245
    116  CA        -3.3530   -3.0470   28.1780 C.3   113  LEU113      0.1561
    117  C         -4.4090   -3.3540   27.1190 C.2   113  LEU113      0.2260
    118  O         -5.1760   -4.3040   27.2640 O.2   113  LEU113     -0.2867
    119  CB        -3.9060   -2.0290   29.1650 C.3   113  LEU113      0.0270
    120  CG        -5.2070   -2.4720   29.8690 C.3   113  LEU113      0.0019
    121  CD1       -4.9810   -3.7850   30.6660 C.3   113  LEU113      0.0001
    122  CD2       -5.7120   -1.3630   30.7750 C.3   113  LEU113      0.0001
    123  N         -3.5530   -6.8040   25.8840 N.3   116  LEU116     -0.1231
    124  CA        -4.0510   -7.7900   26.8550 C.3   116  LEU116      0.1693
    125  C         -5.5560   -7.9620   26.7410 C.2   116  LEU116      0.2591
    126  O         -6.0420   -9.1020   26.8000 O.2   116  LEU116     -0.2718
    127  CB        -3.7190   -7.3800   28.2960 C.3   116  LEU116      0.0284
    128  CG        -2.2380   -7.4650   28.6980 C.3   116  LEU116      0.0019
    129  CD1       -2.0900   -6.9350   30.1290 C.3   116  LEU116      0.0001
    130  CD2       -1.6880   -8.9080   28.5860 C.3   116  LEU116      0.0001
    131  N         -6.2770   -6.8430   26.6220 N.am  117  MET117     -0.1979
    132  CA        -7.7560   -6.8620   26.5350 C.3   117  MET117      0.1605
    133  C         -8.2050   -7.5440   25.2460 C.2   117  MET117      0.2287
    134  O         -9.1920   -8.2960   25.2470 O.2   117  MET117     -0.2864
    135  CB        -8.3550   -5.4570   26.5550 C.3   117  MET117      0.0413
    136  CG        -8.5510   -4.8630   27.9330 C.3   117  MET117      0.0598
    137  SD        -9.6910   -5.9120   28.9040 S.3   117  MET117     -0.1393
    138  CE        -8.4910   -6.7590   29.9280 C.3   117  MET117      0.0692
    139  N         -6.5510   -9.8950   23.5240 N.3   119  ARG119     -0.1231
    140  CA        -6.3870  -11.3280   23.7650 C.3   119  ARG119      0.1694
    141  C         -7.4950  -11.8930   24.6400 C.2   119  ARG119      0.2592
    142  O         -7.9210  -13.0370   24.4530 O.2   119  ARG119     -0.2718
    143  CB        -5.0540  -11.6800   24.4280 C.3   119  ARG119      0.0321
    144  CG        -3.8140  -11.3130   23.5850 C.3   119  ARG119      0.0489
    145  CD        -2.5450  -11.9300   24.1430 C.3   119  ARG119      0.2205
    146  NE        -1.5000  -10.9100   24.1550 N.pl3 119  ARG119     -0.0865
    147  CZ        -1.1180  -10.2520   25.2470 C.cat 119  ARG119      0.5346
    148  NH1       -1.6690  -10.5450   26.4200 N.pl3 119  ARG119      0.1354
    149  NH2       -0.1880   -9.3070   25.1690 N.pl3 119  ARG119      0.1354
    150  N         -7.9080  -11.1240   25.6340 N.am  120  GLY120     -0.1957
    151  CA        -9.0240  -11.5340   26.4900 C.3   120  GLY120      0.1869
    152  C        -10.3240  -11.6630   25.7130 C.2   120  GLY120      0.2309
    153  O        -11.0830  -12.6230   25.9150 O.2   120  GLY120     -0.2863
@<TRIPOS>BOND
     1   139   140    1
     2   144   145    1
     3   144   143    1
     4   140   143    1
     5   140   141    1
     6   145   146    1
     7   146   147    2
     8   142   141    2
     9   141   150   am
    10   149   147    1
    11   133   134    2
    12   133   132    1
    13   147   148    1
    14   150   151    1
    15   152   153    2
    16   152   151    1
    17   123   124    1
    18   132   135    1
    19   132   131    1
    20   135   136    1
    21   131   125   am
    22   125   126    2
    23   125   124    1
    24   124   127    1
    25   117   118    2
    26   117   116    1
    27   115   116    1
    28   136   137    1
    29   116   119    1
    30   127   128    1
    31   130   128    1
    32   128   129    1
    33   137   138    1
    34   119   120    1
    35   120   121    1
    36   120   122    1
    37    85    84    2
    38    86    88    1
    39    86    87    1
    40    86    83    1
    41    82    83    1
    42    77    76    2
    43    84    83    1
    44    21    19   am
    45   111   110    2
    46   113   112    1
    47    76    75    1
    48    78    79    1
    49    78    75    1
    50   110   109    1
    51    19    20    2
    52    19    18    1
    53    81    79   am
    54    79    80    2
    55    75    74    1
    56   112   109    1
    57   112   114    1
    58    49    48    1
    59   109   108    1
    60    50    48    1
    61    71    69   ar
    62    71    73   ar
    63     5     2    1
    64    18    15    1
    65    69    68   ar
    66    28    26    1
    67     2     1    1
    68     2     3    1
    69    48    45    1
    70    54    53    2
    71    73    72   ar
    72    17    16    2
    73     4     3    2
    74    35    34    1
    75    35    36    1
    76    16    15    1
    77    16    22   am
    78    15    14    1
    79     3     6   am
    80    22    23    1
    81    23    26    1
    82    23    24    1
    83    68    67    1
    84    68    70   ar
    85    29    30    1
    86    45    46    1
    87    45    44    1
    88    26    27    1
    89    34    33    1
    90    53    63   am
    91    53    52    1
    92    51    46   am
    93    51    52    1
    94    72    70   ar
    95    67    64    1
    96    64    63    1
    97    64    65    1
    98    30    33    1
    99    30    31    1
   100    25    24    2
   101    46    47    2
   102     6     7    1
   103    52    55    1
   104    65    66    2
   105    55    56    1
   106    31    32    2
   107    58    56   ar
   108    58    60   ar
   109     7     8    1
   110     7    10    1
   111     8     9    2
   112    56    57   ar
   113   106   105    2
   114    60    61   ar
   115   107   104    1
   116    10    11    1
   117   105   104    1
   118    92    91    2
   119    57    59   ar
   120   103   104    1
   121   103    99   am
   122    61    59   ar
   123    61    62    1
   124    95    94    1
   125    11    13    1
   126    11    12    1
   127    42    41    1
   128    42    43    1
   129    93    94    1
   130    93    90    1
   131    91    90    1
   132    91    97   am
   133    98    99    1
   134    98    97    1
   135    98   101    1
   136    99   100    2
   137    94    96    1
   138    89    90    1
   139    41    38    1
   140    43    37    1
   141   101   102    1
   142    38    37    1
   143    38    39    1
   144    39    40    2
