@<TRIPOS>MOLECULE
tmp/3lakA00.pdb
 205 203 0 0 0
SMALL
GASTEIGER

@<TRIPOS>ATOM
      1  N         11.5040   21.4050   21.6850 N.3    95  PRO95      -0.2116
      2  CA        10.7660   21.1360   20.4460 C.3    95  PRO95       0.1372
      3  C          9.2760   21.1150   20.7320 C.2    95  PRO95       0.2244
      4  O          8.8480   20.6860   21.8120 O.2    95  PRO95      -0.2868
      5  CB        11.2630   19.7550   20.0160 C.3    95  PRO95       0.0268
      6  CG        12.5290   19.5520   20.7610 C.3    95  PRO95       0.0207
      7  CD        12.3770   20.2820   22.0530 C.3    95  PRO95       0.0892
      8  N          7.2750   19.0660   14.2750 N.3   100  LEU100     -0.1231
      9  CA         7.8900   17.8390   13.7410 C.3   100  LEU100      0.1693
     10  C          7.3640   17.4940   12.3380 C.2   100  LEU100      0.2591
     11  O          6.1640   17.6270   12.0750 O.2   100  LEU100     -0.2718
     12  CB         7.6060   16.6570   14.6810 C.3   100  LEU100      0.0284
     13  CG         8.0450   16.8460   16.1330 C.3   100  LEU100      0.0019
     14  CD1        7.4700   15.7330   17.0070 C.3   100  LEU100      0.0001
     15  CD2        9.5700   16.8810   16.1980 C.3   100  LEU100      0.0001
     16  N          8.2480   17.0450   11.4430 N.am  101  LYS101     -0.1980
     17  CA         7.7930   16.4400   10.1840 C.3   101  LYS101      0.1596
     18  C          7.2030   15.0660   10.4870 C.2   101  LYS101      0.2287
     19  O          7.4950   14.4720   11.5270 O.2   101  LYS101     -0.2864
     20  CB         8.9420   16.2460    9.1970 C.3   101  LYS101      0.0298
     21  CG        10.0200   17.2820    9.2770 C.3   101  LYS101      0.0038
     22  CD         9.6460   18.5380    8.5200 C.3   101  LYS101      0.0206
     23  CE        10.6690   19.6420    8.7930 C.3   101  LYS101      0.1093
     24  NZ        12.0480   19.2350    8.3970 N.3   101  LYS101     -0.1314
     25  N          7.1470   11.1370   10.0770 N.3   103  LYS103     -0.1231
     26  CA         8.1930   10.1510    9.7980 C.3   103  LYS103      0.1693
     27  C          7.6220    8.7450    9.6570 C.2   103  LYS103      0.2592
     28  O          6.8800    8.2920   10.5160 O.2   103  LYS103     -0.2718
     29  CB         9.2490   10.1490   10.9160 C.3   103  LYS103      0.0285
     30  CG        10.0640   11.4280   11.0300 C.3   103  LYS103      0.0035
     31  CD        10.7720   11.7650    9.7230 C.3   103  LYS103      0.0206
     32  CE        11.3420   13.1730    9.7590 C.3   103  LYS103      0.1093
     33  NZ        11.9420   13.5690    8.4550 N.3   103  LYS103     -0.1314
     34  N          7.9840    8.0490    8.5850 N.am  104  LYS104     -0.1966
     35  CA         7.5730    6.6530    8.4210 C.3   104  LYS104      0.1728
     36  C          7.9920    5.7690    9.6110 C.2   104  LYS104      0.2617
     37  O          7.1870    5.0010   10.1340 O.2   104  LYS104     -0.2715
     38  CB         8.1500    6.0750    7.1220 C.3   104  LYS104      0.0311
     39  CG         7.6170    4.6810    6.7790 C.3   104  LYS104      0.0038
     40  CD         7.7280    4.3740    5.2850 C.3   104  LYS104      0.0206
     41  CE         6.9980    5.4180    4.4460 C.3   104  LYS104      0.1093
     42  NZ         6.9600    5.0510    3.0000 N.3   104  LYS104     -0.1314
     43  N          9.2460    5.8820   10.0440 N.am  105  SER105     -0.1936
     44  CA         9.7210    5.0760   11.1720 C.3   105  SER105      0.2055
     45  C         10.6470    5.8440   12.1120 C.2   105  SER105      0.2643
     46  O         11.5110    6.6120   11.6730 O.2   105  SER105     -0.2714
     47  CB        10.4350    3.8210   10.6590 C.3   105  SER105      0.2130
     48  OG        11.4850    4.1590    9.7710 O.3   105  SER105     -0.2179
     49  N         10.4600    5.6280   13.4110 N.am  106  VAL106     -0.1963
     50  CA        11.2260    6.3430   14.4200 C.3   106  VAL106      0.1727
     51  C         11.5980    5.4530   15.6110 C.2   106  VAL106      0.2617
     52  O         10.8890    4.4910   15.9330 O.2   106  VAL106     -0.2715
     53  CB        10.4300    7.5630   14.9390 C.3   106  VAL106      0.0290
     54  CG1       10.1320    8.5160   13.7800 C.3   106  VAL106      0.0023
     55  CG2        9.1350    7.0930   15.6050 C.3   106  VAL106      0.0023
     56  N         12.7110    5.8000   16.2590 N.am  107  THR107     -0.1937
     57  CA        13.2450    5.0680   17.4100 C.3   107  THR107      0.2028
     58  C         13.5580    6.0710   18.5310 C.2   107  THR107      0.2642
     59  O         14.0860    7.1550   18.2760 O.2   107  THR107     -0.2714
     60  CB        14.5650    4.3290   17.0300 C.3   107  THR107      0.1808
     61  OG1       14.3570    3.5500   15.8440 O.3   107  THR107     -0.2208
     62  CG2       15.0210    3.4050   18.1600 C.3   107  THR107      0.0379
     63  N         13.2310    5.7100   19.7680 N.am  108  VAL108     -0.1977
     64  CA        13.6680    6.4820   20.9280 C.3   108  VAL108      0.1596
     65  C         14.8550    5.8190   21.6320 C.2   108  VAL108      0.2287
     66  O         14.7700    4.6680   22.0550 O.2   108  VAL108     -0.2864
     67  CB        12.5240    6.6380   21.9530 C.3   108  VAL108      0.0276
     68  CG1       11.9630    5.2760   22.3090 C.3   108  VAL108      0.0022
     69  CG2       13.0410    7.3160   23.2160 C.3   108  VAL108      0.0022
     70  N         16.9750   12.0430   10.7980 N.3   179  VAL179     -0.1245
     71  CA        16.7320   13.0650   11.8020 C.3   179  VAL179      0.1561
     72  C         17.0760   12.5950   13.2060 C.2   179  VAL179      0.2260
     73  O         16.6610   11.5130   13.6330 O.2   179  VAL179     -0.2867
     74  CB        15.2590   13.5140   11.7820 C.3   179  VAL179      0.0252
     75  CG1       14.9260   14.2440   13.0570 C.3   179  VAL179      0.0019
     76  CG2       15.0160   14.4240   10.5970 C.3   179  VAL179      0.0019
     77  N         16.9290   14.3120   17.0570 N.3   181  TYR181     -0.1241
     78  CA        16.7270   15.3990   18.0000 C.3   181  TYR181      0.1605
     79  C         17.4380   15.1010   19.3210 C.2   181  TYR181      0.2264
     80  O         17.2980   14.0180   19.8840 O.2   181  TYR181     -0.2867
     81  CB        15.2310   15.6250   18.2470 C.3   181  TYR181      0.0534
     82  CG        14.5170   16.4240   17.1600 C.ar  181  TYR181     -0.0201
     83  CD1       14.6250   16.0660   15.8200 C.ar  181  TYR181     -0.0009
     84  CD2       13.6980   17.5050   17.4810 C.ar  181  TYR181     -0.0009
     85  CE1       13.9350   16.7540   14.8290 C.ar  181  TYR181      0.0417
     86  CE2       13.0020   18.2020   16.4920 C.ar  181  TYR181      0.0417
     87  CZ        13.1260   17.8160   15.1630 C.ar  181  TYR181      0.1957
     88  OH        12.4320   18.4750   14.1610 O.3   181  TYR181     -0.2866
     89  N         18.3770   12.0070   25.9900 N.3   186  ASP186     -0.1239
     90  CA        17.6040   11.2710   24.9980 C.3   186  ASP186      0.1674
     91  C         18.0660   11.5960   23.5880 C.2   186  ASP186      0.2266
     92  O         18.5980   12.6670   23.3180 O.2   186  ASP186     -0.2867
     93  CB        16.1120   11.6080   25.1080 C.3   186  ASP186      0.1410
     94  CG        15.3980   10.7930   26.1620 C.2   186  ASP186      0.3668
     95  OD1       16.0190    9.8800   26.7380 O.co2 186  ASP186     -0.2456
     96  OD2       14.2100   11.0670   26.4150 O.co2 186  ASP186     -0.2456
     97  N         16.0530   11.2160   19.7420 N.3   188  TYR188     -0.1227
     98  CA        14.8890   10.7750   18.9760 C.3   188  TYR188      0.1736
     99  C         15.2530   10.7660   17.4980 C.2   188  TYR188      0.2595
    100  O         15.7070   11.7770   16.9430 O.2   188  TYR188     -0.2718
    101  CB        13.7010   11.7000   19.2260 C.3   188  TYR188      0.0548
    102  CG        13.5310   12.0900   20.6780 C.ar  188  TYR188     -0.0200
    103  CD1       13.5440   13.4310   21.0620 C.ar  188  TYR188     -0.0009
    104  CD2       13.3840   11.1260   21.6680 C.ar  188  TYR188     -0.0009
    105  CE1       13.4190   13.8000   22.3940 C.ar  188  TYR188      0.0417
    106  CE2       13.2570   11.4850   23.0080 C.ar  188  TYR188      0.0417
    107  CZ        13.2760   12.8240   23.3630 C.ar  188  TYR188      0.1957
    108  OH        13.1440   13.1910   24.6840 O.3   188  TYR188     -0.2866
    109  N         15.0640    9.6050   16.8770 N.am  189  VAL189     -0.1966
    110  CA        15.6640    9.2940   15.5860 C.3   189  VAL189      0.1727
    111  C         14.5710    8.8720   14.6090 C.2   189  VAL189      0.2616
    112  O         13.7040    8.0500   14.9360 O.2   189  VAL189     -0.2715
    113  CB        16.6890    8.1320   15.7210 C.3   189  VAL189      0.0290
    114  CG1       17.4470    7.9550   14.4220 C.3   189  VAL189      0.0023
    115  CG2       17.6450    8.4050   16.8850 C.3   189  VAL189      0.0023
    116  N         14.6060    9.4380   13.4090 N.am  190  GLY190     -0.1955
    117  CA        13.5160    9.2050   12.4810 C.3   190  GLY190      0.1869
    118  C         13.9710    9.2190   11.0410 C.2   190  GLY190      0.2309
    119  O         14.8810    9.9710   10.6600 O.2   190  GLY190     -0.2863
    120  N         11.5380    1.9040   23.8350 N.3   223  LYS223     -0.1245
    121  CA        10.1200    2.1770   24.0710 C.3   223  LYS223      0.1561
    122  C          9.3060    2.0440   22.7870 C.2   223  LYS223      0.2260
    123  O          9.8420    2.1450   21.6860 O.2   223  LYS223     -0.2867
    124  CB         9.9350    3.5850   24.6420 C.3   223  LYS223      0.0271
    125  CG        10.5140    3.7910   26.0320 C.3   223  LYS223      0.0035
    126  CD        10.4390    5.2620   26.4330 C.3   223  LYS223      0.0206
    127  CE        10.9370    5.4800   27.8540 C.3   223  LYS223      0.1093
    128  NZ        10.8260    6.9060   28.2700 N.3   223  LYS223     -0.1314
    129  N          5.6260    3.0980   20.5060 N.3   225  PRO225     -0.2116
    130  CA         4.5460    4.0520   20.2050 C.3   225  PRO225      0.1372
    131  C          3.2120    3.5910   20.7830 C.2   225  PRO225      0.2244
    132  O          2.9170    2.3960   20.7820 O.2   225  PRO225     -0.2868
    133  CB         4.5090    4.0820   18.6760 C.3   225  PRO225      0.0268
    134  CG         5.8640    3.6000   18.2510 C.3   225  PRO225      0.0207
    135  CD         6.2670    2.5910   19.2800 C.3   225  PRO225      0.0892
    136  N          4.2700    7.5250   22.2250 N.3   227  PHE227     -0.1227
    137  CA         5.2000    8.0460   23.2190 C.3   227  PHE227      0.1736
    138  C          4.5450    9.1390   24.0420 C.2   227  PHE227      0.2595
    139  O          3.9430   10.0710   23.5040 O.2   227  PHE227     -0.2718
    140  CB         6.4520    8.6110   22.5490 C.3   227  PHE227      0.0547
    141  CG         7.1160    7.6590   21.6160 C.ar  227  PHE227     -0.0202
    142  CD1        7.5870    6.4400   22.0740 C.ar  227  PHE227     -0.0042
    143  CD2        7.2500    7.9690   20.2730 C.ar  227  PHE227     -0.0042
    144  CE1        8.1790    5.5410   21.2060 C.ar  227  PHE227     -0.0003
    145  CE2        7.8370    7.0840   19.4020 C.ar  227  PHE227     -0.0003
    146  CZ         8.3050    5.8600   19.8690 C.ar  227  PHE227     -0.0000
    147  N          4.6540    9.0140   25.3550 N.am  228  LEU228     -0.1966
    148  CA         4.2390   10.0830   26.2350 C.3   228  LEU228      0.1728
    149  C          5.4750   10.8960   26.5610 C.2   228  LEU228      0.2616
    150  O          6.3460   10.4500   27.3030 O.2   228  LEU228     -0.2715
    151  CB         3.6040    9.5170   27.5070 C.3   228  LEU228      0.0311
    152  CG         2.1980    8.9390   27.3010 C.3   228  LEU228      0.0022
    153  CD1        2.3020    7.5870   26.6110 C.3   228  LEU228      0.0001
    154  CD2        1.4900    8.7950   28.6470 C.3   228  LEU228      0.0001
    155  N          5.5530   12.0870   25.9800 N.am  229  TRP229     -0.1974
    156  CA         6.7600   12.8970   26.0640 C.3   229  TRP229      0.1640
    157  C          6.4050   14.3120   26.4920 C.2   229  TRP229      0.2290
    158  O          5.8160   15.0600   25.7220 O.2   229  TRP229     -0.2864
    159  CB         7.4570   12.9200   24.6990 C.3   229  TRP229      0.0576
    160  CG         8.6610   13.8100   24.6510 C.ar  229  TRP229      0.0006
    161  CD1        9.9130   13.5300   25.1360 C.ar  229  TRP229      0.0946
    162  CD2        8.7300   15.1360   24.1130 C.ar  229  TRP229      0.0152
    163  NE1       10.7490   14.6000   24.9380 N.ar  229  TRP229     -0.2442
    164  CE2       10.0520   15.5990   24.3120 C.ar  229  TRP229      0.0810
    165  CE3        7.8040   15.9790   23.4850 C.ar  229  TRP229      0.0012
    166  CZ2       10.4710   16.8700   23.9030 C.ar  229  TRP229      0.0191
    167  CZ3        8.2240   17.2440   23.0770 C.ar  229  TRP229      0.0001
    168  CH2        9.5450   17.6750   23.2900 C.ar  229  TRP229      0.0015
    169  N          2.5650   11.3490   21.4130 N.3   234  LEU234     -0.1231
    170  CA         2.9910   11.4030   20.0290 C.3   234  LEU234      0.1693
    171  C          2.6620   10.0930   19.3220 C.2   234  LEU234      0.2592
    172  O          3.0540    9.0180   19.7740 O.2   234  LEU234     -0.2718
    173  CB         4.4940   11.6930   19.9750 C.3   234  LEU234      0.0284
    174  CG         4.9270   12.8580   20.8810 C.3   234  LEU234      0.0019
    175  CD1        6.4280   13.0000   20.8470 C.3   234  LEU234      0.0001
    176  CD2        4.2480   14.1600   20.4400 C.3   234  LEU234      0.0001
    177  N          1.9250   10.1840   18.2210 N.am  235  HIS235     -0.1962
    178  CA         1.5660    9.0070   17.4350 C.3   235  HIS235      0.1772
    179  C          2.1530    9.1240   16.0400 C.2   235  HIS235      0.2462
    180  O          2.7280   10.1490   15.6850 O.2   235  HIS235     -0.2730
    181  CB         0.0480    8.8700   17.3400 C.3   235  HIS235      0.0785
    182  CG        -0.6390    8.8640   18.6660 C.ar  235  HIS235      0.0821
    183  ND1       -1.3760    7.7890   19.1190 N.ar  235  HIS235     -0.2267
    184  CD2       -0.7310    9.8130   19.6260 C.ar  235  HIS235      0.1154
    185  CE1       -1.8940    8.0800   20.2990 C.ar  235  HIS235      0.1986
    186  NE2       -1.5180    9.3030   20.6300 N.ar  235  HIS235     -0.2212
    187  N          2.0280    8.0650   15.2320 N.am  236  PRO236     -0.2727
    188  CA         2.6160    8.0720   13.8910 C.3   236  PRO236      0.1402
    189  C          2.1190    9.1740   12.9490 C.2   236  PRO236      0.2269
    190  O          2.8610    9.6150   12.0780 O.2   236  PRO236     -0.2865
    191  CB         2.3100    6.6720   13.3570 C.3   236  PRO236      0.0296
    192  CG         2.1810    5.8280   14.5890 C.3   236  PRO236      0.0237
    193  CD         1.5350    6.7270   15.6070 C.3   236  PRO236      0.0939
    194  N          1.1360   16.8100   11.9950 N.3   318  TYR318     -0.1241
    195  CA         2.5220   17.2250   11.8330 C.3   318  TYR318      0.1605
    196  C          2.7280   18.1830   10.6680 C.2   318  TYR318      0.2264
    197  O          1.8220   18.4200    9.8800 O.2   318  TYR318     -0.2867
    198  CB         3.4220   15.9910   11.6490 C.3   318  TYR318      0.0534
    199  CG         3.4510   15.1230   12.8800 C.ar  318  TYR318     -0.0201
    200  CD1        3.8100   15.6610   14.1090 C.ar  318  TYR318     -0.0009
    201  CD2        3.0610   13.7900   12.8310 C.ar  318  TYR318     -0.0009
    202  CE1        3.7770   14.9110   15.2540 C.ar  318  TYR318      0.0417
    203  CE2        3.0240   13.0310   13.9760 C.ar  318  TYR318      0.0417
    204  CZ         3.3820   13.6040   15.1890 C.ar  318  TYR318      0.1957
    205  OH         3.3150   12.8770   16.3510 O.3   318  TYR318     -0.2866
@<TRIPOS>BOND
     1    42    41    1
     2    41    40    1
     3    40    39    1
     4    39    38    1
     5    38    35    1
     6    24    23    1
     7    35    34    1
     8    35    36    1
     9    33    32    1
    10    22    23    1
    11    22    21    1
    12    34    27   am
    13    20    21    1
    14    20    17    1
    15    36    43   am
    16    36    37    2
    17    27    26    1
    18    27    28    2
    19    31    32    1
    20    31    30    1
    21    48    47    1
    22    26    25    1
    23    26    29    1
    24   197   196    2
    25    43    44    1
    26    17    18    1
    27    17    16    1
    28    18    19    2
    29    76    74    1
    30    47    44    1
    31   119   118    2
    32   196   195    1
    33    70    71    1
    34    29    30    1
    35   118   117    1
    36    44    45    1
    37    16    10   am
    38   198   195    1
    39   198   199    1
    40    46    45    2
    41    74    71    1
    42    74    75    1
    43    71    72    1
    44   195   194    1
    45    11    10    2
    46   190   189    2
    47    45    49   am
    48    10     9    1
    49   117   116    1
    50   201   199   ar
    51   201   203   ar
    52   199   200   ar
    53   189   188    1
    54    72    73    2
    55   191   188    1
    56   191   192    1
    57   116   111   am
    58    49    50    1
    59     9     8    1
    60     9    12    1
    61    54    53    1
    62   188   187    1
    63   203   204   ar
    64   200   202   ar
    65    88    87    1
    66    50    53    1
    67    50    51    1
    68   114   113    1
    69   192   193    1
    70   111   112    2
    71   111   110    1
    72    12    13    1
    73    85    87   ar
    74    85    83   ar
    75    53    55    1
    76    87    86   ar
    77   204   202   ar
    78   204   205    1
    79   187   193    1
    80   187   179   am
    81   110   113    1
    82   110   109    1
    83    51    52    2
    84    51    56   am
    85   180   179    2
    86   113   115    1
    87    83    82   ar
    88    61    60    1
    89   179   178    1
    90    13    15    1
    91    13    14    1
    92    56    57    1
    93    86    84   ar
    94   109    99   am
    95   100    99    2
    96    60    57    1
    97    60    62    1
    98    77    78    1
    99    82    84   ar
   100    82    81    1
   101   181   178    1
   102   181   182    1
   103    57    58    1
   104   178   177    1
   105    99    98    1
   106    78    81    1
   107    78    79    1
   108   177   171   am
   109   134   133    1
   110   134   135    1
   111    59    58    2
   112    58    63   am
   113   182   183   ar
   114   182   184   ar
   115   133   130    1
   116    98   101    1
   117    98    97    1
   118   183   185   ar
   119   101   102    1
   120   135   129    1
   121    79    80    2
   122   171   172    2
   123   171   170    1
   124   145   146   ar
   125   145   143   ar
   126   184   186   ar
   127    63    64    1
   128   146   144   ar
   129   173   170    1
   130   173   174    1
   131     5     2    1
   132     5     6    1
   133   170   169    1
   134   130   129    1
   135   130   131    1
   136   143   141   ar
   137   185   186   ar
   138   176   174    1
   139     2     3    1
   140     2     1    1
   141   102   103   ar
   142   102   104   ar
   143     3     4    2
   144     6     7    1
   145   132   131    2
   146   175   174    1
   147    64    65    1
   148    64    67    1
   149   103   105   ar
   150   144   142   ar
   151   141   142   ar
   152   141   140    1
   153    65    66    2
   154   104   106   ar
   155     1     7    1
   156   123   122    2
   157    67    68    1
   158    67    69    1
   159   136   137    1
   160   105   107   ar
   161   140   137    1
   162   122   121    1
   163   106   107   ar
   164   167   168   ar
   165   167   165   ar
   166   137   138    1
   167   168   166   ar
   168    92    91    2
   169   107   108    1
   170   165   162   ar
   171   139   138    2
   172    91    90    1
   173   120   121    1
   174   166   164   ar
   175   138   147   am
   176   121   124    1
   177   162   164   ar
   178   162   160   ar
   179   164   163   ar
   180   124   125    1
   181   160   159    1
   182   160   161   ar
   183   159   156    1
   184   163   161   ar
   185    90    93    1
   186    90    89    1
   187    93    94    1
   188   147   148    1
   189   158   157    2
   190   155   156    1
   191   155   149   am
   192   125   126    1
   193   156   157    1
   194    94    96   ar
   195    94    95   ar
   196   148   149    1
   197   148   151    1
   198   126   127    1
   199   149   150    2
   200   153   152    1
   201   152   151    1
   202   152   154    1
   203   127   128    1
