@<TRIPOS>MOLECULE
tmp/3lalA00.pdb
 199 197 0 0 0
SMALL
GASTEIGER

@<TRIPOS>ATOM
      1  N         11.6000   21.6080   21.3390 N.3    95  PRO95      -0.2116
      2  CA        10.8020   21.4000   20.1300 C.3    95  PRO95       0.1372
      3  C          9.3380   21.3530   20.5040 C.2    95  PRO95       0.2244
      4  O          8.9860   20.9160   21.6090 O.2    95  PRO95      -0.2868
      5  CB        11.2840   20.0560   19.6010 C.3    95  PRO95       0.0268
      6  CG        12.5690   19.7840   20.3350 C.3    95  PRO95       0.0207
      7  CD        12.4510   20.4530   21.6500 C.3    95  PRO95       0.0892
      8  N          5.6890   19.7210   19.2250 N.3    97  PRO97      -0.2116
      9  CA         5.2630   18.6130   18.3680 C.3    97  PRO97       0.1372
     10  C          4.8160   19.1030   16.9930 C.2    97  PRO97       0.2244
     11  O          5.0900   18.4580   15.9740 O.2    97  PRO97      -0.2868
     12  CB         4.1230   17.9710   19.1560 C.3    97  PRO97       0.0268
     13  CG         4.4030   18.3370   20.5910 C.3    97  PRO97       0.0207
     14  CD         5.0050   19.7180   20.5310 C.3    97  PRO97       0.0892
     15  N          7.3160   19.0980   14.1740 N.3   100  LEU100     -0.1231
     16  CA         7.9090   17.8580   13.6640 C.3   100  LEU100      0.1693
     17  C          7.3430   17.5060   12.2920 C.2   100  LEU100      0.2592
     18  O          6.1560   17.7110   12.0340 O.2   100  LEU100     -0.2718
     19  CB         7.6360   16.7070   14.6320 C.3   100  LEU100      0.0284
     20  CG         8.2090   16.9160   16.0280 C.3   100  LEU100      0.0019
     21  CD1        7.8290   15.7540   16.9240 C.3   100  LEU100      0.0001
     22  CD2        9.7190   17.0730   15.9270 C.3   100  LEU100      0.0001
     23  N          8.1930   16.9840   11.4120 N.am  101  LYS101     -0.1966
     24  CA         7.7070   16.3680   10.1850 C.3   101  LYS101      0.1728
     25  C          7.2550   14.9430   10.4710 C.2   101  LYS101      0.2616
     26  O          7.8330   14.2600   11.3130 O.2   101  LYS101     -0.2715
     27  CB         8.7950   16.3550    9.1170 C.3   101  LYS101      0.0311
     28  CG         9.0930   17.7210    8.5470 C.3   101  LYS101      0.0038
     29  CD        10.3700   17.7150    7.7230 C.3   101  LYS101      0.0206
     30  CE        11.1060   19.0520    7.8400 C.3   101  LYS101      0.1093
     31  NZ        12.4640   19.0080    7.2030 N.3   101  LYS101     -0.1314
     32  N          6.2100   14.4990    9.7820 N.am  102  LYS102     -0.1963
     33  CA         5.7790   13.1110    9.8760 C.3   102  LYS102      0.1728
     34  C          6.9120   12.2020    9.3910 C.2   102  LYS102      0.2616
     35  O          7.5860   12.5020    8.3940 O.2   102  LYS102     -0.2715
     36  CB         4.5290   12.9000    9.0170 C.3   102  LYS102      0.0311
     37  CG         3.9430   11.4900    9.0560 C.3   102  LYS102      0.0038
     38  CD         2.9890   11.2610    7.8760 C.3   102  LYS102      0.0206
     39  CE         3.6430   11.6770    6.5520 C.3   102  LYS102      0.1093
     40  NZ         2.8190   11.3240    5.3490 N.3   102  LYS102     -0.1314
     41  N          7.1270   11.0990   10.1020 N.am  103  LYS103     -0.1977
     42  CA         8.1880   10.1570    9.7420 C.3   103  LYS103      0.1596
     43  C          7.6270    8.7580    9.5240 C.2   103  LYS103      0.2287
     44  O          6.7180    8.3270   10.2330 O.2   103  LYS103     -0.2864
     45  CB         9.2650   10.1100   10.8410 C.3   103  LYS103      0.0298
     46  CG        10.1110   11.3650   10.9400 C.3   103  LYS103      0.0038
     47  CD        10.7100   11.6940    9.5890 C.3   103  LYS103      0.0206
     48  CE        11.3160   13.0770    9.5650 C.3   103  LYS103      0.1093
     49  NZ        11.5920   13.4990    8.1680 N.3   103  LYS103     -0.1314
     50  N         10.3880    6.0180   13.5120 N.3   106  VAL106     -0.1231
     51  CA        11.0010    6.7290   14.6300 C.3   106  VAL106      0.1692
     52  C         11.4750    5.7930   15.7470 C.2   106  VAL106      0.2593
     53  O         10.7890    4.8310   16.1130 O.2   106  VAL106     -0.2718
     54  CB        10.0290    7.7840   15.2350 C.3   106  VAL106      0.0266
     55  CG1        9.7220    8.8490   14.1990 C.3   106  VAL106      0.0020
     56  CG2        8.7420    7.1220   15.7040 C.3   106  VAL106      0.0020
     57  N         12.6570    6.0870   16.2850 N.am  107  THR107     -0.1939
     58  CA        13.2340    5.3100   17.3800 C.3   107  THR107      0.2028
     59  C         13.6630    6.2580   18.5020 C.2   107  THR107      0.2642
     60  O         14.2220    7.3240   18.2400 O.2   107  THR107     -0.2714
     61  CB        14.4800    4.5110   16.9000 C.3   107  THR107      0.1808
     62  OG1       14.1130    3.6330   15.8280 O.3   107  THR107     -0.2208
     63  CG2       15.0640    3.6890   18.0380 C.3   107  THR107      0.0379
     64  N         13.3980    5.8760   19.7480 N.am  108  VAL108     -0.1977
     65  CA        13.9730    6.5940   20.8780 C.3   108  VAL108      0.1596
     66  C         15.2020    5.8660   21.4110 C.2   108  VAL108      0.2287
     67  O         15.1690    4.6600   21.6400 O.2   108  VAL108     -0.2864
     68  CB        12.9640    6.7440   22.0440 C.3   108  VAL108      0.0276
     69  CG1       12.5950    5.3680   22.5950 C.3   108  VAL108      0.0022
     70  CG2       13.5750    7.6030   23.1570 C.3   108  VAL108      0.0022
     71  N         17.0170   12.0530   10.7880 N.3   179  VAL179     -0.1245
     72  CA        16.7620   13.1130   11.7460 C.3   179  VAL179      0.1561
     73  C         17.0100   12.6730   13.1720 C.2   179  VAL179      0.2260
     74  O         16.5740   11.5980   13.5930 O.2   179  VAL179     -0.2867
     75  CB        15.3200   13.6220   11.6420 C.3   179  VAL179      0.0252
     76  CG1       14.9760   14.4570   12.8610 C.3   179  VAL179      0.0019
     77  CG2       15.1630   14.4550   10.3890 C.3   179  VAL179      0.0019
     78  N         16.9240   14.3510   17.0670 N.3   181  TYR181     -0.1241
     79  CA        16.7560   15.4160   18.0350 C.3   181  TYR181      0.1605
     80  C         17.5180   15.0560   19.3050 C.2   181  TYR181      0.2264
     81  O         17.3890   13.9470   19.8170 O.2   181  TYR181     -0.2867
     82  CB        15.2700   15.6230   18.3490 C.3   181  TYR181      0.0534
     83  CG        14.5400   16.5400   17.3770 C.ar  181  TYR181     -0.0201
     84  CD1       14.6640   16.3820   15.9970 C.ar  181  TYR181     -0.0009
     85  CD2       13.7070   17.5530   17.8440 C.ar  181  TYR181     -0.0009
     86  CE1       13.9720   17.2100   15.1050 C.ar  181  TYR181      0.0417
     87  CE2       13.0120   18.3870   16.9630 C.ar  181  TYR181      0.0417
     88  CZ        13.1450   18.2120   15.5960 C.ar  181  TYR181      0.1957
     89  OH        12.4460   19.0350   14.7340 O.3   181  TYR181     -0.2866
     90  N         18.6140   11.9230   25.7970 N.3   186  ASP186     -0.1239
     91  CA        17.8440   11.1790   24.8150 C.3   186  ASP186      0.1674
     92  C         18.2590   11.5120   23.3980 C.2   186  ASP186      0.2266
     93  O         18.7560   12.5990   23.1130 O.2   186  ASP186     -0.2867
     94  CB        16.3600   11.4850   24.9610 C.3   186  ASP186      0.1410
     95  CG        15.6860   10.6120   25.9790 C.2   186  ASP186      0.3668
     96  OD1       16.3590    9.7540   26.5890 O.co2 186  ASP186     -0.2456
     97  OD2       14.4710   10.7870   26.1640 O.co2 186  ASP186     -0.2456
     98  N         16.2100   11.1820   19.6140 N.3   188  TYR188     -0.1227
     99  CA        15.0300   10.7540   18.8830 C.3   188  TYR188      0.1736
    100  C         15.3810   10.7190   17.4090 C.2   188  TYR188      0.2595
    101  O         15.8290   11.7190   16.8410 O.2   188  TYR188     -0.2718
    102  CB        13.8670   11.7080   19.1410 C.3   188  TYR188      0.0548
    103  CG        13.6870   12.0450   20.6030 C.ar  188  TYR188     -0.0200
    104  CD1       13.7100   13.3650   21.0360 C.ar  188  TYR188     -0.0009
    105  CD2       13.4920   11.0510   21.5490 C.ar  188  TYR188     -0.0009
    106  CE1       13.5350   13.6830   22.3730 C.ar  188  TYR188      0.0417
    107  CE2       13.3200   11.3580   22.8820 C.ar  188  TYR188      0.0417
    108  CZ        13.3370   12.6780   23.2880 C.ar  188  TYR188      0.1957
    109  OH        13.1090   13.0060   24.6060 O.3   188  TYR188     -0.2866
    110  N         15.1970    9.5490   16.8060 N.am  189  VAL189     -0.1966
    111  CA        15.7100    9.2960   15.4670 C.3   189  VAL189      0.1727
    112  C         14.5930    8.8840   14.5090 C.2   189  VAL189      0.2616
    113  O         13.7870    7.9920   14.8010 O.2   189  VAL189     -0.2715
    114  CB        16.7960    8.1960   15.5100 C.3   189  VAL189      0.0290
    115  CG1       17.4470    8.0460   14.1440 C.3   189  VAL189      0.0023
    116  CG2       17.8390    8.5420   16.5810 C.3   189  VAL189      0.0023
    117  N         14.5420    9.5550   13.3660 N.am  190  GLY190     -0.1955
    118  CA        13.4870    9.2830   12.4090 C.3   190  GLY190      0.1869
    119  C         13.9700    9.3860   10.9770 C.2   190  GLY190      0.2309
    120  O         14.8930   10.1460   10.6690 O.2   190  GLY190     -0.2863
    121  N         11.4960    1.7100   23.3540 N.3   223  LYS223     -0.1245
    122  CA        10.0870    1.9790   23.6060 C.3   223  LYS223      0.1561
    123  C          9.3260    2.1680   22.2990 C.2   223  LYS223      0.2260
    124  O          9.9110    2.5200   21.2750 O.2   223  LYS223     -0.2867
    125  CB         9.9420    3.2200   24.4910 C.3   223  LYS223      0.0271
    126  CG        10.2470    2.9590   25.9600 C.3   223  LYS223      0.0035
    127  CD        11.1190    4.0440   26.5740 C.3   223  LYS223      0.0206
    128  CE        10.3130    5.2850   26.9330 C.3   223  LYS223      0.1093
    129  NZ        11.1810    6.4000   27.4290 N.3   223  LYS223     -0.1314
    130  N          4.5790    7.6800   22.0530 N.3   227  PHE227     -0.1227
    131  CA         5.5390    8.2000   23.0180 C.3   227  PHE227      0.1736
    132  C          4.8920    9.2860   23.8460 C.2   227  PHE227      0.2595
    133  O          4.2460   10.1850   23.3170 O.2   227  PHE227     -0.2718
    134  CB         6.7560    8.7930   22.3130 C.3   227  PHE227      0.0547
    135  CG         7.3800    7.8770   21.3090 C.ar  227  PHE227     -0.0202
    136  CD1        8.0460    6.7380   21.7160 C.ar  227  PHE227     -0.0042
    137  CD2        7.3030    8.1580   19.9560 C.ar  227  PHE227     -0.0042
    138  CE1        8.6190    5.9000   20.7940 C.ar  227  PHE227     -0.0003
    139  CE2        7.8770    7.3220   19.0290 C.ar  227  PHE227     -0.0003
    140  CZ         8.5360    6.1910   19.4490 C.ar  227  PHE227     -0.0000
    141  N          5.0750    9.1990   25.1530 N.am  228  LEU228     -0.1966
    142  CA         4.7110   10.2850   26.0320 C.3   228  LEU228      0.1728
    143  C          5.9720   11.0640   26.3460 C.2   228  LEU228      0.2616
    144  O          6.9890   10.4860   26.7000 O.2   228  LEU228     -0.2715
    145  CB         4.0840    9.7320   27.3050 C.3   228  LEU228      0.0311
    146  CG         2.6640    9.1900   27.1140 C.3   228  LEU228      0.0022
    147  CD1        2.6790    8.0090   26.1530 C.3   228  LEU228      0.0001
    148  CD2        2.0960    8.7750   28.4590 C.3   228  LEU228      0.0001
    149  N          5.9060   12.3790   26.1960 N.am  229  TRP229     -0.1974
    150  CA         7.0910   13.2260   26.2780 C.3   229  TRP229      0.1640
    151  C          6.6930   14.6370   26.6640 C.2   229  TRP229      0.2290
    152  O          5.9150   15.2690   25.9700 O.2   229  TRP229     -0.2864
    153  CB         7.8130   13.2430   24.9210 C.3   229  TRP229      0.0576
    154  CG         8.9880   14.1860   24.8480 C.ar  229  TRP229      0.0006
    155  CD1       10.2450   13.9730   25.3360 C.ar  229  TRP229      0.0946
    156  CD2        9.0070   15.4890   24.2520 C.ar  229  TRP229      0.0152
    157  NE1       11.0440   15.0620   25.0840 N.ar  229  TRP229     -0.2442
    158  CE2       10.3100   16.0070   24.4190 C.ar  229  TRP229      0.0810
    159  CE3        8.0490   16.2700   23.5930 C.ar  229  TRP229      0.0012
    160  CZ2       10.6790   17.2660   23.9530 C.ar  229  TRP229      0.0191
    161  CZ3        8.4170   17.5210   23.1310 C.ar  229  TRP229      0.0001
    162  CH2        9.7200   18.0070   23.3130 C.ar  229  TRP229      0.0015
    163  N          2.7580   11.5690   21.5990 N.3   234  LEU234     -0.1231
    164  CA         3.2730   11.6590   20.2510 C.3   234  LEU234      0.1693
    165  C          2.9980   10.3680   19.5310 C.2   234  LEU234      0.2592
    166  O          3.6480    9.3680   19.7860 O.2   234  LEU234     -0.2718
    167  CB         4.7720   11.9410   20.2870 C.3   234  LEU234      0.0284
    168  CG         5.1090   13.2200   21.0570 C.3   234  LEU234      0.0019
    169  CD1        6.6160   13.4080   21.1240 C.3   234  LEU234      0.0001
    170  CD2        4.4350   14.4150   20.3850 C.3   234  LEU234      0.0001
    171  N          2.0250   10.3850   18.6350 N.am  235  HIS235     -0.1962
    172  CA         1.7160    9.2040   17.8450 C.3   235  HIS235      0.1772
    173  C          2.3890    9.2890   16.4920 C.2   235  HIS235      0.2462
    174  O          2.9050   10.3270   16.1100 O.2   235  HIS235     -0.2730
    175  CB         0.2070    9.0620   17.6770 C.3   235  HIS235      0.0785
    176  CG        -0.5240    8.9440   18.9730 C.ar  235  HIS235      0.0821
    177  ND1       -1.1930    7.7990   19.3480 N.ar  235  HIS235     -0.2267
    178  CD2       -0.6690    9.8200   19.9950 C.ar  235  HIS235      0.1154
    179  CE1       -1.7200    7.9760   20.5480 C.ar  235  HIS235      0.1986
    180  NE2       -1.4170    9.1930   20.9620 N.ar  235  HIS235     -0.2212
    181  N          2.3990    8.1800   15.7520 N.am  236  PRO236     -0.2727
    182  CA         3.0820    8.1050   14.4580 C.3   236  PRO236      0.1402
    183  C          2.6910    9.1810   13.4470 C.2   236  PRO236      0.2269
    184  O          3.5680    9.7700   12.8200 O.2   236  PRO236     -0.2865
    185  CB         2.7600    6.6960   13.9700 C.3   236  PRO236      0.0296
    186  CG         2.5720    5.9130   15.2410 C.3   236  PRO236      0.0237
    187  CD         1.9000    6.8650   16.1900 C.3   236  PRO236      0.0939
    188  N          1.2020   16.7530   11.8710 N.3   318  TYR318     -0.1241
    189  CA         2.5880   17.1810   11.7670 C.3   318  TYR318      0.1605
    190  C          2.8060   18.0810   10.5700 C.2   318  TYR318      0.2264
    191  O          1.8960   18.3260    9.7890 O.2   318  TYR318     -0.2867
    192  CB         3.5230   15.9630   11.7000 C.3   318  TYR318      0.0534
    193  CG         3.5360   15.1790   12.9950 C.ar  318  TYR318     -0.0201
    194  CD1        3.9320   15.7810   14.1840 C.ar  318  TYR318     -0.0009
    195  CD2        3.1330   13.8540   13.0390 C.ar  318  TYR318     -0.0009
    196  CE1        3.9240   15.0930   15.3790 C.ar  318  TYR318      0.0417
    197  CE2        3.1240   13.1600   14.2280 C.ar  318  TYR318      0.0417
    198  CZ         3.5240   13.7880   15.3950 C.ar  318  TYR318      0.1957
    199  OH         3.5460   13.1080   16.5890 O.3   318  TYR318     -0.2866
@<TRIPOS>BOND
     1    40    39    1
     2    39    38    1
     3    31    30    1
     4    29    30    1
     5    29    28    1
     6    38    37    1
     7    49    48    1
     8    35    34    2
     9    28    27    1
    10    36    37    1
    11    36    33    1
    12    27    24    1
    13    34    33    1
    14    34    41   am
    15    43    42    1
    16    43    44    2
    17    48    47    1
    18    47    46    1
    19    42    41    1
    20    42    45    1
    21    32    33    1
    22    32    25   am
    23   191   190    2
    24    24    25    1
    25    24    23    1
    26    77    75    1
    27    25    26    2
    28   190   189    1
    29   120   119    2
    30    71    72    1
    31    45    46    1
    32   119   118    1
    33    23    17   am
    34    75    72    1
    35    75    76    1
    36   192   189    1
    37   192   193    1
    38    72    73    1
    39   189   188    1
    40    18    17    2
    41    17    16    1
    42   118   117    1
    43   184   183    2
    44   193   195   ar
    45   193   194   ar
    46   195   197   ar
    47    73    74    2
    48   117   112   am
    49   183   182    1
    50    50    51    1
    51    16    15    1
    52    16    19    1
    53   185   182    1
    54   185   186    1
    55   115   114    1
    56   194   196   ar
    57    55    54    1
    58   197   198   ar
    59   182   181    1
    60   112   113    2
    61   112   111    1
    62    51    54    1
    63    51    52    1
    64    19    20    1
    65    89    88    1
    66    86    88   ar
    67    86    84   ar
    68    54    56    1
    69   186   187    1
    70   196   198   ar
    71   198   199    1
    72   111   114    1
    73   111   110    1
    74   114   116    1
    75    88    87   ar
    76    52    53    2
    77    52    57   am
    78   181   187    1
    79   181   173   am
    80    62    61    1
    81    22    20    1
    82    11    10    2
    83    84    83   ar
    84    20    21    1
    85   174   173    2
    86    57    58    1
    87   173   172    1
    88   110   100   am
    89   101   100    2
    90    61    58    1
    91    61    63    1
    92    87    85   ar
    93    10     9    1
    94    78    79    1
    95    83    85   ar
    96    83    82    1
    97    58    59    1
    98   100    99    1
    99   175   172    1
   100   175   176    1
   101   172   171    1
   102    79    82    1
   103    79    80    1
   104    60    59    2
   105     9    12    1
   106     9     8    1
   107    59    64   am
   108   171   165   am
   109    99   102    1
   110    99    98    1
   111   176   177   ar
   112   176   178   ar
   113   139   140   ar
   114   139   137   ar
   115   102   103    1
   116    12    13    1
   117     8    14    1
   118    80    81    2
   119   177   179   ar
   120   140   138   ar
   121   165   166    2
   122   165   164    1
   123     5     2    1
   124     5     6    1
   125    64    65    1
   126   137   135   ar
   127   178   180   ar
   128     2     3    1
   129     2     1    1
   130   164   167    1
   131   164   163    1
   132   167   168    1
   133     6     7    1
   134   170   168    1
   135     3     4    2
   136    14    13    1
   137   179   180   ar
   138   103   104   ar
   139   103   105   ar
   140   138   136   ar
   141    65    66    1
   142    65    68    1
   143   104   106   ar
   144   168   169    1
   145   124   123    2
   146   135   136   ar
   147   135   134    1
   148     1     7    1
   149    66    67    2
   150   105   107   ar
   151    68    69    1
   152    68    70    1
   153   130   131    1
   154   123   122    1
   155   134   131    1
   156   106   108   ar
   157   107   108   ar
   158   131   132    1
   159    93    92    2
   160   161   162   ar
   161   161   159   ar
   162   108   109    1
   163   162   160   ar
   164   133   132    2
   165   121   122    1
   166    92    91    1
   167   159   156   ar
   168   122   125    1
   169   132   141   am
   170   160   158   ar
   171   156   158   ar
   172   156   154   ar
   173   158   157   ar
   174   125   126    1
   175    91    94    1
   176    91    90    1
   177   154   153    1
   178   154   155   ar
   179   153   150    1
   180    94    95    1
   181   157   155   ar
   182   141   142    1
   183   126   127    1
   184   152   151    2
   185    95    97   ar
   186    95    96   ar
   187   142   143    1
   188   142   145    1
   189   147   146    1
   190   149   150    1
   191   149   143   am
   192   150   151    1
   193   143   144    2
   194   127   128    1
   195   128   129    1
   196   146   145    1
   197   146   148    1
