@<TRIPOS>MOLECULE
tmp/3lauA00.pdb
 163 155 0 0 0
SMALL
GASTEIGER

@<TRIPOS>ATOM
      1  N        -15.5930  -13.2530   21.2420 N.3    14  ARG14      -0.1245
      2  CA       -15.8110  -11.9260   21.8150 C.3    14  ARG14       0.1563
      3  C        -15.1130  -10.8010   21.0530 C.2    14  ARG14       0.2260
      4  O        -14.1110  -11.0220   20.3710 O.2    14  ARG14      -0.2867
      5  CB       -15.3310  -11.8950   23.2690 C.3    14  ARG14       0.0307
      6  CG       -13.8310  -12.1190   23.4300 C.3    14  ARG14       0.0489
      7  CD       -13.3780  -11.7230   24.8250 C.3    14  ARG14       0.2205
      8  NE       -11.9240  -11.7270   24.9660 N.pl3  14  ARG14      -0.0865
      9  CZ       -11.1720  -12.8220   24.9460 C.cat  14  ARG14       0.5346
     10  NH1      -11.7350  -14.0150   24.7940 N.pl3  14  ARG14       0.1354
     11  NH2       -9.8540  -12.7240   25.0760 N.pl3  14  ARG14       0.1354
     12  N        -12.7090   -7.7360   20.4000 N.3    16  LEU16      -0.1231
     13  CA       -11.4150   -7.4010   20.9760 C.3    16  LEU16       0.1693
     14  C        -11.2000   -5.8980   20.9020 C.2    16  LEU16       0.2592
     15  O        -10.4350   -5.3290   21.6790 O.2    16  LEU16      -0.2718
     16  CB       -10.2970   -8.1280   20.2130 C.3    16  LEU16       0.0284
     17  CG       -10.3250   -9.6570   20.3280 C.3    16  LEU16       0.0019
     18  CD1       -9.2680  -10.3070   19.4330 C.3    16  LEU16       0.0001
     19  CD2      -10.0820  -10.0210   21.7830 C.3    16  LEU16       0.0001
     20  N        -11.8870   -5.2590   19.9610 N.am   17  GLY17      -0.1957
     21  CA       -11.7530   -3.8260   19.7990 C.3    17  GLY17       0.1869
     22  C        -12.7800   -3.2740   18.8400 C.2    17  GLY17       0.2309
     23  O        -13.2670   -3.9820   17.9610 O.2    17  GLY17      -0.2863
     24  N        -13.0390   -5.7990   15.6170 N.3    24  VAL24      -0.1245
     25  CA       -12.1080   -6.9030   15.5520 C.3    24  VAL24       0.1561
     26  C        -12.6600   -7.8760   16.5810 C.2    24  VAL24       0.2260
     27  O        -13.0190   -7.4760   17.6900 O.2    24  VAL24      -0.2867
     28  CB       -10.6690   -6.4710   15.9190 C.3    24  VAL24       0.0252
     29  CG1      -10.6360   -5.8910   17.3230 C.3    24  VAL24       0.0019
     30  CG2       -9.7240   -7.6620   15.8070 C.3    24  VAL24       0.0019
     31  N         -7.6720  -13.5960   15.1780 N.3    37  ALA37      -0.1245
     32  CA        -8.5240  -12.4210   15.3090 C.3    37  ALA37       0.1562
     33  C         -9.1310  -12.0380   13.9600 C.2    37  ALA37       0.2260
     34  O         -8.4540  -12.0450   12.9340 O.2    37  ALA37      -0.2867
     35  CB        -7.7220  -11.2490   15.8830 C.3    37  ALA37       0.0290
     36  N        -10.8310   -9.0800   11.8200 N.3    39  LYS39      -0.1245
     37  CA       -11.1250   -7.6530   11.6960 C.3    39  LYS39       0.1561
     38  C        -12.1790   -7.4470   10.6120 C.2    39  LYS39       0.2260
     39  O        -11.9300   -7.7130    9.4330 O.2    39  LYS39      -0.2867
     40  CB        -9.8540   -6.8780   11.3430 C.3    39  LYS39       0.0271
     41  CG       -10.0640   -5.4210   10.9560 C.3    39  LYS39       0.0035
     42  CD       -10.6820   -4.6030   12.0700 C.3    39  LYS39       0.0206
     43  CE       -10.6850   -3.1280   11.6950 C.3    39  LYS39       0.1093
     44  NZ       -11.3490   -2.2670   12.7140 N.3    39  LYS39      -0.1314
     45  N          2.7160   -8.3830   13.7390 N.3    71  LEU71      -0.1245
     46  CA         1.4640   -9.1440   13.7190 C.3    71  LEU71       0.1561
     47  C          1.2150   -9.6860   12.3180 C.2    71  LEU71       0.2260
     48  O          1.2520   -8.9500   11.3320 O.2    71  LEU71      -0.2867
     49  CB         0.2860   -8.2750   14.1570 C.3    71  LEU71       0.0270
     50  CG        -0.9980   -9.0500   14.4950 C.3    71  LEU71       0.0019
     51  CD1       -0.8350   -9.7480   15.8510 C.3    71  LEU71       0.0001
     52  CD2       -2.1890   -8.0930   14.5330 C.3    71  LEU71       0.0001
     53  N        -10.4210   -9.1810    7.5770 N.3    85  LEU85      -0.1245
     54  CA        -8.9850   -9.4250    7.6120 C.3    85  LEU85       0.1561
     55  C         -8.7340  -10.5090    8.6540 C.2    85  LEU85       0.2260
     56  O         -9.2190  -10.4150    9.7810 O.2    85  LEU85      -0.2867
     57  CB        -8.2230   -8.1540    8.0010 C.3    85  LEU85       0.0270
     58  CG        -8.5340   -6.8800    7.2060 C.3    85  LEU85       0.0019
     59  CD1       -7.6120   -5.7570    7.6800 C.3    85  LEU85       0.0001
     60  CD2       -8.3530   -7.1330    5.7180 C.3    85  LEU85       0.0001
     61  N         -6.2840  -12.0860   11.0930 N.3    87  LEU87      -0.1231
     62  CA        -5.0560  -11.7190   11.7950 C.3    87  LEU87       0.1693
     63  C         -4.5940  -12.6460   12.8950 C.2    87  LEU87       0.2592
     64  O         -5.3650  -13.4400   13.4410 O.2    87  LEU87      -0.2718
     65  CB        -5.2200  -10.3260   12.3990 C.3    87  LEU87       0.0284
     66  CG        -5.5880   -9.2600   11.3760 C.3    87  LEU87       0.0019
     67  CD1       -6.2550   -8.0880   12.0630 C.3    87  LEU87       0.0001
     68  CD2       -4.3340   -8.8280   10.6330 C.3    87  LEU87       0.0001
     69  N         -3.3140  -12.5160   13.2230 N.am   88  GLU88      -0.1966
     70  CA        -2.7180  -13.2980   14.2860 C.3    88  GLU88       0.1733
     71  C         -3.3170  -12.7990   15.6020 C.2    88  GLU88       0.2616
     72  O         -3.5900  -11.6080   15.7640 O.2    88  GLU88      -0.2715
     73  CB        -1.2020  -13.0930   14.2900 C.3    88  GLU88       0.0429
     74  CG        -0.4840  -13.6940   15.4990 C.3    88  GLU88       0.1163
     75  CD         1.0000  -13.3750   15.5010 C.2    88  GLU88       0.3649
     76  OE1        1.7070  -13.8270   16.4310 O.co2  88  GLU88      -0.2457
     77  OE2        1.4580  -12.6690   14.5700 O.co2  88  GLU88      -0.2457
     78  N         -3.5350  -13.7090   16.5350 N.am   89  TYR89      -0.1960
     79  CA        -4.0780  -13.3340   17.8230 C.3    89  TYR89       0.1771
     80  C         -2.9250  -13.1670   18.8050 C.2    89  TYR89       0.2619
     81  O         -2.0860  -14.0600   18.9390 O.2    89  TYR89      -0.2715
     82  CB        -5.0380  -14.4160   18.3320 C.3    89  TYR89       0.0574
     83  CG        -5.5680  -14.1250   19.7240 C.ar   89  TYR89      -0.0198
     84  CD1       -6.1760  -12.9010   20.0140 C.ar   89  TYR89      -0.0009
     85  CD2       -5.4800  -15.0750   20.7430 C.ar   89  TYR89      -0.0009
     86  CE1       -6.6850  -12.6310   21.2760 C.ar   89  TYR89       0.0417
     87  CE2       -5.9910  -14.8140   22.0160 C.ar   89  TYR89       0.0417
     88  CZ        -6.5920  -13.5910   22.2710 C.ar   89  TYR89       0.1957
     89  OH        -7.1120  -13.3220   23.5120 O.3    89  TYR89      -0.2866
     90  N         -2.8740  -12.0160   19.4700 N.am   90  ALA90      -0.1964
     91  CA        -1.8370  -11.7290   20.4680 C.3    90  ALA90       0.1713
     92  C         -2.5700  -11.8440   21.8090 C.2    90  ALA90       0.2458
     93  O         -3.2540  -10.9270   22.2300 O.2    90  ALA90      -0.2730
     94  CB        -1.2910  -10.3200   20.2650 C.3    90  ALA90       0.0333
     95  N         -2.4170  -12.9810   22.4970 N.am   91  PRO91      -0.2716
     96  CA        -3.0710  -13.2460   23.7810 C.3    91  PRO91       0.1536
     97  C         -2.8130  -12.3320   24.9840 C.2    91  PRO91       0.2598
     98  O         -3.7030  -12.1640   25.8150 O.2    91  PRO91      -0.2715
     99  CB        -2.7050  -14.7050   24.0500 C.3    91  PRO91       0.0310
    100  CG        -1.3500  -14.7990   23.4750 C.3    91  PRO91       0.0237
    101  CD        -1.4400  -14.0360   22.1760 C.3    91  PRO91       0.0939
    102  N         -1.6280  -11.7340   25.0920 N.am   92  LEU92      -0.1964
    103  CA        -1.3530  -10.8670   26.2440 C.3    92  LEU92       0.1728
    104  C         -1.7630   -9.4010   26.1050 C.2    92  LEU92       0.2617
    105  O         -1.5020   -8.5920   26.9890 O.2    92  LEU92      -0.2715
    106  CB         0.1190  -10.9720   26.6520 C.3    92  LEU92       0.0311
    107  CG         0.4130  -12.1580   27.5810 C.3    92  LEU92       0.0022
    108  CD1       -0.0880  -13.4370   26.9470 C.3    92  LEU92       0.0001
    109  CD2        1.9100  -12.2520   27.8690 C.3    92  LEU92       0.0001
    110  N         -2.4120   -9.0600   24.9980 N.am   93  GLY93      -0.1940
    111  CA        -2.8710   -7.6960   24.8150 C.3    93  GLY93       0.2014
    112  C         -1.8920   -6.6500   24.3170 C.2    93  GLY93       0.2639
    113  O         -0.9040   -6.9550   23.6490 O.2    93  GLY93      -0.2714
    114  N         -2.1770   -5.3970   24.6530 N.am   94  THR94      -0.1950
    115  CA        -1.3510   -4.2790   24.2150 C.3    94  THR94       0.1897
    116  C         -0.3280   -3.7980   25.2240 C.2    94  THR94       0.2313
    117  O         -0.4910   -3.9430   26.4420 O.2    94  THR94      -0.2863
    118  CB        -2.2080   -3.0630   23.8510 C.3    94  THR94       0.1794
    119  OG1       -2.7830   -2.5160   25.0440 O.3    94  THR94      -0.2208
    120  CG2       -3.3230   -3.4640   22.8930 C.3    94  THR94       0.0378
    121  N         -1.8250   -1.1150   27.4270 N.3    97  ARG97      -0.1245
    122  CA        -2.5200   -1.5890   28.6220 C.3    97  ARG97       0.1563
    123  C         -1.5030   -1.8770   29.7340 C.2    97  ARG97       0.2260
    124  O         -1.6810   -1.4620   30.8830 O.2    97  ARG97      -0.2867
    125  CB        -3.3050   -2.8610   28.2890 C.3    97  ARG97       0.0307
    126  CG        -4.1020   -3.4390   29.4510 C.3    97  ARG97       0.0489
    127  CD        -4.8660   -4.6810   29.0150 C.3    97  ARG97       0.2205
    128  NE        -5.7130   -5.2190   30.0740 N.pl3  97  ARG97      -0.0865
    129  CZ        -6.5100   -6.2720   29.9240 C.cat  97  ARG97       0.5346
    130  NH1       -6.5690   -6.9000   28.7570 N.pl3  97  ARG97       0.1354
    131  NH2       -7.2500   -6.6980   30.9390 N.pl3  97  ARG97       0.1354
    132  N          1.1790   -5.1120   20.2680 N.3   140  LEU140     -0.1245
    133  CA         0.5350   -6.2430   20.9260 C.3   140  LEU140      0.1561
    134  C          1.5850   -7.1880   21.5130 C.2   140  LEU140      0.2260
    135  O          2.7630   -7.1330   21.1500 O.2   140  LEU140     -0.2867
    136  CB        -0.3550   -6.9970   19.9330 C.3   140  LEU140      0.0270
    137  CG        -1.5480   -6.1930   19.4000 C.3   140  LEU140      0.0019
    138  CD1       -2.1920   -6.9290   18.2270 C.3   140  LEU140      0.0001
    139  CD2       -2.5660   -5.9780   20.5200 C.3   140  LEU140      0.0001
    140  N          1.3660   -3.8810   15.4250 N.3   150  ALA150     -0.1231
    141  CA         0.0550   -4.0620   14.8210 C.3   150  ALA150      0.1694
    142  C         -0.4980   -2.7630   14.2400 C.2   150  ALA150      0.2592
    143  O         -1.4220   -2.1750   14.7990 O.2   150  ALA150     -0.2718
    144  CB        -0.9120   -4.6180   15.8500 C.3   150  ALA150      0.0304
    145  N          0.0650   -2.3120   13.1230 N.am  151  ASP151     -0.1960
    146  CA        -0.4260   -1.0920   12.4850 C.3   151  ASP151      0.1840
    147  C         -0.5450   -1.2920   10.9760 C.2   151  ASP151      0.2622
    148  O          0.2370   -1.4330   10.1860 O.2   151  ASP151     -0.2715
    149  CB         0.5060    0.0870   12.7700 C.3   151  ASP151      0.1450
    150  CG         1.7740    0.0310   11.9520 C.2   151  ASP151      0.3671
    151  OD1        2.5630   -0.9100   12.1630 O.co2 151  ASP151     -0.2456
    152  OD2        1.9760    0.9220   11.0950 O.co2 151  ASP151     -0.2456
    153  N         -1.9880   -1.4190   10.6920 N.am  152  PHE152     -0.1974
    154  CA        -2.7740   -1.8100    9.5380 C.3   152  PHE152      0.1639
    155  C         -3.7580   -0.6920    9.1890 C.2   152  PHE152      0.2290
    156  O         -3.8130    0.3470    9.8360 O.2   152  PHE152     -0.2864
    157  CB        -3.4440   -2.8140   10.4760 C.3   152  PHE152      0.0560
    158  CG        -3.3300   -4.1710    9.8460 C.ar  152  PHE152     -0.0200
    159  CD1       -2.3350   -4.8300   10.5590 C.ar  152  PHE152     -0.0042
    160  CD2       -3.7520   -4.6580    8.6200 C.ar  152  PHE152     -0.0042
    161  CE1       -1.7640   -5.9830   10.0390 C.ar  152  PHE152     -0.0003
    162  CE2       -3.1740   -5.8160    8.1060 C.ar  152  PHE152     -0.0003
    163  CZ        -2.1810   -6.4820    8.8130 C.ar  152  PHE152     -0.0000
@<TRIPOS>BOND
     1    60    58    1
     2    58    59    1
     3    58    57    1
     4    53    54    1
     5    54    57    1
     6    54    55    1
     7   162   160   ar
     8   162   163   ar
     9   160   158   ar
    10    55    56    2
    11   163   161   ar
    12   155   154    1
    13   155   156    2
    14    39    38    2
    15   154   157    1
    16   154   153    1
    17   158   157    1
    18   158   159   ar
    19   161   159   ar
    20   148   147    2
    21    38    37    1
    22    68    66    1
    23   153   147   am
    24    41    40    1
    25    41    42    1
    26   147   146    1
    27    61    62    1
    28   152   150   ar
    29    48    47    2
    30    40    37    1
    31    66    67    1
    32    66    65    1
    33    43    42    1
    34    43    44    1
    35    37    36    1
    36    62    65    1
    37    62    63    1
    38   150   151   ar
    39   150   149    1
    40    47    46    1
    41   146   149    1
    42   146   145    1
    43    63    69   am
    44    63    64    2
    45    34    33    2
    46   145   142   am
    47    69    70    1
    48    46    45    1
    49    46    49    1
    50    33    32    1
    51    49    50    1
    52   142   143    2
    53   142   141    1
    54    70    73    1
    55    70    71    1
    56    73    74    1
    57    50    52    1
    58    50    51    1
    59    77    75   ar
    60   141   140    1
    61   141   144    1
    62    31    32    1
    63    32    35    1
    64    74    75    1
    65    75    76   ar
    66    25    24    1
    67    25    28    1
    68    25    26    1
    69    71    72    2
    70    71    78   am
    71    30    28    1
    72    28    29    1
    73    78    79    1
    74    26    27    2
    75    79    82    1
    76    79    80    1
    77    23    22    2
    78   138   137    1
    79    82    83    1
    80    80    81    2
    81    80    90   am
    82    22    21    1
    83   137   136    1
    84   137   139    1
    85    18    17    1
    86    90    91    1
    87    83    84   ar
    88    83    85   ar
    89    21    20    1
    90   136   133    1
    91    20    14   am
    92    84    86   ar
    93    16    17    1
    94    16    13    1
    95    94    91    1
    96   132   133    1
    97    17    19    1
    98     4     3    2
    99    12    13    1
   100    91    92    1
   101    85    87   ar
   102    14    13    1
   103    14    15    2
   104   133   134    1
   105     3     2    1
   106   135   134    2
   107     1     2    1
   108    86    88   ar
   109    92    93    2
   110    92    95   am
   111     2     5    1
   112    87    88   ar
   113   101    95    1
   114   101   100    1
   115    88    89    1
   116    95    96    1
   117   120   118    1
   118     5     6    1
   119     6     7    1
   120   100    99    1
   121   113   112    2
   122    96    99    1
   123    96    97    1
   124   118   115    1
   125   118   119    1
   126   115   114    1
   127   115   116    1
   128   112   114   am
   129   112   111    1
   130    10     9    1
   131   111   110    1
   132     7     8    1
   133     9     8    2
   134     9    11    1
   135    97   102   am
   136    97    98    2
   137   110   104   am
   138   102   103    1
   139   116   117    2
   140   104   103    1
   141   104   105    2
   142   103   106    1
   143   106   107    1
   144   108   107    1
   145   121   122    1
   146   107   109    1
   147   125   122    1
   148   125   126    1
   149   122   123    1
   150   130   129    1
   151   127   126    1
   152   127   128    1
   153   123   124    2
   154   129   128    2
   155   129   131    1
