@<TRIPOS>MOLECULE
tmp/3lb0A00.pdb
 130 119 0 0 0
SMALL
GASTEIGER

@<TRIPOS>ATOM
      1  N         11.1020   -5.5240    4.5800 N.3    29  SER29      -0.1217
      2  CA        11.8650   -5.4650    3.3430 C.3    29  SER29       0.1889
      3  C         12.8080   -6.6280    3.1660 C.2    29  SER29       0.2288
      4  O         13.6330   -6.9060    4.0350 O.2    29  SER29      -0.2866
      5  CB        12.7040   -4.2190    3.3140 C.3    29  SER29       0.2089
      6  OG        11.8650   -3.0810    3.3730 O.3    29  SER29      -0.2183
      7  N          7.9490   -6.0570    1.1030 N.3    54  GLU54      -0.1245
      8  CA         8.6000   -5.1850    0.1320 C.3    54  GLU54       0.1567
      9  C          9.8540   -5.8710   -0.3580 C.2    54  GLU54       0.2260
     10  O         10.6690   -6.3120    0.4460 O.2    54  GLU54      -0.2867
     11  CB         8.9720   -3.8330    0.7630 C.3    54  GLU54       0.0388
     12  CG         9.8080   -2.9420   -0.1730 C.3    54  GLU54       0.1160
     13  CD        10.2880   -1.6470    0.4650 C.2    54  GLU54       0.3649
     14  OE1       11.0970   -1.6910    1.4100 O.co2  54  GLU54      -0.2457
     15  OE2        9.8480   -0.5860    0.0120 O.co2  54  GLU54      -0.2457
     16  N         13.2230   -5.0450   -1.9240 N.3    56  ARG56      -0.1245
     17  CA        14.1610   -3.9830   -2.2450 C.3    56  ARG56       0.1563
     18  C         15.0530   -4.4440   -3.4010 C.2    56  ARG56       0.2260
     19  O         16.1410   -5.0080   -3.2120 O.2    56  ARG56      -0.2867
     20  CB        14.9700   -3.5950   -1.0240 C.3    56  ARG56       0.0307
     21  CG        14.2160   -2.6750   -0.0680 C.3    56  ARG56       0.0489
     22  CD        14.0620   -1.2490   -0.5870 C.3    56  ARG56       0.2205
     23  NE        15.3650   -0.6400   -0.8610 N.pl3  56  ARG56      -0.0865
     24  CZ        16.1490   -0.0840    0.0660 C.cat  56  ARG56       0.5346
     25  NH1       15.7580   -0.0240    1.3340 N.pl3  56  ARG56       0.1354
     26  NH2       17.3440    0.4160   -0.3030 N.pl3  56  ARG56       0.1354
     27  N         14.7920    1.3910   -4.7810 N.3    90  ARG90      -0.1245
     28  CA        15.1230    2.6980   -4.1280 C.3    90  ARG90       0.1563
     29  C         16.2670    3.2960   -4.9540 C.2    90  ARG90       0.2260
     30  O         17.3050    2.6510   -5.1160 O.2    90  ARG90      -0.2867
     31  CB        15.5220    2.4780   -2.6870 C.3    90  ARG90       0.0307
     32  CG        15.7640    3.7400   -1.8880 C.3    90  ARG90       0.0489
     33  CD        14.4980    4.5700   -1.6830 C.3    90  ARG90       0.2205
     34  NE        13.3030    3.9300   -1.0870 N.pl3  90  ARG90      -0.0865
     35  CZ        12.1140    3.8080   -1.7020 C.cat  90  ARG90       0.5346
     36  NH1       11.9150    4.2980   -2.9440 N.pl3  90  ARG90       0.1354
     37  NH2       11.0920    3.3050   -1.0460 N.pl3  90  ARG90       0.1354
     38  N         12.2930   10.6350    0.3220 N.3   151  HIS151     -0.1241
     39  CA        13.1820   10.4800    1.4540 C.3   151  HIS151      0.1621
     40  C         14.1200   11.6510    1.5990 C.2   151  HIS151      0.2264
     41  O         14.6090   12.2100    0.6020 O.2   151  HIS151     -0.2867
     42  CB        14.0530    9.2480    1.2800 C.3   151  HIS151      0.0745
     43  CG        13.2690    8.0440    0.9130 C.ar  151  HIS151      0.0817
     44  ND1       12.7300    7.8810   -0.3470 N.ar  151  HIS151     -0.2268
     45  CD2       12.8850    6.9710    1.6380 C.ar  151  HIS151      0.1154
     46  CE1       12.0540    6.7490   -0.3780 C.ar  151  HIS151      0.1986
     47  NE2       12.1390    6.1770    0.8150 N.ar  151  HIS151     -0.2212
     48  N         17.4070   11.8920    3.9220 N.3   153  PHE153     -0.1241
     49  CA        18.2750   11.2280    4.8860 C.3   153  PHE153      0.1605
     50  C         19.1570   12.1510    5.7200 C.2   153  PHE153      0.2264
     51  O         19.8850   11.6730    6.5940 O.2   153  PHE153     -0.2867
     52  CB        19.1590   10.1510    4.1910 C.3   153  PHE153      0.0534
     53  CG        18.4600    8.8610    3.9960 C.ar  153  PHE153     -0.0203
     54  CD1       18.5140    7.8800    4.9730 C.ar  153  PHE153     -0.0042
     55  CD2       17.7150    8.6190    2.8410 C.ar  153  PHE153     -0.0042
     56  CE1       17.8400    6.6820    4.8140 C.ar  153  PHE153     -0.0003
     57  CE2       17.0490    7.4140    2.6740 C.ar  153  PHE153     -0.0003
     58  CZ        17.0990    6.4520    3.6660 C.ar  153  PHE153     -0.0000
     59  N          3.9620    8.3580    0.5610 N.3   178  LYS178     -0.1245
     60  CA         4.8880    7.9400    1.6070 C.3   178  LYS178      0.1561
     61  C          6.0660    8.8840    1.7410 C.2   178  LYS178      0.2260
     62  O          6.6910    9.2250    0.7410 O.2   178  LYS178     -0.2867
     63  CB         5.4210    6.5200    1.2790 C.3   178  LYS178      0.0271
     64  CG         6.2820    5.9930    2.3740 C.3   178  LYS178      0.0035
     65  CD         6.7760    4.5780    2.1810 C.3   178  LYS178      0.0206
     66  CE         7.9970    4.4720    1.3470 C.3   178  LYS178      0.1093
     67  NZ         8.8270    3.3140    1.8640 N.3   178  LYS178     -0.1314
     68  N          9.6520    9.6990    4.2900 N.3   180  ALA180     -0.1245
     69  CA        10.5690    9.4010    5.3870 C.3   180  ALA180      0.1562
     70  C         11.5920   10.5050    5.4690 C.2   180  ALA180      0.2260
     71  O         12.2470   10.8140    4.4690 O.2   180  ALA180     -0.2867
     72  CB        11.2540    8.0450    5.1280 C.3   180  ALA180      0.0290
     73  N          7.2470    8.6290    8.3440 N.3   211  MET211     -0.1245
     74  CA         8.2160    8.2210    9.3390 C.3   211  MET211      0.1570
     75  C          9.3200    9.2390    9.5290 C.2   211  MET211      0.2261
     76  O          9.7360    9.9400    8.5820 O.2   211  MET211     -0.2867
     77  CB         8.8610    6.8500    9.0070 C.3   211  MET211      0.0387
     78  CG         9.3890    6.6870    7.5950 C.3   211  MET211      0.0595
     79  SD         8.2130    6.1020    6.3330 S.3   211  MET211     -0.1393
     80  CE         8.2470    4.3290    6.6300 C.3   211  MET211      0.0692
     81  N         13.0500    8.9990   10.7130 N.3   213  MET213     -0.1245
     82  CA        14.0320    7.9250   10.8550 C.3   213  MET213      0.1570
     83  C         14.9180    8.0390   12.1120 C.2   213  MET213      0.2261
     84  O         14.8330    8.9950   12.8750 O.2   213  MET213     -0.2867
     85  CB        14.8840    7.8860    9.5730 C.3   213  MET213      0.0387
     86  CG        14.0070    7.5560    8.3440 C.3   213  MET213      0.0595
     87  SD        14.8830    7.3070    6.7860 S.3   213  MET213     -0.1393
     88  CE        15.5100    8.9480    6.5730 C.3   213  MET213      0.0692
     89  N          7.1080    5.4860   14.2380 N.3   221  ARG221     -0.1245
     90  CA         6.8290    4.1710   13.6900 C.3   221  ARG221      0.1563
     91  C          5.8120    3.4270   14.5560 C.2   221  ARG221      0.2260
     92  O          5.3080    2.3820   14.1430 O.2   221  ARG221     -0.2867
     93  CB         8.1320    3.3620   13.5380 C.3   221  ARG221      0.0307
     94  CG         9.1820    4.0170   12.6410 C.3   221  ARG221      0.0489
     95  CD        10.3240    3.0620   12.3230 C.3   221  ARG221      0.2205
     96  NE        11.4460    3.6590   11.6020 N.pl3 221  ARG221     -0.0865
     97  CZ        11.6040    3.6290   10.2770 C.cat 221  ARG221      0.5346
     98  NH1       10.7090    3.0360    9.5050 N.pl3 221  ARG221      0.1354
     99  NH2       12.6730    4.1660    9.7160 N.pl3 221  ARG221      0.1354
    100  N          7.4740    0.2330    9.0180 N.3   233  PHE233     -0.1241
    101  CA         8.4740   -0.7870    8.6660 C.3   233  PHE233      0.1605
    102  C          9.1580   -1.3830    9.8980 C.2   233  PHE233      0.2264
    103  O          9.5280   -0.6720   10.8200 O.2   233  PHE233     -0.2867
    104  CB         9.5350   -0.1920    7.7560 C.3   233  PHE233      0.0534
    105  CG         9.0680    0.0590    6.3550 C.ar  233  PHE233     -0.0203
    106  CD1        8.2010    1.0910    6.0700 C.ar  233  PHE233     -0.0042
    107  CD2        9.5230   -0.7430    5.3100 C.ar  233  PHE233     -0.0042
    108  CE1        7.7720    1.3210    4.7670 C.ar  233  PHE233     -0.0003
    109  CE2        9.1040   -0.5140    4.0170 C.ar  233  PHE233     -0.0003
    110  CZ         8.2290    0.5230    3.7470 C.ar  233  PHE233     -0.0000
    111  N         16.0790   -2.2010    7.0630 N.3   240  SER240     -0.1202
    112  CA        16.2780   -1.7180    5.6990 C.3   240  SER240      0.2020
    113  C         16.5460   -0.2090    5.6920 C.2   240  SER240      0.2618
    114  O         16.8820    0.3650    4.6530 O.2   240  SER240     -0.2717
    115  CB        15.0770   -2.0410    4.8050 C.3   240  SER240      0.2103
    116  OG        13.8990   -1.3520    5.2100 O.3   240  SER240     -0.2182
    117  N         16.3880    0.4090    6.8630 N.am  241  ALA241     -0.1979
    118  CA        16.6180    1.8390    7.0550 C.3   241  ALA241      0.1597
    119  C         16.7060    2.0950    8.5600 C.2   241  ALA241      0.2287
    120  O         16.0990    1.3680    9.3430 O.2   241  ALA241     -0.2864
    121  CB        15.4790    2.6610    6.4230 C.3   241  ALA241      0.0319
    122  N         14.1520    1.1570   12.3840 N.3   244  GLN244     -0.1245
    123  CA        13.2380    0.0230   12.3670 C.3   244  GLN244      0.1566
    124  C         13.5750   -0.9000   13.5370 C.2   244  GLN244      0.2260
    125  O         14.7550   -1.2030   13.7910 O.2   244  GLN244     -0.2867
    126  CB        13.3300   -0.7550   11.0360 C.3   244  GLN244      0.0367
    127  CG        12.8800    0.0330    9.7900 C.3   244  GLN244      0.0905
    128  CD        13.1250   -0.7270    8.4860 C.2   244  GLN244      0.2608
    129  OE1       13.5100   -1.8980    8.4950 O.2   244  GLN244     -0.2717
    130  NE2       12.9010   -0.0600    7.3560 N.am  244  GLN244     -0.0878
@<TRIPOS>BOND
     1    30    29    2
     2    29    28    1
     3    27    28    1
     4    28    31    1
     5    18    19    2
     6    18    17    1
     7    36    35    1
     8    31    32    1
     9    17    16    1
    10    17    20    1
    11    32    33    1
    12    35    34    2
    13    35    37    1
    14    33    34    1
    15    20    21    1
    16    23    22    1
    17    23    24    2
    18    22    21    1
    19    46    44   ar
    20    46    47   ar
    21     9     8    1
    22     9    10    2
    23    44    43   ar
    24    26    24    1
    25    12    13    1
    26    12    11    1
    27    15    13   ar
    28    24    25    1
    29     8    11    1
    30     8     7    1
    31    38    39    1
    32    13    14   ar
    33    59    60    1
    34    41    40    2
    35    62    61    2
    36    47    45   ar
    37    43    42    1
    38    43    45   ar
    39    63    60    1
    40    63    64    1
    41    42    39    1
    42    66    67    1
    43    66    65    1
    44    39    40    1
    45    60    61    1
    46    65    64    1
    47    57    55   ar
    48    57    58   ar
    49    55    53   ar
    50     3     2    1
    51     3     4    2
    52     5     2    1
    53     5     6    1
    54     2     1    1
    55    58    56   ar
    56   110   109   ar
    57   110   108   ar
    58    48    49    1
    59    53    52    1
    60    53    54   ar
    61   109   107   ar
    62    52    49    1
    63    68    69    1
    64    71    70    2
    65   114   113    2
    66   108   106   ar
    67   115   116    1
    68   115   112    1
    69    56    54   ar
    70    49    50    1
    71    72    69    1
    72   107   105   ar
    73    69    70    1
    74   113   112    1
    75   113   117   am
    76   112   111    1
    77    50    51    2
    78   106   105   ar
    79    79    80    1
    80    79    78    1
    81   105   104    1
    82   121   118    1
    83    88    87    1
    84    87    86    1
    85   117   118    1
    86   118   119    1
    87   130   128   am
    88    78    77    1
    89   104   101    1
    90    73    74    1
    91    86    85    1
    92   128   129    2
    93   128   127    1
    94   119   120    2
    95    76    75    2
    96   101   100    1
    97   101   102    1
    98    77    74    1
    99    74    75    1
   100    98    97    1
   101    85    82    1
   102    99    97    1
   103   127   126    1
   104   102   103    2
   105    97    96    2
   106    81    82    1
   107    82    83    1
   108   126   123    1
   109    96    95    1
   110    83    84    2
   111    95    94    1
   112   123   122    1
   113   123   124    1
   114    94    93    1
   115   124   125    2
   116    93    90    1
   117    90    89    1
   118    90    91    1
   119    92    91    2
