@<TRIPOS>MOLECULE
tmp/3lb0B00.pdb
 118 108 0 0 0
SMALL
GASTEIGER

@<TRIPOS>ATOM
      1  N         -1.6460    4.6630   41.4510 N.3    29  SER29      -0.1217
      2  CA        -2.3890    5.3800   42.4930 C.3    29  SER29       0.1889
      3  C         -3.3530    4.5140   43.2760 C.2    29  SER29       0.2288
      4  O         -4.0610    3.6720   42.6940 O.2    29  SER29      -0.2866
      5  CB        -3.1660    6.5090   41.8340 C.3    29  SER29       0.2089
      6  OG        -2.2860    7.3460   41.1030 O.3    29  SER29      -0.2183
      7  N         -6.6400    4.5890   45.3310 N.3    31  MET31      -0.1245
      8  CA        -7.7900    5.4840   45.4020 C.3    31  MET31       0.1570
      9  C         -8.8990    5.0530   46.3730 C.2    31  MET31       0.2261
     10  O        -10.0580    5.4300   46.1930 O.2    31  MET31      -0.2867
     11  CB        -8.3390    5.7220   44.0010 C.3    31  MET31       0.0387
     12  CG        -7.3300    6.4320   43.1000 C.3    31  MET31       0.0595
     13  SD        -7.9440    6.7700   41.4410 S.3    31  MET31      -0.1393
     14  CE        -6.5690    7.6980   40.7700 C.3    31  MET31       0.0692
     15  N          1.5220    6.1940   44.5400 N.3    54  GLU54      -0.1245
     16  CA         0.8620    7.4410   44.8830 C.3    54  GLU54       0.1567
     17  C         -0.4010    7.1280   45.6780 C.2    54  GLU54       0.2260
     18  O         -1.2010    6.2850   45.2970 O.2    54  GLU54      -0.2867
     19  CB         0.4720    8.2490   43.6410 C.3    54  GLU54       0.0388
     20  CG        -0.3320    9.4830   43.9830 C.3    54  GLU54       0.1160
     21  CD        -0.8220   10.2440   42.7970 C.2    54  GLU54       0.3649
     22  OE1       -1.6120    9.6690   41.9950 O.co2  54  GLU54      -0.2457
     23  OE2       -0.4630   11.4330   42.7080 O.co2  54  GLU54      -0.2457
     24  N         -3.7810    8.7310   46.5640 N.3    56  ARG56      -0.1245
     25  CA        -4.6860    9.8560   46.2710 C.3    56  ARG56       0.1563
     26  C         -5.5740   10.0790   47.4760 C.2    56  ARG56       0.2260
     27  O         -6.6850    9.5150   47.6000 O.2    56  ARG56      -0.2867
     28  CB        -5.5050    9.6260   44.9930 C.3    56  ARG56       0.0307
     29  CG        -4.7300    9.9200   43.6860 C.3    56  ARG56       0.0489
     30  CD        -4.5720   11.4190   43.4190 C.3    56  ARG56       0.2205
     31  NE        -5.8780   12.0440   43.3100 N.pl3  56  ARG56      -0.0865
     32  CZ        -6.6190   12.0360   42.2210 C.cat  56  ARG56       0.5346
     33  NH1       -6.1710   11.4600   41.1020 N.pl3  56  ARG56       0.1354
     34  NH2       -7.8170   12.6010   42.2590 N.pl3  56  ARG56       0.1354
     35  N         -5.3120   15.8350   45.5850 N.3    90  ARG90      -0.1245
     36  CA        -5.6360   16.6360   44.3940 C.3    90  ARG90       0.1563
     37  C         -6.7670   17.5820   44.8030 C.2    90  ARG90       0.2260
     38  O         -7.8210   17.1210   45.2520 O.2    90  ARG90      -0.2867
     39  CB        -6.0730   15.7540   43.2350 C.3    90  ARG90       0.0307
     40  CG        -6.3840   16.4750   41.9400 C.3    90  ARG90       0.0489
     41  CD        -5.1760   17.0870   41.2340 C.3    90  ARG90       0.2205
     42  NE        -4.0340   16.1770   41.0720 N.pl3  90  ARG90      -0.0865
     43  CZ        -2.8310   16.3360   41.6370 C.cat  90  ARG90       0.5346
     44  NH1       -2.5680   17.3750   42.4480 N.pl3  90  ARG90       0.1354
     45  NH2       -1.8810   15.4390   41.3870 N.pl3  90  ARG90       0.1354
     46  N         -2.7720   21.1100   36.4410 N.3   151  HIS151     -0.1241
     47  CA        -3.6420   20.3580   35.5760 C.3   151  HIS151      0.1621
     48  C         -4.5900   21.2690   34.8440 C.2   151  HIS151      0.2264
     49  O         -4.9060   22.3790   35.2950 O.2   151  HIS151     -0.2867
     50  CB        -4.4660   19.3730   36.4010 C.3   151  HIS151      0.0745
     51  CG        -3.6680   18.6690   37.4400 C.ar  151  HIS151      0.0817
     52  ND1       -3.2670   19.2920   38.6010 N.ar  151  HIS151     -0.2268
     53  CD2       -3.1710   17.4130   37.4920 C.ar  151  HIS151      0.1154
     54  CE1       -2.5610   18.4470   39.3270 C.ar  151  HIS151      0.1986
     55  NE2       -2.4850   17.3010   38.6770 N.ar  151  HIS151     -0.2212
     56  N         -7.9210   19.9070   32.8840 N.3   153  PHE153     -0.1241
     57  CA        -8.6910   18.7260   32.4730 C.3   153  PHE153      0.1605
     58  C         -9.6120   18.9480   31.2850 C.2   153  PHE153      0.2264
     59  O        -10.2680   17.9970   30.8490 O.2   153  PHE153     -0.2867
     60  CB        -9.5220   18.1660   33.6460 C.3   153  PHE153      0.0534
     61  CG        -8.7390   17.3450   34.5840 C.ar  153  PHE153     -0.0203
     62  CD1       -8.5610   15.9850   34.3400 C.ar  153  PHE153     -0.0042
     63  CD2       -8.1670   17.9020   35.7300 C.ar  153  PHE153     -0.0042
     64  CE1       -7.8190   15.2060   35.1980 C.ar  153  PHE153     -0.0003
     65  CE2       -7.4410   17.0970   36.6070 C.ar  153  PHE153     -0.0003
     66  CZ        -7.2650   15.7620   36.3310 C.ar  153  PHE153     -0.0000
     67  N          5.5280   18.9720   37.3710 N.3   178  LYS178     -0.1245
     68  CA         4.6230   18.0330   36.6980 C.3   178  LYS178      0.1561
     69  C          3.3920   18.7380   36.1640 C.2   178  LYS178      0.2260
     70  O          2.7500   19.5040   36.8780 O.2   178  LYS178     -0.2867
     71  CB         4.2080   16.9430   37.6610 C.3   178  LYS178      0.0271
     72  CG         3.2700   15.9030   37.0670 C.3   178  LYS178      0.0035
     73  CD         3.1160   14.7260   37.9900 C.3   178  LYS178      0.0206
     74  CE         2.2760   15.0570   39.2060 C.3   178  LYS178      0.1093
     75  NZ         0.8350   15.2450   38.8820 N.3   178  LYS178     -0.1314
     76  N         -0.2300   18.1040   33.5910 N.3   180  ALA180     -0.1245
     77  CA        -1.1260   17.2500   32.8160 C.3   180  ALA180      0.1562
     78  C         -2.1760   18.1300   32.1730 C.2   180  ALA180      0.2260
     79  O         -2.8490   18.9050   32.8550 O.2   180  ALA180     -0.2867
     80  CB        -1.7820   16.1920   33.7140 C.3   180  ALA180      0.0290
     81  N          2.1730   15.1060   30.7020 N.3   211  MET211     -0.1245
     82  CA         1.2240   14.1710   30.1010 C.3   211  MET211      0.1570
     83  C          0.1120   14.8880   29.3750 C.2   211  MET211      0.2261
     84  O         -0.3170   15.9710   29.8040 O.2   211  MET211     -0.2867
     85  CB         0.6000   13.2540   31.1720 C.3   211  MET211      0.0387
     86  CG         0.1540   13.9440   32.4520 C.3   211  MET211      0.0595
     87  SD         1.3910   14.0680   33.8070 S.3   211  MET211     -0.1393
     88  CE         1.4700   12.3400   34.2540 C.3   211  MET211      0.0692
     89  N         -3.6010   13.9590   28.4870 N.3   213  MET213     -0.1245
     90  CA        -4.6070   12.9740   28.9300 C.3   213  MET213      0.1570
     91  C         -5.4960   12.4260   27.8050 C.2   213  MET213      0.2261
     92  O         -5.4280   12.8810   26.6530 O.2   213  MET213     -0.2867
     93  CB        -5.4330   13.6360   30.0490 C.3   213  MET213      0.0387
     94  CG        -4.5430   13.9750   31.2610 C.3   213  MET213      0.0595
     95  SD        -5.3600   14.5770   32.7420 S.3   213  MET213     -0.1393
     96  CE        -5.9970   16.0920   32.0440 C.3   213  MET213      0.0692
     97  N          2.3920    9.2240   27.2730 N.3   221  ARG221     -0.1245
     98  CA         2.6490    8.3630   28.4180 C.3   221  ARG221      0.1563
     99  C          3.7210    7.3220   28.0930 C.2   221  ARG221      0.2260
    100  O          4.2820    6.6980   29.0060 O.2   221  ARG221     -0.2867
    101  CB         1.3260    7.7000   28.8860 C.3   221  ARG221      0.0307
    102  CG         0.2900    8.7270   29.3370 C.3   221  ARG221      0.0489
    103  CD        -1.0460    8.1790   29.8860 C.3   221  ARG221      0.2205
    104  NE        -1.8000    9.2610   30.5340 N.pl3 221  ARG221     -0.0865
    105  CZ        -3.0220    9.1580   31.0400 C.cat 221  ARG221      0.5346
    106  NH1       -3.5780   10.2170   31.6280 N.pl3 221  ARG221      0.1354
    107  NH2       -3.6950    8.0120   30.9650 N.pl3 221  ARG221      0.1354
    108  N          1.8550    7.4940   34.4290 N.3   233  PHE233     -0.1241
    109  CA         0.8790    6.8050   35.3030 C.3   233  PHE233      0.1605
    110  C          0.1950    5.6570   34.5900 C.2   233  PHE233      0.2264
    111  O         -0.0950    5.7170   33.3850 O.2   233  PHE233     -0.2867
    112  CB        -0.1960    7.7610   35.7990 C.3   233  PHE233      0.0534
    113  CG         0.3130    8.8110   36.7510 C.ar  233  PHE233     -0.0203
    114  CD1        1.1680    9.8020   36.3170 C.ar  233  PHE233     -0.0042
    115  CD2       -0.0930    8.8130   38.0830 C.ar  233  PHE233     -0.0042
    116  CE1        1.6300   10.7890   37.1940 C.ar  233  PHE233     -0.0003
    117  CE2        0.3660    9.7940   38.9510 C.ar  233  PHE233     -0.0003
    118  CZ         1.2320   10.7680   38.5030 C.ar  233  PHE233     -0.0000
@<TRIPOS>BOND
     1    92    91    2
     2    97    98    1
     3    91    90    1
     4    99    98    1
     5    99   100    2
     6    98   101    1
     7    89    90    1
     8   101   102    1
     9    90    93    1
    10   102   103    1
    11    83    84    2
    12    83    82    1
    13   103   104    1
    14    93    94    1
    15    82    81    1
    16    82    85    1
    17   104   105    2
    18    59    58    2
    19   107   105    1
    20   105   106    1
    21    85    86    1
    22    94    95    1
    23    58    57    1
    24    96    95    1
    25    78    77    1
    26    78    79    2
    27    86    87    1
    28    57    56    1
    29    57    60    1
    30    77    76    1
    31    77    80    1
    32   111   110    2
    33    60    61    1
    34    87    88    1
    35    62    61   ar
    36    62    64   ar
    37   108   109    1
    38    61    63   ar
    39   110   109    1
    40    48    49    2
    41    48    47    1
    42    64    66   ar
    43   109   112    1
    44    47    50    1
    45    47    46    1
    46    63    65   ar
    47   112   113    1
    48    69    68    1
    49    69    70    2
    50   114   113   ar
    51   114   116   ar
    52    66    65   ar
    53    50    51    1
    54    68    67    1
    55    68    71    1
    56   113   115   ar
    57    72    71    1
    58    72    73    1
    59   116   118   ar
    60    51    53   ar
    61    51    52   ar
    62    53    55   ar
    63    73    74    1
    64   115   117   ar
    65   118   117   ar
    66    52    54   ar
    67    55    54   ar
    68    75    74    1
    69    14    13    1
    70    42    41    1
    71    42    43    2
    72    33    32    1
    73     6     5    1
    74    41    40    1
    75    45    43    1
    76    13    12    1
    77     1     2    1
    78    43    44    1
    79     5     2    1
    80    40    39    1
    81    22    21   ar
    82    32    34    1
    83    32    31    2
    84     2     3    1
    85     4     3    2
    86    23    21   ar
    87    21    20    1
    88    12    11    1
    89    39    36    1
    90    31    30    1
    91    30    29    1
    92    19    20    1
    93    19    16    1
    94    29    28    1
    95    11     8    1
    96    36    37    1
    97    36    35    1
    98    15    16    1
    99    37    38    2
   100    16    17    1
   101    28    25    1
   102    18    17    2
   103     7     8    1
   104     8     9    1
   105    10     9    2
   106    25    24    1
   107    25    26    1
   108    26    27    2
