@<TRIPOS>MOLECULE
tmp/3lb1B01.pdb
 98 97 0 0 0
SMALL
GASTEIGER

@<TRIPOS>ATOM
      1  N         -4.8280   -4.1710  -49.4090 N.3    21  PHE21      -0.1241
      2  CA        -5.6710   -3.8220  -50.5520 C.3    21  PHE21       0.1605
      3  C         -6.4590   -5.0390  -51.0360 C.2    21  PHE21       0.2264
      4  O         -7.6460   -4.9230  -51.3260 O.2    21  PHE21      -0.2867
      5  CB        -4.8510   -3.1800  -51.6770 C.3    21  PHE21       0.0534
      6  CG        -5.6750   -2.7050  -52.8610 C.ar   21  PHE21      -0.0203
      7  CD1       -6.8300   -1.9450  -52.6830 C.ar   21  PHE21      -0.0042
      8  CD2       -5.2650   -3.0020  -54.1570 C.ar   21  PHE21      -0.0042
      9  CE1       -7.5830   -1.5040  -53.7990 C.ar   21  PHE21      -0.0003
     10  CE2       -5.9910   -2.5660  -55.2750 C.ar   21  PHE21      -0.0003
     11  CZ        -7.1490   -1.8090  -55.0990 C.ar   21  PHE21      -0.0000
     12  N         -9.3120   -5.6160  -48.7390 N.3    24  PHE24      -0.1241
     13  CA       -10.3370   -4.6340  -49.0860 C.3    24  PHE24       0.1605
     14  C        -11.1730   -5.0870  -50.2870 C.2    24  PHE24       0.2264
     15  O        -12.4030   -5.0840  -50.2340 O.2    24  PHE24      -0.2867
     16  CB        -9.6810   -3.2630  -49.3270 C.3    24  PHE24       0.0534
     17  CG       -10.5560   -2.2650  -50.0510 C.ar   24  PHE24      -0.0203
     18  CD1      -11.6780   -1.7170  -49.4330 C.ar   24  PHE24      -0.0042
     19  CD2      -10.2260   -1.8430  -51.3400 C.ar   24  PHE24      -0.0042
     20  CE1      -12.4680   -0.7850  -50.0940 C.ar   24  PHE24      -0.0003
     21  CE2      -11.0150   -0.9060  -52.0110 C.ar   24  PHE24      -0.0003
     22  CZ       -12.1370   -0.3760  -51.3850 C.ar   24  PHE24      -0.0000
     23  N        -11.5270    0.5630  -60.4970 N.3    35  PHE35      -0.1241
     24  CA       -10.2330    0.1840  -61.0430 C.3    35  PHE35       0.1605
     25  C        -10.3690   -0.5310  -62.3820 C.2    35  PHE35       0.2264
     26  O        -11.3300   -1.2740  -62.6240 O.2    35  PHE35      -0.2867
     27  CB        -9.4630   -0.6840  -60.0340 C.3    35  PHE35       0.0534
     28  CG        -9.4210   -0.1020  -58.6490 C.ar   35  PHE35      -0.0203
     29  CD1      -10.3750   -0.4620  -57.6990 C.ar   35  PHE35      -0.0042
     30  CD2       -8.4450    0.8260  -58.2990 C.ar   35  PHE35      -0.0042
     31  CE1      -10.3570    0.0880  -56.4220 C.ar   35  PHE35      -0.0003
     32  CE2       -8.4260    1.3830  -57.0260 C.ar   35  PHE35      -0.0003
     33  CZ        -9.3770    1.0120  -56.0860 C.ar   35  PHE35      -0.0000
     34  N         -8.9690   -5.1900  -62.8570 N.3    38  TYR38      -0.1241
     35  CA        -8.7940   -5.9700  -61.6190 C.3    38  TYR38       0.1605
     36  C         -9.8180   -7.1030  -61.4770 C.2    38  TYR38       0.2264
     37  O         -9.5680   -8.0750  -60.7690 O.2    38  TYR38      -0.2867
     38  CB        -8.7790   -5.0930  -60.3510 C.3    38  TYR38       0.0534
     39  CG        -7.5510   -4.2190  -60.1730 C.ar   38  TYR38      -0.0201
     40  CD1       -6.4320   -4.3570  -61.0010 C.ar   38  TYR38      -0.0009
     41  CD2       -7.4960   -3.2680  -59.1580 C.ar   38  TYR38      -0.0009
     42  CE1       -5.3090   -3.5490  -60.8350 C.ar   38  TYR38       0.0417
     43  CE2       -6.3770   -2.4580  -58.9860 C.ar   38  TYR38       0.0417
     44  CZ        -5.2870   -2.6080  -59.8300 C.ar   38  TYR38       0.1957
     45  OH        -4.1760   -1.8130  -59.6670 O.3    38  TYR38      -0.2866
     46  N          1.1220    0.6160  -58.0650 N.3    55  HIS55      -0.1226
     47  CA         0.0820    1.5580  -57.6780 C.3    55  HIS55       0.1752
     48  C         -0.3810    1.3850  -56.2260 C.2    55  HIS55       0.2596
     49  O         -0.6070    2.3760  -55.5330 O.2    55  HIS55      -0.2718
     50  CB        -1.0770    1.4860  -58.6780 C.3    55  HIS55       0.0759
     51  CG        -0.7220    1.9960  -60.0440 C.ar   55  HIS55       0.0818
     52  ND1       -1.6710    2.2930  -60.9970 N.ar   55  HIS55      -0.2268
     53  CD2        0.4770    2.2760  -60.6110 C.ar   55  HIS55       0.1154
     54  CE1       -1.0750    2.7280  -62.0920 C.ar   55  HIS55       0.1986
     55  NE2        0.2300    2.7280  -61.8840 N.ar   55  HIS55      -0.2212
     56  N         -0.4850    0.1400  -55.7590 N.am   56  THR56      -0.1953
     57  CA        -0.8630   -0.1270  -54.3600 C.3    56  THR56       0.1897
     58  C          0.2120    0.3910  -53.4100 C.2    56  THR56       0.2313
     59  O         -0.1000    0.9550  -52.3570 O.2    56  THR56      -0.2863
     60  CB        -1.1820   -1.6180  -54.0720 C.3    56  THR56       0.1794
     61  OG1        0.0050   -2.4130  -54.1890 O.3    56  THR56      -0.2208
     62  CG2       -2.2290   -2.1290  -55.0380 C.3    56  THR56       0.0378
     63  N         -0.1860    4.2110  -53.1660 N.3    59  VAL59      -0.1231
     64  CA        -1.3050    4.5230  -52.2740 C.3    59  VAL59       0.1692
     65  C         -0.8500    4.4540  -50.8120 C.2    59  VAL59       0.2592
     66  O         -1.0510    5.4010  -50.0430 O.2    59  VAL59      -0.2718
     67  CB        -2.4860    3.5700  -52.5310 C.3    59  VAL59       0.0266
     68  CG1       -3.5630    3.6790  -51.4180 C.3    59  VAL59       0.0020
     69  CG2       -3.0820    3.8460  -53.9180 C.3    59  VAL59       0.0020
     70  N         -0.2120    3.3470  -50.4420 N.am   60  PHE60      -0.1976
     71  CA         0.1750    3.1430  -49.0520 C.3    60  PHE60       0.1639
     72  C          1.3790    3.9840  -48.6200 C.2    60  PHE60       0.2290
     73  O          1.4690    4.3460  -47.4540 O.2    60  PHE60      -0.2864
     74  CB         0.3340    1.6560  -48.7190 C.3    60  PHE60       0.0560
     75  CG        -0.9710    0.9630  -48.4880 C.ar   60  PHE60      -0.0200
     76  CD1       -1.3700    0.6210  -47.1990 C.ar   60  PHE60      -0.0042
     77  CD2       -1.8320    0.7030  -49.5530 C.ar   60  PHE60      -0.0042
     78  CE1       -2.5950   -0.0020  -46.9770 C.ar   60  PHE60      -0.0003
     79  CE2       -3.0630    0.0780  -49.3430 C.ar   60  PHE60      -0.0003
     80  CZ        -3.4430   -0.2720  -48.0570 C.ar   60  PHE60      -0.0000
     81  N         -9.5970   10.5660  -57.6100 N.3    89  HIS89      -0.1241
     82  CA       -10.6190   10.3790  -56.5740 C.3    89  HIS89       0.1621
     83  C        -11.9310   11.1260  -56.8510 C.2    89  HIS89       0.2264
     84  O        -12.7730   11.2440  -55.9570 O.2    89  HIS89      -0.2867
     85  CB       -10.0830   10.8140  -55.2050 C.3    89  HIS89       0.0745
     86  CG        -9.0080    9.9260  -54.6610 C.ar   89  HIS89       0.0817
     87  ND1       -8.2270   10.2870  -53.5840 N.ar   89  HIS89      -0.2268
     88  CD2       -8.5660    8.7100  -55.0600 C.ar   89  HIS89       0.1154
     89  CE1       -7.3630    9.3190  -53.3290 C.ar   89  HIS89       0.1986
     90  NE2       -7.5480    8.3510  -54.2110 N.ar   89  HIS89      -0.2212
     91  N        -12.4560    0.8620  -46.9370 N.3   100  LEU100     -0.1245
     92  CA       -11.0120    0.6110  -46.9020 C.3   100  LEU100      0.1561
     93  C        -10.5010    0.4310  -45.4680 C.2   100  LEU100      0.2260
     94  O         -9.7560   -0.5120  -45.1730 O.2   100  LEU100     -0.2867
     95  CB       -10.2260    1.7070  -47.6460 C.3   100  LEU100      0.0270
     96  CG        -8.6910    1.5950  -47.5860 C.3   100  LEU100      0.0019
     97  CD1       -8.1930    0.2570  -48.1520 C.3   100  LEU100      0.0001
     98  CD2       -8.0150    2.7660  -48.3080 C.3   100  LEU100      0.0001
@<TRIPOS>BOND
     1    34    35    1
     2    26    25    2
     3    25    24    1
     4    54    55   ar
     5    54    52   ar
     6    55    53   ar
     7    35    36    1
     8    35    38    1
     9    36    37    2
    10    24    23    1
    11    24    27    1
    12    40    42   ar
    13    40    39   ar
    14    52    51   ar
    15    42    44   ar
    16    53    51   ar
    17    38    39    1
    18    39    41   ar
    19    51    50    1
    20    27    28    1
    21    44    45    1
    22    44    43   ar
    23    41    43   ar
    24    50    47    1
    25    28    30   ar
    26    28    29   ar
    27    30    32   ar
    28    46    47    1
    29    29    31   ar
    30    47    48    1
    31    81    82    1
    32    32    33   ar
    33    83    82    1
    34    83    84    2
    35    82    85    1
    36    31    33   ar
    37    48    56   am
    38    48    49    2
    39    56    57    1
    40    10    11   ar
    41    10     8   ar
    42    85    86    1
    43    11     9   ar
    44    88    86   ar
    45    88    90   ar
    46    62    60    1
    47    86    87   ar
    48    57    60    1
    49    57    58    1
    50    90    89   ar
    51    61    60    1
    52     8     6   ar
    53    69    67    1
    54     9     7   ar
    55    87    89   ar
    56    58    59    2
    57    63    64    1
    58     6     7   ar
    59     6     5    1
    60    67    64    1
    61    67    68    1
    62    64    65    1
    63    21    22   ar
    64    21    19   ar
    65     5     2    1
    66    22    20   ar
    67    19    17   ar
    68     4     3    2
    69     3     2    1
    70    65    70   am
    71    65    66    2
    72     2     1    1
    73    70    71    1
    74    14    15    2
    75    14    13    1
    76    20    18   ar
    77    17    18   ar
    78    17    16    1
    79    77    79   ar
    80    77    75   ar
    81    79    80   ar
    82    16    13    1
    83    13    12    1
    84    71    74    1
    85    71    72    1
    86    74    75    1
    87    72    73    2
    88    75    76   ar
    89    98    96    1
    90    97    96    1
    91    80    78   ar
    92    95    96    1
    93    95    92    1
    94    76    78   ar
    95    91    92    1
    96    92    93    1
    97    93    94    2
