@<TRIPOS>MOLECULE
tmp/3lb3B01.pdb
 107 106 0 0 0
SMALL
GASTEIGER

@<TRIPOS>ATOM
      1  N         -4.8920   -4.1530  -49.0030 N.3    21  PHE21      -0.1241
      2  CA        -5.7350   -3.7780  -50.1320 C.3    21  PHE21       0.1605
      3  C         -6.4910   -4.9920  -50.6720 C.2    21  PHE21       0.2264
      4  O         -7.6550   -4.8800  -51.0730 O.2    21  PHE21      -0.2867
      5  CB        -4.8980   -3.1190  -51.2330 C.3    21  PHE21       0.0534
      6  CG        -5.7110   -2.5940  -52.3910 C.ar   21  PHE21      -0.0203
      7  CD1       -6.8280   -1.7970  -52.1810 C.ar   21  PHE21      -0.0042
      8  CD2       -5.3450   -2.8920  -53.6960 C.ar   21  PHE21      -0.0042
      9  CE1       -7.5730   -1.3170  -53.2650 C.ar   21  PHE21      -0.0003
     10  CE2       -6.0830   -2.4180  -54.7830 C.ar   21  PHE21      -0.0003
     11  CZ        -7.1980   -1.6330  -54.5660 C.ar   21  PHE21      -0.0000
     12  N         -9.3320   -5.6120  -48.3200 N.3    24  PHE24      -0.1241
     13  CA       -10.3600   -4.6460  -48.7000 C.3    24  PHE24       0.1605
     14  C        -11.1560   -5.0940  -49.9490 C.2    24  PHE24       0.2264
     15  O        -12.3790   -5.1100  -49.9270 O.2    24  PHE24      -0.2867
     16  CB        -9.7250   -3.2430  -48.8750 C.3    24  PHE24       0.0534
     17  CG       -10.6020   -2.2480  -49.6010 C.ar   24  PHE24      -0.0203
     18  CD1      -11.7900   -1.7990  -49.0390 C.ar   24  PHE24      -0.0042
     19  CD2      -10.2140   -1.7390  -50.8460 C.ar   24  PHE24      -0.0042
     20  CE1      -12.5850   -0.8780  -49.7060 C.ar   24  PHE24      -0.0003
     21  CE2      -11.0030   -0.8270  -51.5110 C.ar   24  PHE24      -0.0003
     22  CZ       -12.1930   -0.3890  -50.9430 C.ar   24  PHE24      -0.0000
     23  N        -11.3840    0.4570  -60.1180 N.3    35  PHE35      -0.1227
     24  CA       -10.0600    0.0350  -60.5740 C.3    35  PHE35       0.1736
     25  C        -10.1390   -0.8570  -61.7960 C.2    35  PHE35       0.2595
     26  O        -10.6540   -1.9850  -61.7230 O.2    35  PHE35      -0.2718
     27  CB        -9.3220   -0.7280  -59.4740 C.3    35  PHE35       0.0547
     28  CG        -9.3720   -0.0720  -58.1340 C.ar   35  PHE35      -0.0202
     29  CD1      -10.3600   -0.4190  -57.2150 C.ar   35  PHE35      -0.0042
     30  CD2       -8.4290    0.8830  -57.7790 C.ar   35  PHE35      -0.0042
     31  CE1      -10.4100    0.1820  -55.9700 C.ar   35  PHE35      -0.0003
     32  CE2       -8.4730    1.4850  -56.5410 C.ar   35  PHE35      -0.0003
     33  CZ        -9.4570    1.1330  -55.6290 C.ar   35  PHE35      -0.0000
     34  N         -9.5940   -0.3510  -62.8980 N.am   36  LYS36      -0.1980
     35  CA        -9.5860   -1.0850  -64.1610 C.3    36  LYS36       0.1596
     36  C         -8.7370   -2.3490  -64.0710 C.2    36  LYS36       0.2287
     37  O         -7.6760   -2.3570  -63.4330 O.2    36  LYS36      -0.2864
     38  CB        -9.1410   -0.1960  -65.3380 C.3    36  LYS36       0.0298
     39  CG        -8.6940    1.2220  -64.9720 C.3    36  LYS36       0.0038
     40  CD        -7.3630    1.2220  -64.2360 C.3    36  LYS36       0.0206
     41  CE        -7.4130    2.1300  -63.0220 C.3    36  LYS36       0.1093
     42  NZ        -6.9590    1.3880  -61.8090 N.3    36  LYS36      -0.1314
     43  N         -8.9320   -5.1460  -62.4330 N.3    38  TYR38      -0.1241
     44  CA        -8.7350   -5.9060  -61.1880 C.3    38  TYR38       0.1605
     45  C         -9.7580   -7.0390  -61.0540 C.2    38  TYR38       0.2264
     46  O         -9.5340   -8.0150  -60.3290 O.2    38  TYR38      -0.2867
     47  CB        -8.7470   -5.0100  -59.9300 C.3    38  TYR38       0.0534
     48  CG        -7.5160   -4.1420  -59.7060 C.ar   38  TYR38      -0.0201
     49  CD1       -6.4220   -4.1880  -60.5760 C.ar   38  TYR38      -0.0009
     50  CD2       -7.4340   -3.2950  -58.5960 C.ar   38  TYR38      -0.0009
     51  CE1       -5.2950   -3.3890  -60.3620 C.ar   38  TYR38       0.0417
     52  CE2       -6.3140   -2.4880  -58.3740 C.ar   38  TYR38       0.0417
     53  CZ        -5.2490   -2.5450  -59.2620 C.ar   38  TYR38       0.1957
     54  OH        -4.1400   -1.7590  -59.0600 O.3    38  TYR38      -0.2866
     55  N          1.0060    0.6170  -57.7320 N.3    55  HIS55      -0.1226
     56  CA        -0.0560    1.5220  -57.3030 C.3    55  HIS55       0.1752
     57  C         -0.4280    1.3480  -55.8360 C.2    55  HIS55       0.2596
     58  O         -0.5950    2.3370  -55.1260 O.2    55  HIS55      -0.2718
     59  CB        -1.2950    1.3610  -58.1870 C.3    55  HIS55       0.0759
     60  CG        -1.1660    1.9980  -59.5360 C.ar   55  HIS55       0.0818
     61  ND1       -2.2060    2.6710  -60.1390 N.ar   55  HIS55      -0.2268
     62  CD2       -0.1240    2.0650  -60.4000 C.ar   55  HIS55       0.1154
     63  CE1       -1.8120    3.1200  -61.3190 C.ar   55  HIS55       0.1986
     64  NE2       -0.5530    2.7710  -61.4990 N.ar   55  HIS55      -0.2212
     65  N         -0.5390    0.1040  -55.3760 N.am   56  THR56      -0.1953
     66  CA        -0.9090   -0.1590  -53.9900 C.3    56  THR56       0.1897
     67  C          0.1720    0.3490  -53.0300 C.2    56  THR56       0.2313
     68  O         -0.1340    0.8600  -51.9620 O.2    56  THR56      -0.2863
     69  CB        -1.2000   -1.6510  -53.7720 C.3    56  THR56       0.1794
     70  OG1       -2.0930   -2.1040  -54.7980 O.3    56  THR56      -0.2208
     71  CG2       -1.8440   -1.8730  -52.4290 C.3    56  THR56       0.0378
     72  N         -0.1840    4.2010  -52.7540 N.3    59  VAL59      -0.1231
     73  CA        -1.3120    4.4950  -51.8620 C.3    59  VAL59       0.1692
     74  C         -0.8700    4.4050  -50.4070 C.2    59  VAL59       0.2592
     75  O         -1.1310    5.3110  -49.6160 O.2    59  VAL59      -0.2718
     76  CB        -2.4840    3.5200  -52.1070 C.3    59  VAL59       0.0266
     77  CG1       -3.5500    3.6130  -50.9930 C.3    59  VAL59       0.0020
     78  CG2       -3.1060    3.8020  -53.4760 C.3    59  VAL59       0.0020
     79  N         -0.1990    3.3140  -50.0590 N.am   60  PHE60      -0.1976
     80  CA         0.2060    3.1100  -48.6680 C.3    60  PHE60       0.1639
     81  C          1.4000    3.9590  -48.2510 C.2    60  PHE60       0.2290
     82  O          1.5000    4.3350  -47.0880 O.2    60  PHE60      -0.2864
     83  CB         0.3700    1.6190  -48.3460 C.3    60  PHE60       0.0560
     84  CG        -0.9420    0.9400  -48.0640 C.ar   60  PHE60      -0.0200
     85  CD1       -1.3440    0.7030  -46.7620 C.ar   60  PHE60      -0.0042
     86  CD2       -1.8010    0.6040  -49.1050 C.ar   60  PHE60      -0.0042
     87  CE1       -2.5710    0.1040  -46.4890 C.ar   60  PHE60      -0.0003
     88  CE2       -3.0420    0.0090  -48.8490 C.ar   60  PHE60      -0.0003
     89  CZ        -3.4240   -0.2440  -47.5390 C.ar   60  PHE60      -0.0000
     90  N         -9.4510   10.6180  -57.2560 N.3    89  HIS89      -0.1241
     91  CA       -10.4680   10.4200  -56.2290 C.3    89  HIS89       0.1621
     92  C        -11.8000   11.1260  -56.5230 C.2    89  HIS89       0.2264
     93  O        -12.6680   11.1980  -55.6500 O.2    89  HIS89      -0.2867
     94  CB        -9.9140   10.8400  -54.8580 C.3    89  HIS89       0.0745
     95  CG        -8.8620    9.9170  -54.3160 C.ar   89  HIS89       0.0817
     96  ND1       -8.0950   10.2330  -53.2140 N.ar   89  HIS89      -0.2268
     97  CD2       -8.4450    8.6950  -54.7270 C.ar   89  HIS89       0.1154
     98  CE1       -7.2680    9.2350  -52.9560 C.ar   89  HIS89       0.1986
     99  NE2       -7.4570    8.2900  -53.8600 N.ar   89  HIS89      -0.2212
    100  N        -12.3740    0.8000  -46.5500 N.3   100  LEU100     -0.1245
    101  CA       -10.9600    0.4810  -46.5760 C.3   100  LEU100      0.1561
    102  C        -10.4260    0.3540  -45.1510 C.2   100  LEU100      0.2260
    103  O         -9.6750   -0.5640  -44.8390 O.2   100  LEU100     -0.2867
    104  CB       -10.1800    1.5330  -47.3690 C.3   100  LEU100      0.0270
    105  CG        -8.6480    1.4320  -47.3700 C.3   100  LEU100      0.0019
    106  CD1       -8.1590    0.1570  -48.0890 C.3   100  LEU100      0.0001
    107  CD2       -8.0370    2.6830  -47.9860 C.3   100  LEU100      0.0001
@<TRIPOS>BOND
     1    38    39    1
     2    38    35    1
     3    39    40    1
     4    40    41    1
     5    35    36    1
     6    35    34    1
     7    36    37    2
     8    41    42    1
     9    34    25   am
    10    43    44    1
    11    25    26    2
    12    25    24    1
    13    64    63   ar
    14    64    62   ar
    15    63    61   ar
    16    44    45    1
    17    44    47    1
    18    45    46    2
    19    49    51   ar
    20    49    48   ar
    21    24    23    1
    22    24    27    1
    23    62    60   ar
    24    51    53   ar
    25    61    60   ar
    26    47    48    1
    27    48    50   ar
    28    60    59    1
    29    27    28    1
    30    53    54    1
    31    53    52   ar
    32    50    52   ar
    33    59    56    1
    34    28    30   ar
    35    28    29   ar
    36    30    32   ar
    37    55    56    1
    38    56    57    1
    39    90    91    1
    40    29    31   ar
    41    32    33   ar
    42    92    91    1
    43    92    93    2
    44    91    94    1
    45    31    33   ar
    46    57    65   am
    47    57    58    2
    48    65    66    1
    49    94    95    1
    50    70    69    1
    51    10    11   ar
    52    10     8   ar
    53    97    95   ar
    54    97    99   ar
    55    11     9   ar
    56    95    96   ar
    57    66    69    1
    58    66    67    1
    59    99    98   ar
    60    69    71    1
    61     8     6   ar
    62    78    76    1
    63     9     7   ar
    64    96    98   ar
    65    67    68    2
    66    72    73    1
    67     6     7   ar
    68     6     5    1
    69    76    73    1
    70    76    77    1
    71    73    74    1
    72    21    22   ar
    73    21    19   ar
    74     5     2    1
    75     4     3    2
    76    22    20   ar
    77    19    17   ar
    78     3     2    1
    79    74    79   am
    80    74    75    2
    81     2     1    1
    82    79    80    1
    83    14    15    2
    84    14    13    1
    85    20    18   ar
    86    17    18   ar
    87    17    16    1
    88    86    88   ar
    89    86    84   ar
    90    16    13    1
    91    88    89   ar
    92    13    12    1
    93    80    83    1
    94    80    81    1
    95    83    84    1
    96    81    82    2
    97   106   105    1
    98    84    85   ar
    99   107   105    1
   100    89    87   ar
   101   105   104    1
   102   104   101    1
   103    85    87   ar
   104   101   100    1
   105   101   102    1
   106   102   103    2
