@<TRIPOS>MOLECULE
tmp/3lb4A01.pdb
 98 97 0 0 0
SMALL
GASTEIGER

@<TRIPOS>ATOM
      1  N         -9.7900   37.4520   12.8790 N.3    21  PHE21      -0.1241
      2  CA        -8.8740   36.3380   13.0790 C.3    21  PHE21       0.1605
      3  C         -8.1310   35.9560   11.7960 C.2    21  PHE21       0.2264
      4  O         -6.9250   35.6670   11.8490 O.2    21  PHE21      -0.2867
      5  CB        -9.5940   35.1250   13.6580 C.3    21  PHE21       0.0534
      6  CG        -8.6670   33.9830   13.9840 C.ar   21  PHE21      -0.0203
      7  CD1       -7.6900   34.1080   14.9700 C.ar   21  PHE21      -0.0042
      8  CD2       -8.7900   32.7790   13.3180 C.ar   21  PHE21      -0.0042
      9  CE1       -6.8500   33.0330   15.2620 C.ar   21  PHE21      -0.0003
     10  CE2       -7.9550   31.7040   13.6100 C.ar   21  PHE21      -0.0003
     11  CZ        -6.9850   31.8410   14.5860 C.ar   21  PHE21      -0.0000
     12  N         -5.5350   38.4390   11.0580 N.3    24  PHE24      -0.1241
     13  CA        -4.3790   38.1140   11.8970 C.3    24  PHE24       0.1605
     14  C         -3.4900   37.0280   11.2700 C.2    24  PHE24       0.2264
     15  O         -2.2700   37.2490   11.1080 O.2    24  PHE24      -0.2867
     16  CB        -4.8950   37.6880   13.2760 C.3    24  PHE24       0.0534
     17  CG        -3.8670   37.0840   14.1700 C.ar   24  PHE24      -0.0203
     18  CD1       -2.6980   37.7760   14.5030 C.ar   24  PHE24      -0.0042
     19  CD2       -4.1150   35.8400   14.7300 C.ar   24  PHE24      -0.0042
     20  CE1       -1.7590   37.2270   15.3820 C.ar   24  PHE24      -0.0003
     21  CE2       -3.1890   35.2600   15.5950 C.ar   24  PHE24      -0.0003
     22  CZ        -2.0040   35.9650   15.9080 C.ar   24  PHE24      -0.0000
     23  N         -2.4650   26.7680   15.5650 N.3    35  PHE35      -0.1241
     24  CA        -3.8080   26.2220   15.3020 C.3    35  PHE35       0.1605
     25  C         -3.7370   25.1210   14.2390 C.2    35  PHE35       0.2264
     26  O         -4.1340   25.3090   13.0820 O.2    35  PHE35      -0.2867
     27  CB        -4.7790   27.3260   14.8470 C.3    35  PHE35       0.0534
     28  CG        -4.7400   28.5630   15.7040 C.ar   35  PHE35      -0.0203
     29  CD1       -3.7470   29.5360   15.5040 C.ar   35  PHE35      -0.0042
     30  CD2       -5.6730   28.7470   16.7210 C.ar   35  PHE35      -0.0042
     31  CE1       -3.6910   30.6900   16.2940 C.ar   35  PHE35      -0.0003
     32  CE2       -5.6100   29.8810   17.5250 C.ar   35  PHE35      -0.0003
     33  CZ        -4.6380   30.8510   17.3130 C.ar   35  PHE35      -0.0000
     34  N         -6.0610   24.3320   11.3160 N.3    38  TYR38      -0.1241
     35  CA        -6.2600   25.3780   10.3150 C.3    38  TYR38       0.1605
     36  C         -5.1560   25.4240    9.2570 C.2    38  TYR38       0.2264
     37  O         -5.2520   26.1770    8.2890 O.2    38  TYR38      -0.2867
     38  CB        -6.3560   26.7540   10.9860 C.3    38  TYR38       0.0534
     39  CG        -7.3990   26.9310   12.0730 C.ar   38  TYR38      -0.0201
     40  CD1       -8.5120   26.0900   12.1910 C.ar   38  TYR38      -0.0009
     41  CD2       -7.2860   27.9820   12.9620 C.ar   38  TYR38      -0.0009
     42  CE1       -9.4620   26.2910   13.2040 C.ar   38  TYR38       0.0417
     43  CE2       -8.2100   28.1820   13.9620 C.ar   38  TYR38       0.0417
     44  CZ        -9.2800   27.3480   14.0870 C.ar   38  TYR38       0.1957
     45  OH       -10.1870   27.5910   15.0900 O.3    38  TYR38      -0.2866
     46  N        -14.6790   28.3360   17.8020 N.3    55  HIS55      -0.1226
     47  CA       -13.4460   28.8440   18.4480 C.3    55  HIS55       0.1752
     48  C        -13.3290   30.3420   18.3210 C.2    55  HIS55       0.2596
     49  O        -13.1460   31.0620   19.2830 O.2    55  HIS55      -0.2718
     50  CB       -12.1660   28.2270   17.8380 C.3    55  HIS55       0.0759
     51  CG       -10.9260   29.0500   18.0570 C.ar   55  HIS55       0.0818
     52  ND1      -10.2110   29.0150   19.2340 N.ar   55  HIS55      -0.2268
     53  CD2      -10.2830   29.9390   17.2580 C.ar   55  HIS55       0.1154
     54  CE1       -9.1760   29.8330   19.1490 C.ar   55  HIS55       0.1986
     55  NE2       -9.1950   30.4070   17.9590 N.ar   55  HIS55      -0.2212
     56  N        -13.4260   30.8350   17.0850 N.am   56  THR56      -0.1953
     57  CA       -13.2200   32.2730   16.8400 C.3    56  THR56       0.1897
     58  C        -14.2750   33.1080   17.5270 C.2    56  THR56       0.2313
     59  O        -13.9800   34.1660   18.1050 O.2    56  THR56      -0.2863
     60  CB       -13.2160   32.6940   15.3570 C.3    56  THR56       0.1794
     61  OG1      -14.4370   32.2700   14.7340 O.3    56  THR56      -0.2208
     62  CG2      -11.9930   32.1510   14.6170 C.3    56  THR56       0.0378
     63  N        -13.3000   33.2230   21.2180 N.3    59  VAL59      -0.1231
     64  CA       -12.1920   34.1150   21.4520 C.3    59  VAL59       0.1692
     65  C        -12.6790   35.5510   21.5210 C.2    59  VAL59       0.2592
     66  O        -12.3710   36.2780   22.4790 O.2    59  VAL59      -0.2718
     67  CB       -11.1350   33.9740   20.3390 C.3    59  VAL59       0.0266
     68  CG1      -10.0750   35.1190   20.4260 C.3    59  VAL59       0.0020
     69  CG2      -10.5130   32.6250   20.4790 C.3    59  VAL59       0.0020
     70  N        -13.4560   35.9640   20.5320 N.am   60  PHE60      -0.1976
     71  CA       -13.9130   37.3360   20.4900 C.3    60  PHE60       0.1639
     72  C        -14.9710   37.6530   21.5080 C.2    60  PHE60       0.2290
     73  O        -15.0230   38.7980   21.9720 O.2    60  PHE60      -0.2864
     74  CB       -14.2820   37.7380   19.0670 C.3    60  PHE60       0.0560
     75  CG       -13.0720   38.0220   18.2470 C.ar   60  PHE60      -0.0200
     76  CD1      -12.6760   39.3380   18.0180 C.ar   60  PHE60      -0.0042
     77  CD2      -12.2580   36.9650   17.7800 C.ar   60  PHE60      -0.0042
     78  CE1      -11.5180   39.5980   17.2670 C.ar   60  PHE60      -0.0003
     79  CE2      -11.0830   37.2120   17.0600 C.ar   60  PHE60      -0.0003
     80  CZ       -10.7350   38.5480   16.7970 C.ar   60  PHE60      -0.0000
     81  N         -2.9330   28.9100   26.2720 N.3    89  HIS89      -0.1241
     82  CA        -1.9820   29.9900   26.0290 C.3    89  HIS89       0.1621
     83  C         -0.5830   29.7650   26.6370 C.2    89  HIS89       0.2264
     84  O          0.2340   30.6950   26.6590 O.2    89  HIS89      -0.2867
     85  CB        -2.5540   31.3240   26.5540 C.3    89  HIS89       0.0745
     86  CG        -3.7400   31.8340   25.7820 C.ar   89  HIS89       0.0817
     87  ND1       -4.4600   32.9340   26.1890 N.ar   89  HIS89      -0.2268
     88  CD2       -4.3460   31.3860   24.6550 C.ar   89  HIS89       0.1154
     89  CE1       -5.4430   33.1630   25.3320 C.ar   89  HIS89       0.1986
     90  NE2       -5.4000   32.2350   24.3900 N.ar   89  HIS89      -0.2212
     91  N         -1.7660   40.1740   17.1920 N.3   100  LEU100     -0.1245
     92  CA        -3.2330   40.1140   17.0520 C.3   100  LEU100      0.1561
     93  C         -3.8060   41.5100   17.0180 C.2   100  LEU100      0.2260
     94  O         -4.6690   41.8270   16.1800 O.2   100  LEU100     -0.2867
     95  CB        -3.8860   39.3210   18.1920 C.3   100  LEU100      0.0270
     96  CG        -5.4180   39.2130   18.1860 C.3   100  LEU100      0.0019
     97  CD1       -5.9600   38.6010   16.8440 C.3   100  LEU100      0.0001
     98  CD2       -5.9050   38.4160   19.3910 C.3   100  LEU100      0.0001
@<TRIPOS>BOND
     1    37    36    2
     2    36    35    1
     3    35    38    1
     4    35    34    1
     5    38    39    1
     6    12    13    1
     7    15    14    2
     8    14    13    1
     9     3     4    2
    10     3     2    1
    11    13    16    1
    12    39    40   ar
    13    39    41   ar
    14    40    42   ar
    15     1     2    1
    16    41    43   ar
    17     2     5    1
    18    26    25    2
    19    42    44   ar
    20    16    17    1
    21     8    10   ar
    22     8     6   ar
    23    10    11   ar
    24     5     6    1
    25    43    44   ar
    26     6     7   ar
    27    44    45    1
    28    17    18   ar
    29    17    19   ar
    30    25    24    1
    31    18    20   ar
    32    11     9   ar
    33    62    60    1
    34    19    21   ar
    35    61    60    1
    36    27    24    1
    37    27    28    1
    38     7     9   ar
    39    24    23    1
    40    60    57    1
    41    20    22   ar
    42    29    28   ar
    43    29    31   ar
    44    21    22   ar
    45    28    30   ar
    46    94    93    2
    47    31    33   ar
    48    30    32   ar
    49    80    79   ar
    50    80    78   ar
    51    57    56    1
    52    57    58    1
    53    97    96    1
    54    93    92    1
    55    92    91    1
    56    92    95    1
    57    79    77   ar
    58    56    48   am
    59    53    55   ar
    60    53    51   ar
    61    78    76   ar
    62    33    32   ar
    63    58    59    2
    64    77    75   ar
    65    46    47    1
    66    50    51    1
    67    50    47    1
    68    55    54   ar
    69    76    75   ar
    70    51    52   ar
    71    96    95    1
    72    96    98    1
    73    75    74    1
    74    48    47    1
    75    48    49    2
    76    74    71    1
    77    54    52   ar
    78    67    68    1
    79    67    69    1
    80    67    64    1
    81    71    70    1
    82    71    72    1
    83    70    65   am
    84    63    64    1
    85    64    65    1
    86    72    73    2
    87    65    66    2
    88    90    88   ar
    89    90    89   ar
    90    88    86   ar
    91    89    87   ar
    92    86    87   ar
    93    86    85    1
    94    82    81    1
    95    82    85    1
    96    82    83    1
    97    83    84    2
