@<TRIPOS>MOLECULE
tmp/3lb5C00.pdb
 113 110 0 0 0
SMALL
GASTEIGER

@<TRIPOS>ATOM
      1  N        -23.4040  -25.1840   -1.1990 N.3     8  ILE8       -0.1231
      2  CA       -23.4280  -23.7840   -0.7430 C.3     8  ILE8        0.1692
      3  C        -22.7330  -22.8020   -1.6870 C.2     8  ILE8        0.2592
      4  O        -23.2010  -21.6750   -1.8360 O.2     8  ILE8       -0.2718
      5  CB       -22.9240  -23.5870    0.7420 C.3     8  ILE8        0.0266
      6  CG1      -23.0680  -22.1080    1.1570 C.3     8  ILE8        0.0019
      7  CG2      -21.4840  -23.9820    0.8930 C.3     8  ILE8        0.0020
      8  CD1      -23.3660  -21.8520    2.6570 C.3     8  ILE8        0.0001
      9  N        -21.6380  -23.2280   -2.3290 N.am    9  PHE9       -0.1976
     10  CA       -20.9130  -22.3340   -3.2270 C.3     9  PHE9        0.1639
     11  C        -21.6310  -22.1730   -4.5550 C.2     9  PHE9        0.2290
     12  O        -21.6280  -21.0790   -5.1260 O.2     9  PHE9       -0.2864
     13  CB       -19.4140  -22.7150   -3.3880 C.3     9  PHE9        0.0560
     14  CG       -18.5920  -22.4970   -2.1420 C.ar    9  PHE9       -0.0200
     15  CD1      -19.0580  -21.6890   -1.0960 C.ar    9  PHE9       -0.0042
     16  CD2      -17.3250  -23.0690   -2.0250 C.ar    9  PHE9       -0.0042
     17  CE1      -18.2740  -21.5040    0.0620 C.ar    9  PHE9       -0.0003
     18  CE2      -16.5640  -22.9030   -0.8780 C.ar    9  PHE9       -0.0003
     19  CZ       -17.0410  -22.1170    0.1710 C.ar    9  PHE9       -0.0000
     20  N        -24.0900  -19.6560   -3.6660 N.3    12  LEU12      -0.1245
     21  CA       -23.4440  -18.3600   -3.6310 C.3    12  LEU12       0.1561
     22  C        -23.3550  -17.7630   -5.0580 C.2    12  LEU12       0.2260
     23  O        -23.7220  -16.5900   -5.2980 O.2    12  LEU12      -0.2867
     24  CB       -22.0400  -18.5120   -3.0120 C.3    12  LEU12       0.0270
     25  CG       -21.1990  -17.2640   -2.7520 C.3    12  LEU12       0.0019
     26  CD1      -20.3280  -17.4040   -1.4920 C.3    12  LEU12       0.0001
     27  CD2      -20.3070  -16.9200   -3.9530 C.3    12  LEU12       0.0001
     28  N        -27.4800  -17.0100   -1.4110 N.3    17  ILE17      -0.1231
     29  CA       -26.9860  -16.7220   -0.0700 C.3    17  ILE17       0.1678
     30  C        -26.1100  -15.4690   -0.1350 C.2    17  ILE17       0.2434
     31  O        -25.5790  -15.1360   -1.2010 O.2    17  ILE17      -0.2733
     32  CB       -26.1780  -17.8990    0.5410 C.3    17  ILE17       0.0265
     33  CG1      -24.9940  -18.2860   -0.3500 C.3    17  ILE17       0.0019
     34  CG2      -27.0770  -19.0740    0.7360 C.3    17  ILE17       0.0020
     35  CD1      -23.7910  -18.7460    0.4050 C.3    17  ILE17       0.0001
     36  N        -25.9580  -14.7620    0.9960 N.am   18  PRO18      -0.2718
     37  CA       -25.1380  -13.5720    0.9300 C.3    18  PRO18       0.1535
     38  C        -23.6720  -13.9520    0.8300 C.2    18  PRO18       0.2599
     39  O        -23.2700  -15.0470    1.2550 O.2    18  PRO18      -0.2715
     40  CB       -25.4090  -12.8870    2.2810 C.3    18  PRO18       0.0310
     41  CG       -25.7700  -14.0310    3.1980 C.3    18  PRO18       0.0237
     42  CD       -26.6160  -14.8970    2.3090 C.3    18  PRO18       0.0939
     43  N        -22.8820  -13.0500    0.2650 N.am   19  SER19      -0.1936
     44  CA       -21.4400  -13.2240    0.2160 C.3    19  SER19       0.2055
     45  C        -20.7790  -11.8580    0.2560 C.2    19  SER19       0.2642
     46  O        -21.3800  -10.8510   -0.1430 O.2    19  SER19      -0.2714
     47  CB       -21.0210  -13.9840   -1.0530 C.3    19  SER19       0.2130
     48  OG       -21.3910  -13.2740   -2.2190 O.3    19  SER19      -0.2179
     49  N        -19.5380  -11.8360    0.7410 N.am   20  VAL20      -0.1977
     50  CA       -18.7400  -10.6240    0.7480 C.3    20  VAL20       0.1596
     51  C        -17.6400  -10.8480   -0.2780 C.2    20  VAL20       0.2287
     52  O        -16.7030  -11.5990   -0.0410 O.2    20  VAL20      -0.2864
     53  CB       -18.1260  -10.3530    2.1410 C.3    20  VAL20       0.0276
     54  CG1      -17.3090   -9.0410    2.1210 C.3    20  VAL20       0.0022
     55  CG2      -19.2220  -10.3250    3.2340 C.3    20  VAL20       0.0022
     56  N        -14.1070  -14.2340   -2.5350 N.3    31  PHE31      -0.1227
     57  CA       -14.9640  -13.7930   -1.4520 C.3    31  PHE31       0.1736
     58  C        -14.3810  -14.1490   -0.0920 C.2    31  PHE31       0.2595
     59  O        -13.5480  -15.0550    0.0220 O.2    31  PHE31      -0.2718
     60  CB       -16.3870  -14.3610   -1.6130 C.3    31  PHE31       0.0547
     61  CG       -16.4500  -15.8600   -1.6110 C.ar   31  PHE31      -0.0202
     62  CD1      -16.7580  -16.5570   -0.4370 C.ar   31  PHE31      -0.0042
     63  CD2      -16.2050  -16.5820   -2.7710 C.ar   31  PHE31      -0.0042
     64  CE1      -16.8190  -17.9720   -0.4280 C.ar   31  PHE31      -0.0003
     65  CE2      -16.2590  -17.9870   -2.7630 C.ar   31  PHE31      -0.0003
     66  CZ       -16.5590  -18.6760   -1.5850 C.ar   31  PHE31      -0.0000
     67  N        -14.8450  -13.4570    0.9410 N.am   32  MET32      -0.1965
     68  CA       -14.3360  -13.6530    2.2960 C.3    32  MET32       0.1736
     69  C        -14.8370  -14.9330    2.9890 C.2    32  MET32       0.2616
     70  O        -16.0360  -15.2410    3.0050 O.2    32  MET32      -0.2715
     71  CB       -14.6410  -12.4200    3.1580 C.3    32  MET32       0.0427
     72  CG       -14.2290  -11.0890    2.4880 C.3    32  MET32       0.0599
     73  SD       -12.5460  -11.0720    1.8080 S.3    32  MET32      -0.1393
     74  CE       -11.5670  -11.3010    3.2950 C.3    32  MET32       0.0692
     75  N        -13.9060  -15.6510    3.6060 N.am   33  ASP33      -0.1957
     76  CA       -14.2460  -16.8090    4.4080 C.3    33  ASP33       0.1840
     77  C        -14.9180  -16.2920    5.6910 C.2    33  ASP33       0.2622
     78  O        -14.3770  -15.4210    6.4080 O.2    33  ASP33      -0.2715
     79  CB       -12.9790  -17.6020    4.7620 C.3    33  ASP33       0.1450
     80  CG       -13.2790  -18.9960    5.2880 C.2    33  ASP33       0.3671
     81  OD1      -14.0600  -19.1530    6.2510 O.co2  33  ASP33      -0.2456
     82  OD2      -12.6850  -19.9510    4.7540 O.co2  33  ASP33      -0.2456
     83  N        -16.0950  -16.8300    5.9720 N.am   34  ILE34      -0.1963
     84  CA       -16.8320  -16.4330    7.1670 C.3    34  ILE34       0.1727
     85  C        -16.2540  -17.0040    8.4720 C.2    34  ILE34       0.2616
     86  O        -16.6440  -16.5880    9.5760 O.2    34  ILE34      -0.2715
     87  CB       -18.3470  -16.7370    7.0480 C.3    34  ILE34       0.0290
     88  CG1      -18.6060  -18.2470    6.9070 C.3    34  ILE34       0.0022
     89  CG2      -18.9860  -15.8740    5.9010 C.3    34  ILE34       0.0023
     90  CD1      -20.1220  -18.6390    6.9360 C.3    34  ILE34       0.0001
     91  N        -15.3310  -17.9510    8.3450 N.am   35  MET35      -0.1977
     92  CA       -14.6080  -18.4540    9.5160 C.3    35  MET35       0.1605
     93  C        -13.1010  -18.3040    9.3000 C.2    35  MET35       0.2287
     94  O        -12.3740  -19.2960    9.2110 O.2    35  MET35      -0.2864
     95  CB       -15.0060  -19.8890    9.8590 C.3    35  MET35       0.0413
     96  CG       -16.4310  -20.0020   10.4010 C.3    35  MET35       0.0598
     97  SD       -16.8360  -21.6860   10.8570 S.3    35  MET35      -0.1393
     98  CE       -16.9030  -22.4260    9.2330 C.3    35  MET35       0.0692
     99  N        -11.3150  -16.8560   -0.2620 N.3    43  LEU43      -0.1245
    100  CA       -11.5260  -18.0890   -1.0200 C.3    43  LEU43       0.1561
    101  C        -11.6950  -17.7220   -2.4730 C.2    43  LEU43       0.2260
    102  O        -12.2650  -16.6680   -2.7920 O.2    43  LEU43      -0.2867
    103  CB       -12.7870  -18.8230   -0.5530 C.3    43  LEU43       0.0270
    104  CG       -12.7780  -19.1730    0.9560 C.3    43  LEU43       0.0019
    105  CD1      -14.0430  -19.9190    1.3690 C.3    43  LEU43       0.0001
    106  CD2      -11.5480  -19.9940    1.3030 C.3    43  LEU43       0.0001
    107  N        -17.1920  -28.4780    1.7350 N.3    98  VAL98      -0.1245
    108  CA       -17.9810  -27.9330    0.6300 C.3    98  VAL98       0.1561
    109  C        -17.4550  -28.4810   -0.7140 C.2    98  VAL98       0.2260
    110  O        -16.3390  -28.1810   -1.1270 O.2    98  VAL98      -0.2867
    111  CB       -18.0130  -26.3730    0.6090 C.3    98  VAL98       0.0252
    112  CG1      -18.9090  -25.8770   -0.5170 C.3    98  VAL98       0.0019
    113  CG2      -18.4920  -25.7980    1.9530 C.3    98  VAL98       0.0019
@<TRIPOS>BOND
     1    23    22    2
     2    12    11    2
     3    22    21    1
     4    11    10    1
     5    27    25    1
     6    20    21    1
     7    21    24    1
     8    13    10    1
     9    13    14    1
    10    10     9    1
    11    24    25    1
    12   102   101    2
    13    63    65   ar
    14    63    61   ar
    15    65    66   ar
    16    25    26    1
    17    56    57    1
    18   101   100    1
    19     9     3   am
    20    48    47    1
    21    14    16   ar
    22    14    15   ar
    23    16    18   ar
    24     4     3    2
    25     3     2    1
    26    60    61    1
    27    60    57    1
    28    61    62   ar
    29    66    64   ar
    30    57    58    1
    31    28    29    1
    32    31    30    2
    33     1     2    1
    34   110   109    2
    35    15    17   ar
    36    47    44    1
    37   100   103    1
    38   100    99    1
    39    18    19   ar
    40     2     5    1
    41   109   108    1
    42   103   104    1
    43   112   111    1
    44    62    64   ar
    45    33    35    1
    46    33    32    1
    47    51    52    2
    48    51    50    1
    49    46    45    2
    50    30    29    1
    51    30    36   am
    52    58    59    2
    53    58    67   am
    54    29    32    1
    55    17    19   ar
    56    44    45    1
    57    44    43    1
    58    45    49   am
    59    43    38   am
    60    32    34    1
    61   111   108    1
    62   111   113    1
    63   108   107    1
    64    49    50    1
    65     5     7    1
    66     5     6    1
    67    50    53    1
    68    38    37    1
    69    38    39    2
    70    37    36    1
    71    37    40    1
    72    67    68    1
    73   104   106    1
    74   104   105    1
    75    36    42    1
    76     6     8    1
    77    73    72    1
    78    73    74    1
    79    54    53    1
    80    53    55    1
    81    40    41    1
    82    68    69    1
    83    68    71    1
    84    42    41    1
    85    72    71    1
    86    69    70    2
    87    69    75   am
    88    75    76    1
    89    76    79    1
    90    76    77    1
    91    82    80   ar
    92    79    80    1
    93    80    81   ar
    94    77    83   am
    95    77    78    2
    96    89    87    1
    97    83    84    1
    98    88    90    1
    99    88    87    1
   100    87    84    1
   101    84    85    1
   102    91    85   am
   103    91    92    1
   104    85    86    2
   105    94    93    2
   106    98    97    1
   107    93    92    1
   108    92    95    1
   109    95    96    1
   110    96    97    1
