@<TRIPOS>MOLECULE
tmp/3lb6D00.pdb
 67 61 0 0 0
SMALL
GASTEIGER

@<TRIPOS>ATOM
      1  N         47.2180  -64.7900   25.7570 N.3    16  GLY16      -0.1225
      2  CA        47.9440  -63.8480   24.9450 C.3    16  GLY16       0.1811
      3  C         47.0260  -63.1390   23.9810 C.2    16  GLY16       0.2280
      4  O         47.4660  -62.7070   22.9290 O.2    16  GLY16      -0.2866
      5  N         45.5770  -60.3040   24.4150 N.3    18  LEU18      -0.1245
      6  CA        45.6060  -58.8690   24.6760 C.3    18  LEU18       0.1561
      7  C         44.4510  -58.3460   25.5520 C.2    18  LEU18       0.2260
      8  O         44.0850  -57.1730   25.4730 O.2    18  LEU18      -0.2867
      9  CB        45.6960  -58.0980   23.3540 C.3    18  LEU18       0.0270
     10  CG        47.0870  -57.8800   22.7390 C.3    18  LEU18       0.0019
     11  CD1       47.6800  -59.1950   22.3160 C.3    18  LEU18       0.0001
     12  CD2       47.0660  -56.9430   21.5590 C.3    18  LEU18       0.0001
     13  N         55.2020  -50.8080   19.0230 N.3   131  ASN131     -0.1240
     14  CA        54.6180  -51.8720   18.2100 C.3   131  ASN131      0.1653
     15  C         53.1200  -51.9900   18.4590 C.2   131  ASN131      0.2266
     16  O         52.6690  -51.8420   19.5960 O.2   131  ASN131     -0.2867
     17  CB        55.2850  -53.2130   18.5200 C.3   131  ASN131      0.1155
     18  CG        56.6850  -53.3250   17.9410 C.2   131  ASN131      0.2627
     19  OD1       57.3120  -52.3280   17.5730 O.2   131  ASN131     -0.2716
     20  ND2       57.1850  -54.5520   17.8600 N.am  131  ASN131     -0.0877
     21  N         49.7720  -54.4610   18.3500 N.3   133  PHE133     -0.1241
     22  CA        49.2230  -55.7980   18.2120 C.3   133  PHE133      0.1605
     23  C         47.7320  -55.7970   18.5060 C.2   133  PHE133      0.2264
     24  O         47.2610  -55.0890   19.3950 O.2   133  PHE133     -0.2867
     25  CB        49.9520  -56.7530   19.1320 C.3   133  PHE133      0.0534
     26  CG        51.3810  -56.9350   18.7700 C.ar  133  PHE133     -0.0203
     27  CD1       52.2820  -55.8910   18.9150 C.ar  133  PHE133     -0.0042
     28  CD2       51.8300  -58.1390   18.2730 C.ar  133  PHE133     -0.0042
     29  CE1       53.6050  -56.0450   18.5670 C.ar  133  PHE133     -0.0003
     30  CE2       53.1510  -58.3010   17.9360 C.ar  133  PHE133     -0.0003
     31  CZ        54.0420  -57.2500   18.0840 C.ar  133  PHE133     -0.0000
     32  N         47.4410  -63.1420   18.3640 N.3   142  ALA142     -0.1245
     33  CA        47.4880  -61.6980   18.1600 C.3   142  ALA142      0.1562
     34  C         48.3910  -61.2940   16.9870 C.2   142  ALA142      0.2260
     35  O         49.4600  -61.8630   16.7690 O.2   142  ALA142     -0.2867
     36  CB        47.9060  -61.0000   19.4400 C.3   142  ALA142      0.0290
     37  N         47.1550  -53.9250   21.8280 N.3   174  CYS174     -0.1235
     38  CA        48.2980  -53.6360   22.6880 C.3   174  CYS174      0.1677
     39  C         49.4750  -52.9550   21.9910 C.2   174  CYS174      0.2270
     40  O         49.9610  -53.4060   20.9450 O.2   174  CYS174     -0.2867
     41  CB        48.7830  -54.9220   23.3420 C.3   174  CYS174      0.0956
     42  SG        50.1140  -54.6710   24.5100 S.3   174  CYS174     -0.0801
     43  N         53.0670  -52.2290   22.4040 N.3   176  ASN176     -0.1225
     44  CA        54.3500  -52.5520   23.0030 C.3   176  ASN176      0.1785
     45  C         55.2680  -51.3780   22.8670 C.2   176  ASN176      0.2598
     46  O         54.8900  -50.3500   22.3270 O.2   176  ASN176     -0.2718
     47  CB        54.9810  -53.7750   22.3260 C.3   176  ASN176      0.1169
     48  CG        54.1010  -54.9960   22.3980 C.2   176  ASN176      0.2627
     49  OD1       53.1260  -55.1160   21.6630 O.2   176  ASN176     -0.2716
     50  ND2       54.4670  -55.9380   23.2540 N.am  176  ASN176     -0.0877
     51  N         56.4990  -51.5640   23.3080 N.am  177  GLY177     -0.1942
     52  CA        57.5340  -50.5670   23.1420 C.3   177  GLY177      0.2014
     53  C         58.8270  -51.1390   23.6870 C.2   177  GLY177      0.2639
     54  O         58.8010  -52.1120   24.4470 O.2   177  GLY177     -0.2714
     55  N         59.9560  -50.5710   23.2750 N.am  178  SER178     -0.1949
     56  CA        61.2250  -50.8230   23.9500 C.3   178  SER178      0.1924
     57  C         62.1260  -49.6230   23.7530 C.2   178  SER178      0.2314
     58  O         61.7400  -48.6550   23.1010 O.2   178  SER178     -0.2863
     59  CB        61.8990  -52.1010   23.4460 C.3   178  SER178      0.2116
     60  OG        61.7150  -52.2460   22.0540 O.3   178  SER178     -0.2180
     61  N         62.6630  -52.4050   27.7210 N.3   183  PRO183     -0.2116
     62  CA        61.2300  -52.2440   27.4540 C.3   183  PRO183      0.1372
     63  C         60.6110  -51.0590   28.1940 C.2   183  PRO183      0.2244
     64  O         61.2740  -50.4020   28.9970 O.2   183  PRO183     -0.2868
     65  CB        60.6340  -53.5550   27.9710 C.3   183  PRO183      0.0268
     66  CG        61.7350  -54.5430   27.8290 C.3   183  PRO183      0.0207
     67  CD        63.0050  -53.7870   28.1000 C.3   183  PRO183      0.0892
@<TRIPOS>BOND
     1    35    34    2
     2    34    33    1
     3    19    18    2
     4    20    18   am
     5    30    31   ar
     6    30    28   ar
     7    18    17    1
     8    31    29   ar
     9    33    32    1
    10    33    36    1
    11    14    15    1
    12    14    17    1
    13    14    13    1
    14    22    21    1
    15    22    23    1
    16    22    25    1
    17    28    26   ar
    18    15    16    2
    19    23    24    2
    20    29    27   ar
    21    26    27   ar
    22    26    25    1
    23    40    39    2
    24    12    10    1
    25    49    48    2
    26    37    38    1
    27    39    38    1
    28    60    59    1
    29    11    10    1
    30    47    48    1
    31    47    44    1
    32    46    45    2
    33    48    50   am
    34    43    44    1
    35    38    41    1
    36    10     9    1
    37    45    44    1
    38    45    51   am
    39     4     3    2
    40    58    57    2
    41    52    51    1
    42    52    53    1
    43    55    53   am
    44    55    56    1
    45    41    42    1
    46     9     6    1
    47    59    56    1
    48    53    54    2
    49    57    56    1
    50     3     2    1
    51     5     6    1
    52     6     7    1
    53     2     1    1
    54     8     7    2
    55    62    61    1
    56    62    65    1
    57    62    63    1
    58    61    67    1
    59    66    65    1
    60    66    67    1
    61    63    64    2
