@<TRIPOS>MOLECULE
tmp/3lbaA00.pdb
 89 83 0 0 0
SMALL
GASTEIGER

@<TRIPOS>ATOM
      1  N        -10.4900  -29.3120    3.8430 N.3   107  ALA107     -0.1231
      2  CA       -11.4680  -29.7380    4.8450 C.3   107  ALA107      0.1694
      3  C        -11.0620  -31.1300    5.3700 C.2   107  ALA107      0.2592
      4  O        -10.7400  -32.0510    4.5690 O.2   107  ALA107     -0.2718
      5  CB       -12.9100  -29.7930    4.2490 C.3   107  ALA107      0.0304
      6  N        -11.1010  -31.3190    6.6830 N.am  108  ALA108     -0.1966
      7  CA       -10.6080  -32.5640    7.2620 C.3   108  ALA108      0.1728
      8  C        -11.6470  -33.2020    8.2460 C.2   108  ALA108      0.2616
      9  O        -12.4530  -32.5070    8.7970 O.2   108  ALA108     -0.2715
     10  CB        -9.2970  -32.2690    7.9920 C.3   108  ALA108      0.0334
     11  N        -11.5920  -34.4930    8.5240 N.am  109  GLY109     -0.1955
     12  CA       -12.4030  -35.0520    9.6080 C.3   109  GLY109      0.1869
     13  C        -11.5920  -35.0540   10.9010 C.2   109  GLY109      0.2309
     14  O        -10.3400  -35.3140   10.8830 O.2   109  GLY109     -0.2863
     15  N        -15.0730  -42.3270    2.6440 N.3   184  TYR184     -0.1227
     16  CA       -14.6860  -41.9960    4.0330 C.3   184  TYR184      0.1736
     17  C        -14.1790  -43.2230    4.8110 C.2   184  TYR184      0.2595
     18  O        -14.5130  -44.3580    4.4670 O.2   184  TYR184     -0.2718
     19  CB       -15.8580  -41.3690    4.7760 C.3   184  TYR184      0.0548
     20  CG       -16.2860  -39.9990    4.2450 C.ar  184  TYR184     -0.0200
     21  CD1      -15.3790  -38.9530    4.1800 C.ar  184  TYR184     -0.0009
     22  CD2      -17.6150  -39.7590    3.8090 C.ar  184  TYR184     -0.0009
     23  CE1      -15.7530  -37.6970    3.7130 C.ar  184  TYR184      0.0417
     24  CE2      -18.0010  -38.5020    3.3470 C.ar  184  TYR184      0.0417
     25  CZ       -17.0480  -37.4770    3.3030 C.ar  184  TYR184      0.1957
     26  OH       -17.3720  -36.1940    2.8730 O.3   184  TYR184     -0.2866
     27  N        -13.4190  -43.0090    5.8770 N.am  185  GLU185     -0.1979
     28  CA       -12.8110  -44.1280    6.6390 C.3   185  GLU185      0.1602
     29  C        -13.7970  -45.0010    7.4480 C.2   185  GLU185      0.2287
     30  O        -14.8250  -44.5440    7.8470 O.2   185  GLU185     -0.2864
     31  CB       -11.7840  -43.5950    7.6200 C.3   185  GLU185      0.0415
     32  CG       -10.6790  -42.7780    6.9720 C.3   185  GLU185      0.1163
     33  CD       -11.1220  -41.4590    6.3820 C.2   185  GLU185      0.3649
     34  OE1      -11.8610  -40.6660    7.0090 O.co2 185  GLU185     -0.2457
     35  OE2      -10.6480  -41.1360    5.2720 O.co2 185  GLU185     -0.2457
     36  N         -7.8730  -36.0230    9.4440 N.3   201  VAL201     -0.1231
     37  CA        -7.7420  -36.8700    8.2570 C.3   201  VAL201      0.1692
     38  C         -8.4670  -36.2510    7.0420 C.2   201  VAL201      0.2593
     39  O         -9.6530  -35.9290    7.1170 O.2   201  VAL201     -0.2718
     40  CB        -8.2960  -38.2780    8.5290 C.3   201  VAL201      0.0266
     41  CG1       -9.7710  -38.1900    9.0420 C.3   201  VAL201      0.0020
     42  CG2       -8.2820  -39.0870    7.2920 C.3   201  VAL201      0.0020
     43  N         -7.7600  -36.0760    5.9360 N.am  202  GLY202     -0.1942
     44  CA        -8.4460  -35.8380    4.7020 C.3   202  GLY202      0.2014
     45  C         -7.7740  -36.4350    3.4330 C.2   202  GLY202      0.2641
     46  O         -6.8280  -37.2720    3.4870 O.2   202  GLY202     -0.2714
     47  N         -8.2860  -35.9660    2.3150 N.am  203  MET203     -0.1931
     48  CA        -8.0480  -36.4940    1.0150 C.3   203  MET203      0.1821
     49  C         -7.1410  -35.6890    0.1000 C.2   203  MET203      0.2332
     50  O         -7.1240  -35.9190   -1.0570 O.2   203  MET203     -0.2860
     51  CB        -9.3810  -36.7250    0.3340 C.2   203  MET203      0.0096
     52  CG       -10.2420  -37.7400    0.9630 C.2   203  MET203      0.0285
     53  SD       -11.7620  -38.0580    0.1850 S.3   203  MET203     -0.1125
     54  CE       -12.4880  -38.9750    1.4410 C.3   203  MET203      0.0742
     55  N        -14.5850  -30.2380    9.5860 N.3   226  THR226     -0.1203
     56  CA       -15.9630  -30.1440    9.1720 C.3   226  THR226      0.1994
     57  C        -16.8340  -31.2210    9.8140 C.2   226  THR226      0.2617
     58  O        -18.0670  -31.2470    9.6300 O.2   226  THR226     -0.2717
     59  CB       -16.0250  -30.2920    7.6530 C.3   226  THR226      0.1784
     60  OG1      -15.3530  -31.5330    7.2650 O.3   226  THR226     -0.2211
     61  CG2      -15.3450  -29.0870    7.0020 C.3   226  THR226      0.0376
     62  N        -16.2260  -32.1390   10.5380 N.am  227  ASN227     -0.1974
     63  CA       -17.0130  -33.2280   11.1520 C.3   227  ASN227      0.1688
     64  C        -16.0880  -34.1140   12.0230 C.2   227  ASN227      0.2292
     65  O        -14.8760  -34.0810   11.8800 O.2   227  ASN227     -0.2864
     66  CB       -17.6650  -34.0630   10.0520 C.3   227  ASN227      0.1181
     67  CG       -16.5930  -34.6970    9.0850 C.2   227  ASN227      0.2629
     68  OD1      -16.1780  -34.0420    8.1310 O.2   227  ASN227     -0.2716
     69  ND2      -16.1750  -35.9580    9.3430 N.am  227  ASN227     -0.0877
     70  N        -14.4380  -37.4800   12.8000 N.3   229  ALA229     -0.1245
     71  CA       -14.1090  -38.6280   11.9870 C.3   229  ALA229      0.1562
     72  C        -15.1000  -39.8130   12.3030 C.2   229  ALA229      0.2260
     73  O        -15.7580  -39.8430   13.3630 O.2   229  ALA229     -0.2867
     74  CB       -12.6680  -39.0490   12.2110 C.3   229  ALA229      0.0290
     75  N        -21.6130  -40.2220    8.5700 N.3   236  LEU236     -0.1245
     76  CA       -21.0080  -39.0470    7.8970 C.3   236  LEU236      0.1561
     77  C        -21.8560  -38.5270    6.7030 C.2   236  LEU236      0.2260
     78  O        -21.9520  -39.1810    5.6760 O.2   236  LEU236     -0.2867
     79  CB       -19.5760  -39.3580    7.4200 C.3   236  LEU236      0.0270
     80  CG       -18.5470  -39.7820    8.4600 C.3   236  LEU236      0.0019
     81  CD1      -17.1560  -39.3130    8.0880 C.3   236  LEU236      0.0001
     82  CD2      -18.9240  -39.2430    9.8290 C.3   236  LEU236      0.0001
     83  N        -21.6200  -32.0460    5.7670 N.3   239  VAL239     -0.1245
     84  CA       -20.3330  -31.4720    6.0200 C.3   239  VAL239      0.1561
     85  C        -20.4680  -30.0520    5.4410 C.2   239  VAL239      0.2260
     86  O        -19.9780  -29.7540    4.3480 O.2   239  VAL239     -0.2867
     87  CB       -19.3020  -32.3380    5.2710 C.3   239  VAL239      0.0252
     88  CG1      -18.0310  -31.5860    4.9200 C.3   239  VAL239      0.0019
     89  CG2      -19.0210  -33.6080    6.0630 C.3   239  VAL239      0.0019
@<TRIPOS>BOND
     1    50    49    2
     2    49    48    1
     3    53    52    1
     4    53    54    1
     5    51    52    2
     6    51    48    1
     7    48    47    1
     8    47    45   am
     9    15    16    1
    10    26    25    1
    11    25    24   ar
    12    25    23   ar
    13    24    22   ar
    14    45    46    2
    15    45    44    1
    16    23    21   ar
    17    22    20   ar
    18     1     2    1
    19    16    19    1
    20    16    17    1
    21    21    20   ar
    22    20    19    1
    23     5     2    1
    24    86    85    2
    25    18    17    2
    26     4     3    2
    27    44    43    1
    28    17    27   am
    29     2     3    1
    30    88    87    1
    31    87    84    1
    32    87    89    1
    33    35    33   ar
    34     3     6   am
    35    85    84    1
    36    78    77    2
    37    83    84    1
    38    27    28    1
    39    43    38   am
    40    33    32    1
    41    33    34   ar
    42    28    29    1
    43    28    31    1
    44     6     7    1
    45    77    76    1
    46    32    31    1
    47    61    59    1
    48    38    39    2
    49    38    37    1
    50     7    10    1
    51     7     8    1
    52    60    59    1
    53    42    40    1
    54    79    76    1
    55    79    80    1
    56    29    30    2
    57    59    56    1
    58    76    75    1
    59    81    80    1
    60    68    67    2
    61     8    11   am
    62     8     9    2
    63    37    40    1
    64    37    36    1
    65    80    82    1
    66    11    12    1
    67    40    41    1
    68    67    69   am
    69    67    66    1
    70    56    55    1
    71    56    57    1
    72    12    13    1
    73    58    57    2
    74    57    62   am
    75    66    63    1
    76    62    63    1
    77    14    13    2
    78    63    64    1
    79    65    64    2
    80    71    74    1
    81    71    72    1
    82    71    70    1
    83    72    73    2
