@<TRIPOS>MOLECULE
tmp/3lbeB02.pdb
 87 84 0 0 0
SMALL
GASTEIGER

@<TRIPOS>ATOM
      1  N         51.3870   35.5350   -8.5000 N.3    34  ASN34      -0.1240
      2  CA        52.0030   34.2140   -8.5780 C.3    34  ASN34       0.1653
      3  C         51.3900   33.4280   -9.7430 C.2    34  ASN34       0.2266
      4  O         50.5210   33.9410  -10.4510 O.2    34  ASN34      -0.2867
      5  CB        51.9130   33.4480   -7.2490 C.3    34  ASN34       0.1155
      6  CG        50.4810   33.1860   -6.8110 C.2    34  ASN34       0.2627
      7  OD1       49.5720   33.1040   -7.6350 O.2    34  ASN34      -0.2716
      8  ND2       50.2770   33.0430   -5.4950 N.am   34  ASN34      -0.0877
      9  N         49.4000   31.0730   -9.6740 N.3    36  TYR36      -0.1241
     10  CA        47.9990   30.7540   -9.4330 C.3    36  TYR36       0.1605
     11  C         47.1130   31.9520   -9.7970 C.2    36  TYR36       0.2264
     12  O         45.8860   31.8620   -9.7240 O.2    36  TYR36      -0.2867
     13  CB        47.7510   30.3570   -7.9680 C.3    36  TYR36       0.0534
     14  CG        48.4950   29.1320   -7.4760 C.ar   36  TYR36      -0.0201
     15  CD1       48.5920   27.9810   -8.2490 C.ar   36  TYR36      -0.0009
     16  CD2       49.0600   29.1130   -6.2020 C.ar   36  TYR36      -0.0009
     17  CE1       49.2630   26.8490   -7.7740 C.ar   36  TYR36       0.0417
     18  CE2       49.7290   27.9980   -5.7210 C.ar   36  TYR36       0.0417
     19  CZ        49.8290   26.8680   -6.5070 C.ar   36  TYR36       0.1957
     20  OH        50.4960   25.7660   -6.0070 O.3    36  TYR36      -0.2866
     21  N         47.2140   34.9970   -8.2210 N.3    38  PHE38      -0.1227
     22  CA        46.8970   35.7850   -7.0230 C.3    38  PHE38       0.1736
     23  C         48.0680   36.6610   -6.6060 C.2    38  PHE38       0.2595
     24  O         49.2200   36.2920   -6.8280 O.2    38  PHE38      -0.2718
     25  CB        46.6110   34.8710   -5.8310 C.3    38  PHE38       0.0547
     26  CG        45.5490   33.8530   -6.0730 C.ar   38  PHE38      -0.0202
     27  CD1       44.4160   34.1630   -6.8130 C.ar   38  PHE38      -0.0042
     28  CD2       45.6660   32.5810   -5.5230 C.ar   38  PHE38      -0.0042
     29  CE1       43.4310   33.2130   -7.0230 C.ar   38  PHE38      -0.0003
     30  CE2       44.6760   31.6250   -5.7230 C.ar   38  PHE38      -0.0003
     31  CZ        43.5590   31.9440   -6.4750 C.ar   38  PHE38      -0.0000
     32  N         47.7820   37.7950   -5.9610 N.am   39  ALA39      -0.1980
     33  CA        48.8420   38.6150   -5.3950 C.3    39  ALA39       0.1597
     34  C         49.5870   37.7660   -4.3670 C.2    39  ALA39       0.2287
     35  O         48.9640   37.1720   -3.4700 O.2    39  ALA39      -0.2864
     36  CB        48.2610   39.8730   -4.7430 C.3    39  ALA39       0.0319
     37  N         51.8010   36.1440   -1.3070 N.3    41  GLY41      -0.1225
     38  CA        51.7310   36.3940    0.1230 C.3    41  GLY41       0.1811
     39  C         52.7550   37.4120    0.5890 C.2    41  GLY41       0.2280
     40  O         52.4870   38.1930    1.5100 O.2    41  GLY41      -0.2866
     41  N         51.6230   41.1120   -0.2690 N.3    44  ILE44      -0.1245
     42  CA        50.6360   41.5880    0.6950 C.3    44  ILE44       0.1561
     43  C         51.2960   41.8520    2.0440 C.2    44  ILE44       0.2260
     44  O         51.0500   42.8880    2.6660 O.2    44  ILE44      -0.2867
     45  CB        49.4640   40.6000    0.8210 C.3    44  ILE44       0.0252
     46  CG1       48.6750   40.5760   -0.4880 C.3    44  ILE44       0.0019
     47  CG2       48.5290   41.0020    1.9600 C.3    44  ILE44       0.0019
     48  CD1       47.7160   39.4420   -0.5580 C.3    44  ILE44       0.0001
     49  N         45.5020   35.4450    5.4830 N.3    72  TYR72      -0.1227
     50  CA        45.0750   35.7310    4.1170 C.3    72  TYR72       0.1736
     51  C         43.6420   35.2600    3.9690 C.2    72  TYR72       0.2595
     52  O         43.3780   34.0610    3.9500 O.2    72  TYR72      -0.2718
     53  CB        46.0020   35.0440    3.1100 C.3    72  TYR72       0.0548
     54  CG        47.4420   35.5110    3.2360 C.ar   72  TYR72      -0.0200
     55  CD1       47.8780   36.6760    2.6060 C.ar   72  TYR72      -0.0009
     56  CD2       48.3640   34.8030    4.0130 C.ar   72  TYR72      -0.0009
     57  CE1       49.1950   37.1060    2.7310 C.ar   72  TYR72       0.0417
     58  CE2       49.6760   35.2230    4.1350 C.ar   72  TYR72       0.0417
     59  CZ        50.0860   36.3730    3.4960 C.ar   72  TYR72       0.1957
     60  OH        51.3880   36.7930    3.6340 O.3    72  TYR72      -0.2866
     61  N         42.7170   36.2100    3.8740 N.am   73  LEU73      -0.1966
     62  CA        41.2890   35.9040    3.9400 C.3    73  LEU73       0.1728
     63  C         40.6640   35.6700    2.5650 C.2    73  LEU73       0.2616
     64  O         39.7960   34.8140    2.3960 O.2    73  LEU73      -0.2715
     65  CB        40.5510   37.0330    4.6470 C.3    73  LEU73       0.0311
     66  CG        41.1560   37.4220    6.0100 C.3    73  LEU73       0.0022
     67  CD1       40.4030   38.6180    6.5670 C.3    73  LEU73       0.0001
     68  CD2       41.1210   36.2520    7.0140 C.3    73  LEU73       0.0001
     69  N         41.0950   36.4650    1.5950 N.am   74  LYS74      -0.1963
     70  CA        40.5640   36.3990    0.2430 C.3    74  LYS74       0.1728
     71  C         41.6930   36.8160   -0.6760 C.2    74  LYS74       0.2617
     72  O         42.4970   37.6720   -0.3140 O.2    74  LYS74      -0.2715
     73  CB        39.3830   37.3670    0.0970 C.3    74  LYS74       0.0311
     74  CG        38.7440   37.3630   -1.2950 C.3    74  LYS74       0.0038
     75  CD        37.5270   38.2790   -1.3850 C.3    74  LYS74       0.0206
     76  CE        36.4680   37.9220   -0.3480 C.3    74  LYS74       0.1093
     77  NZ        35.8300   36.5880   -0.5920 N.3    74  LYS74      -0.1314
     78  N         41.7720   36.2430   -1.8750 N.am   75  SER75      -0.1936
     79  CA        42.9130   36.5680   -2.7280 C.3    75  SER75       0.2055
     80  C         42.8130   37.9590   -3.3470 C.2    75  SER75       0.2643
     81  O         41.7230   38.4400   -3.6340 O.2    75  SER75      -0.2714
     82  CB        43.0980   35.5070   -3.8200 C.3    75  SER75       0.2130
     83  OG        43.4810   34.2760   -3.2300 O.3    75  SER75      -0.2179
     84  N         43.9660   38.5970   -3.5380 N.am   76  GLY76      -0.1954
     85  CA        44.0530   39.8010   -4.3500 C.3    76  GLY76       0.1869
     86  C         44.2500   39.3830   -5.7980 C.2    76  GLY76       0.2309
     87  O         45.0150   38.4660   -6.0750 O.2    76  GLY76      -0.2863
@<TRIPOS>BOND
     1     4     3    2
     2    11    12    2
     3    11    10    1
     4     3     2    1
     5     9    10    1
     6    10    13    1
     7     2     1    1
     8     2     5    1
     9    15    17   ar
    10    15    14   ar
    11    21    22    1
    12    13    14    1
    13    17    19   ar
    14     7     6    2
    15    14    16   ar
    16     5     6    1
    17    29    27   ar
    18    29    31   ar
    19    22    23    1
    20    22    25    1
    21    24    23    2
    22    27    26   ar
    23     6     8   am
    24    23    32   am
    25    19    20    1
    26    19    18   ar
    27    31    30   ar
    28    16    18   ar
    29    87    86    2
    30    26    25    1
    31    26    28   ar
    32    32    33    1
    33    86    85    1
    34    30    28   ar
    35    33    36    1
    36    33    34    1
    37    34    35    2
    38    85    84    1
    39    82    83    1
    40    82    79    1
    41    81    80    2
    42    84    80   am
    43    80    79    1
    44    79    78    1
    45    78    71   am
    46    75    74    1
    47    75    76    1
    48    37    38    1
    49    74    73    1
    50    71    72    2
    51    71    70    1
    52    77    76    1
    53    48    46    1
    54    46    45    1
    55    41    42    1
    56    73    70    1
    57    38    39    1
    58    70    69    1
    59    39    40    2
    60    42    45    1
    61    42    43    1
    62    45    47    1
    63    69    63   am
    64    43    44    2
    65    64    63    2
    66    63    62    1
    67    55    57   ar
    68    55    54   ar
    69    57    59   ar
    70    53    54    1
    71    53    50    1
    72    54    56   ar
    73    59    60    1
    74    59    58   ar
    75    61    62    1
    76    61    51   am
    77    62    65    1
    78    52    51    2
    79    51    50    1
    80    56    58   ar
    81    50    49    1
    82    65    66    1
    83    66    67    1
    84    66    68    1
