@<TRIPOS>MOLECULE
tmp/3lbfB00.pdb
 204 196 0 0 0
SMALL
GASTEIGER

@<TRIPOS>ATOM
      1  N         32.5150   29.5520   12.8340 N.3    51  ILE51      -0.1245
      2  CA        32.0510   30.9200   12.5900 C.3    51  ILE51       0.1561
      3  C         31.1000   31.3920   13.7000 C.2    51  ILE51       0.2260
      4  O         30.5350   32.4860   13.6390 O.2    51  ILE51      -0.2867
      5  CB        31.4070   31.0840   11.1780 C.3    51  ILE51       0.0252
      6  CG1       30.1780   30.1770   11.0040 C.3    51  ILE51       0.0019
      7  CG2       32.4490   30.8310   10.0870 C.3    51  ILE51       0.0019
      8  CD1       29.3560   30.5080    9.7600 C.3    51  ILE51       0.0001
      9  N         27.9530   27.3710   14.1170 N.3    55  GLN55      -0.1231
     10  CA        28.0680   27.0110   12.7070 C.3    55  GLN55       0.1698
     11  C         29.5180   26.9710   12.2620 C.2    55  GLN55       0.2593
     12  O         30.4160   27.3310   13.0210 O.2    55  GLN55      -0.2718
     13  CB        27.2600   27.9960   11.8470 C.3    55  GLN55       0.0381
     14  CG        25.8150   28.1660   12.3400 C.3    55  GLN55       0.0905
     15  CD        25.1290   26.8380   12.6340 C.2    55  GLN55       0.2608
     16  OE1       24.6340   26.6100   13.7510 O.2    55  GLN55      -0.2717
     17  NE2       25.1180   25.9450   11.6530 N.am   55  GLN55      -0.0878
     18  N         29.7480   26.5380   11.0270 N.am   56  THR56      -0.1939
     19  CA        31.1040   26.4590   10.5060 C.3    56  THR56       0.2028
     20  C         31.1660   26.9970    9.0820 C.2    56  THR56       0.2642
     21  O         30.1730   26.9770    8.3580 O.2    56  THR56      -0.2714
     22  CB        31.6290   25.0050   10.5010 C.3    56  THR56       0.1808
     23  OG1       31.0360   24.3010    9.4080 O.3    56  THR56      -0.2208
     24  CG2       31.2920   24.2760   11.7970 C.3    56  THR56       0.0379
     25  N         32.3360   27.4850    8.6860 N.am   57  ILE57      -0.1963
     26  CA        32.6070   27.7550    7.2800 C.3    57  ILE57       0.1727
     27  C         33.1310   26.4530    6.6650 C.2    57  ILE57       0.2616
     28  O         33.9220   25.7380    7.2890 O.2    57  ILE57      -0.2715
     29  CB        33.5960   28.9330    7.1150 C.3    57  ILE57       0.0290
     30  CG1       33.6590   29.4020    5.6610 C.3    57  ILE57       0.0022
     31  CG2       34.9820   28.5690    7.6430 C.3    57  ILE57       0.0023
     32  CD1       34.5730   30.5970    5.4560 C.3    57  ILE57       0.0001
     33  N         32.6630   26.1210    5.4660 N.am   58  SER58      -0.1950
     34  CA        33.0140   24.8330    4.8670 C.3    58  SER58       0.1924
     35  C         34.4620   24.7660    4.3670 C.2    58  SER58       0.2314
     36  O         35.1050   25.7930    4.1120 O.2    58  SER58      -0.2863
     37  CB        32.0550   24.4640    3.7330 C.3    58  SER58       0.2116
     38  OG        30.7230   24.3290    4.2020 O.3    58  SER58      -0.2180
     39  N         33.4370   23.4260   -0.9060 N.3    63  VAL63      -0.1245
     40  CA        32.8470   24.5970   -1.5550 C.3    63  VAL63       0.1561
     41  C         33.0970   24.5500   -3.0700 C.2    63  VAL63       0.2260
     42  O         32.1910   24.7970   -3.8710 O.2    63  VAL63      -0.2867
     43  CB        33.4310   25.9040   -0.9690 C.3    63  VAL63       0.0252
     44  CG1       33.0310   27.1070   -1.8030 C.3    63  VAL63       0.0019
     45  CG2       32.9970   26.0730    0.4720 C.3    63  VAL63       0.0019
     46  N         20.8640   29.9020   -2.7550 N.3    80  GLU80      -0.1231
     47  CA        21.7310   29.2630   -1.7480 C.3    80  GLU80       0.1699
     48  C         20.9830   29.1030   -0.4450 C.2    80  GLU80       0.2592
     49  O         20.3050   30.0310    0.0180 O.2    80  GLU80      -0.2718
     50  CB        22.9930   30.0870   -1.4940 C.3    80  GLU80       0.0402
     51  CG        23.9070   29.4300   -0.4300 C.3    80  GLU80       0.1161
     52  CD        25.0030   30.3650    0.0990 C.2    80  GLU80       0.3649
     53  OE1       24.7490   31.5780    0.3140 O.co2  80  GLU80      -0.2457
     54  OE2       26.1200   29.8700    0.3290 O.co2  80  GLU80      -0.2457
     55  N         21.1540   27.9390    0.1830 N.am   81  ILE81      -0.1966
     56  CA        20.5760   27.7130    1.4910 C.3    81  ILE81       0.1727
     57  C         21.6800   27.5610    2.5360 C.2    81  ILE81       0.2617
     58  O         22.5210   26.6900    2.4220 O.2    81  ILE81      -0.2715
     59  CB        19.6880   26.4260    1.5370 C.3    81  ILE81       0.0290
     60  CG1       18.5500   26.4870    0.4980 C.3    81  ILE81       0.0022
     61  CG2       19.1690   26.2010    2.9530 C.3    81  ILE81       0.0023
     62  CD1       17.5980   27.7210    0.6140 C.3    81  ILE81       0.0001
     63  N         21.6730   28.4250    3.5500 N.am   82  GLY82      -0.1940
     64  CA        22.6670   28.3600    4.6230 C.3    82  GLY82       0.2014
     65  C         23.7300   29.4270    4.4400 C.2    82  GLY82       0.2640
     66  O         24.9170   29.1240    4.3440 O.2    82  GLY82      -0.2714
     67  N         23.3000   30.6850    4.4050 N.am   83  THR83      -0.1936
     68  CA        24.2120   31.7990    4.1180 C.3    83  THR83       0.2028
     69  C         25.4740   31.7500    4.9870 C.2    83  THR83       0.2643
     70  O         26.5860   31.9810    4.4970 O.2    83  THR83      -0.2714
     71  CB        23.5190   33.1450    4.3210 C.3    83  THR83       0.1808
     72  OG1       22.2240   33.1020    3.7100 O.3    83  THR83      -0.2208
     73  CG2       24.3530   34.2970    3.6740 C.3    83  THR83       0.0379
     74  N         25.2960   31.4290    6.2680 N.am   84  GLY84      -0.1939
     75  CA        26.4210   31.3680    7.2150 C.3    84  GLY84       0.2014
     76  C         27.2150   32.6700    7.2520 C.2    84  GLY84       0.2639
     77  O         26.6580   33.7370    7.5230 O.2    84  GLY84      -0.2714
     78  N         28.5100   32.5600    6.9550 N.am   85  SER85      -0.1949
     79  CA        29.3810   33.7300    6.9380 C.3    85  SER85       0.1924
     80  C         29.1900   34.5130    5.6480 C.2    85  SER85       0.2314
     81  O         29.5570   35.6800    5.5860 O.2    85  SER85      -0.2863
     82  CB        30.8460   33.3210    7.0670 C.3    85  SER85       0.2116
     83  OG        31.2790   32.6090    5.9170 O.3    85  SER85      -0.2180
     84  N         30.4740   33.1880    2.8530 N.3    87  TYR87      -0.1227
     85  CA        31.6580   32.8120    2.0710 C.3    87  TYR87       0.1736
     86  C         31.3470   32.1350    0.7370 C.2    87  TYR87       0.2595
     87  O         31.8530   32.5520   -0.3330 O.2    87  TYR87      -0.2718
     88  CB        32.5920   31.9090    2.8970 C.3    87  TYR87       0.0548
     89  CG        33.8060   31.4560    2.0910 C.ar   87  TYR87      -0.0200
     90  CD1       34.7700   32.3790    1.6660 C.ar   87  TYR87      -0.0009
     91  CD2       33.9840   30.1130    1.7530 C.ar   87  TYR87      -0.0009
     92  CE1       35.8920   31.9710    0.9140 C.ar   87  TYR87       0.0417
     93  CE2       35.0960   29.6960    1.0200 C.ar   87  TYR87       0.0417
     94  CZ        36.0440   30.6300    0.6060 C.ar   87  TYR87       0.1957
     95  OH        37.1280   30.2230   -0.1300 O.3    87  TYR87      -0.2866
     96  N         30.5300   31.0950    0.7960 N.am   88  GLN88      -0.1979
     97  CA        30.0640   30.4110   -0.4100 C.3    88  GLN88       0.1601
     98  C         29.2050   31.3930   -1.2000 C.2    88  GLN88       0.2287
     99  O         29.3120   31.4740   -2.4260 O.2    88  GLN88      -0.2864
    100  CB        29.3010   29.1380   -0.0410 C.3    88  GLN88       0.0394
    101  CG        28.4880   28.4730   -1.1790 C.3    88  GLN88       0.0908
    102  CD        29.3660   27.7260   -2.1730 C.2    88  GLN88       0.2608
    103  OE1       29.7240   26.5720   -1.9400 O.2    88  GLN88      -0.2717
    104  NE2       29.7160   28.3850   -3.2900 N.am   88  GLN88      -0.0878
    105  N         19.4700   32.1760    1.8220 N.3   102  VAL102     -0.1231
    106  CA        18.5700   32.0730    2.9470 C.3   102  VAL102      0.1692
    107  C         19.3600   31.5530    4.1470 C.2   102  VAL102      0.2592
    108  O         20.1560   30.6510    4.0020 O.2   102  VAL102     -0.2718
    109  CB        17.4110   31.0650    2.6570 C.3   102  VAL102      0.0266
    110  CG1       16.4250   31.0450    3.8350 C.3   102  VAL102      0.0020
    111  CG2       16.7070   31.3980    1.3280 C.3   102  VAL102      0.0020
    112  N         19.1450   32.1660    5.3110 N.am  103  GLU103     -0.1966
    113  CA        19.7810   31.7610    6.5650 C.3   103  GLU103      0.1733
    114  C         18.7990   31.8480    7.7230 C.2   103  GLU103      0.2616
    115  O         18.0720   32.8310    7.8500 O.2   103  GLU103     -0.2715
    116  CB        21.0030   32.6610    6.8310 C.3   103  GLU103      0.0429
    117  CG        21.6070   32.5490    8.2460 C.3   103  GLU103      0.1163
    118  CD        22.1900   31.1720    8.5630 C.2   103  GLU103      0.3649
    119  OE1       23.0540   30.6940    7.8050 O.co2 103  GLU103     -0.2457
    120  OE2       21.7660   30.5540    9.5730 O.co2 103  GLU103     -0.2457
    121  N         18.7870   30.8360    8.5870 N.am  104  ARG104     -0.1963
    122  CA        17.8020   30.7790    9.6560 C.3   104  ARG104      0.1729
    123  C         18.1870   31.5360   10.9330 C.2   104  ARG104      0.2616
    124  O         17.3170   31.8360   11.7340 O.2   104  ARG104     -0.2715
    125  CB        17.4440   29.3250    9.9970 C.3   104  ARG104      0.0348
    126  CG        18.5490   28.5540   10.6560 C.3   104  ARG104      0.0492
    127  CD        18.0120   27.2260   11.1480 C.3   104  ARG104      0.2205
    128  NE        17.0530   27.3440   12.2500 N.pl3 104  ARG104     -0.0865
    129  CZ        17.3880   27.3890   13.5340 C.cat 104  ARG104      0.5346
    130  NH1       16.4440   27.4940   14.4780 N.pl3 104  ARG104      0.1354
    131  NH2       18.6690   27.3410   13.8820 N.pl3 104  ARG104      0.1354
    132  N         19.4780   31.8460   11.1090 N.am  105  ILE105     -0.1977
    133  CA        19.9490   32.5780   12.2780 C.3   105  ILE105      0.1596
    134  C         20.1410   34.0420   11.8850 C.2   105  ILE105      0.2287
    135  O         20.9970   34.3640   11.0490 O.2   105  ILE105     -0.2864
    136  CB        21.2640   31.9870   12.8320 C.3   105  ILE105      0.0276
    137  CG1       21.1040   30.4810   13.0850 C.3   105  ILE105      0.0022
    138  CG2       21.6900   32.7450   14.0990 C.3   105  ILE105      0.0022
    139  CD1       22.3310   29.7570   13.6450 C.3   105  ILE105      0.0001
    140  N         23.6740   35.7190   11.9420 N.3   108  LEU108     -0.1245
    141  CA        24.5530   35.3970   10.8370 C.3   108  LEU108      0.1561
    142  C         24.0790   36.1070    9.5730 C.2   108  LEU108      0.2260
    143  O         24.8840   36.6460    8.8330 O.2   108  LEU108     -0.2867
    144  CB        24.6330   33.8900   10.6280 C.3   108  LEU108      0.0270
    145  CG        25.2920   33.1460   11.7940 C.3   108  LEU108      0.0019
    146  CD1       25.1750   31.6430   11.5720 C.3   108  LEU108      0.0001
    147  CD2       26.7620   33.5530   11.9720 C.3   108  LEU108      0.0001
    148  N         15.2330   33.1020    6.9650 N.3   129  GLY129     -0.1210
    149  CA        14.1760   32.1760    6.6180 C.3   129  GLY129      0.1956
    150  C         14.5620   30.7250    6.8040 C.2   129  GLY129      0.2612
    151  O         15.7360   30.4020    7.0630 O.2   129  GLY129     -0.2717
    152  N         13.5590   29.8590    6.6670 N.am  130  ASP130     -0.1959
    153  CA        13.7670   28.4020    6.7740 C.3   130  ASP130      0.1840
    154  C         13.9220   27.8110    5.3750 C.2   130  ASP130      0.2622
    155  O         12.9670   27.7700    4.5920 O.2   130  ASP130     -0.2715
    156  CB        12.6000   27.7240    7.4970 C.3   130  ASP130      0.1450
    157  CG        12.7660   26.2150    7.5710 C.2   130  ASP130      0.3671
    158  OD1       13.7860   25.6950    7.0570 O.co2 130  ASP130     -0.2456
    159  OD2       11.8820   25.5470    8.1400 O.co2 130  ASP130     -0.2456
    160  N         15.1310   27.3540    5.0700 N.am  131  GLY131     -0.1954
    161  CA        15.5110   26.9440    3.7150 C.3   131  GLY131      0.1869
    162  C         14.8340   25.6740    3.2340 C.2   131  GLY131      0.2309
    163  O         14.8550   25.3900    2.0370 O.2   131  GLY131     -0.2863
    164  N         23.9040   24.0820    2.0760 N.3   147  THR147     -0.1203
    165  CA        25.1530   23.9160    2.8050 C.3   147  THR147      0.1994
    166  C         24.9610   23.4440    4.2490 C.2   147  THR147      0.2617
    167  O         25.8060   23.6940    5.1090 O.2   147  THR147     -0.2717
    168  CB        26.0070   25.1790    2.7730 C.3   147  THR147      0.1784
    169  OG1       25.3290   26.2580    3.4270 O.3   147  THR147     -0.2211
    170  CG2       26.2820   25.5970    1.3300 C.3   147  THR147      0.0376
    171  N         23.8170   22.8180    4.4970 N.am  148  ALA148     -0.1979
    172  CA        23.5640   22.0640    5.7310 C.3   148  ALA148      0.1597
    173  C         22.7550   20.8580    5.2880 C.2   148  ALA148      0.2287
    174  O         22.0970   20.9230    4.2520 O.2   148  ALA148     -0.2864
    175  CB        22.7800   22.8990    6.7280 C.3   148  ALA148      0.0319
    176  N         26.5380   20.3030    9.2980 N.3   199  VAL199     -0.1231
    177  CA        25.5810   20.4890   10.3830 C.3   199  VAL199      0.1678
    178  C         24.1750   20.2910    9.7980 C.2   199  VAL199      0.2434
    179  O         24.0150   20.3750    8.5900 O.2   199  VAL199     -0.2733
    180  CB        25.7150   21.8760   11.0370 C.3   199  VAL199      0.0265
    181  CG1       27.1300   22.0520   11.5850 C.3   199  VAL199      0.0020
    182  CG2       25.3720   22.9940   10.0210 C.3   199  VAL199      0.0020
    183  N         23.1750   20.0000   10.6470 N.am  200  PRO200     -0.2718
    184  CA        21.8150   19.7400   10.1550 C.3   200  PRO200      0.1535
    185  C         21.1490   20.9560    9.5300 C.2   200  PRO200      0.2598
    186  O         21.4750   22.0940    9.8730 O.2   200  PRO200     -0.2715
    187  CB        21.0340   19.3430   11.4180 C.3   200  PRO200      0.0310
    188  CG        21.9880   19.4760   12.5750 C.3   200  PRO200      0.0237
    189  CD        23.3650   19.5350   12.0340 C.3   200  PRO200      0.0939
    190  N         20.2170   20.7040    8.6250 N.am  201  LEU201     -0.1964
    191  CA        19.3920   21.7740    8.0770 C.3   201  LEU201      0.1728
    192  C         18.1760   21.8050    8.9810 C.2   201  LEU201      0.2616
    193  O         17.3180   20.9260    8.8970 O.2   201  LEU201     -0.2715
    194  CB        18.9980   21.4600    6.6330 C.3   201  LEU201      0.0311
    195  CG        18.1680   22.5560    5.9540 C.3   201  LEU201      0.0022
    196  CD1       19.0940   23.6920    5.5400 C.3   201  LEU201      0.0001
    197  CD2       17.4060   21.9910    4.7480 C.3   201  LEU201      0.0001
    198  N         18.1180   22.7900    9.8740 N.am  202  VAL202     -0.1977
    199  CA        17.1120   22.7880   10.9490 C.3   202  VAL202      0.1596
    200  C         15.7680   23.2660   10.4230 C.2   202  VAL202      0.2287
    201  O         15.6720   24.3640    9.8520 O.2   202  VAL202     -0.2864
    202  CB        17.5380   23.6530   12.1700 C.3   202  VAL202      0.0276
    203  CG1       16.4670   23.5770   13.3090 C.3   202  VAL202      0.0022
    204  CG2       18.9300   23.2360   12.6900 C.3   202  VAL202      0.0022
@<TRIPOS>BOND
     1    42    41    2
     2   104   102   am
     3    41    40    1
     4    46    47    1
     5    99    98    2
     6   102   103    2
     7   102   101    1
     8    44    43    1
     9    47    50    1
    10    47    48    1
    11    40    43    1
    12    40    39    1
    13    50    51    1
    14    98    97    1
    15   101   100    1
    16    43    45    1
    17    48    49    2
    18    48    55   am
    19    51    52    1
    20    97   100    1
    21    97    96    1
    22    87    86    2
    23    95    94    1
    24    52    53   ar
    25    52    54   ar
    26    55    56    1
    27    60    62    1
    28    60    59    1
    29    94    92   ar
    30    94    93   ar
    31    86    96   am
    32    86    85    1
    33    92    90   ar
    34    93    91   ar
    35   111   109    1
    36   170   168    1
    37    56    59    1
    38    56    57    1
    39    59    61    1
    40    90    89   ar
    41    91    89   ar
    42   105   106    1
    43   163   162    2
    44    85    84    1
    45    85    88    1
    46   164   165    1
    47    89    88    1
    48    58    57    2
    49    57    63   am
    50   109   106    1
    51   109   110    1
    52   168   165    1
    53   168   169    1
    54   165   166    1
    55   106   107    1
    56   162   161    1
    57    63    64    1
    58    73    71    1
    59    72    71    1
    60   161   160    1
    61    37    38    1
    62    37    34    1
    63   108   107    2
    64    36    35    2
    65    68    71    1
    66    68    67    1
    67    68    69    1
    68   107   112   am
    69   166   171   am
    70   166   167    2
    71   174   173    2
    72    66    65    2
    73    35    34    1
    74    67    65   am
    75    65    64    1
    76   171   172    1
    77    70    69    2
    78   155   154    2
    79   197   195    1
    80    34    33    1
    81    69    74   am
    82   160   154   am
    83   173   172    1
    84   112   113    1
    85   154   153    1
    86    32    30    1
    87    33    27   am
    88   196   195    1
    89    81    80    2
    90    80    79    1
    91    30    29    1
    92   172   175    1
    93    83    82    1
    94   195   194    1
    95    74    75    1
    96   113   116    1
    97   113   114    1
    98   149   150    1
    99   149   148    1
   100   194   191    1
   101    27    26    1
   102    27    28    2
   103   152   153    1
   104   152   150   am
   105   153   156    1
   106   150   151    2
   107   116   117    1
   108    79    78    1
   109    79    82    1
   110    78    76   am
   111   158   157   ar
   112    29    26    1
   113    29    31    1
   114    75    76    1
   115    76    77    2
   116    26    25    1
   117   156   157    1
   118   157   159   ar
   119   114   115    2
   120   114   121   am
   121   119   118   ar
   122   191   190    1
   123   191   192    1
   124   117   118    1
   125    21    20    2
   126   118   120   ar
   127   121   122    1
   128   179   178    2
   129   190   185   am
   130    25    20   am
   131   143   142    2
   132   193   192    2
   133   192   198   am
   134    20    19    1
   135   176   177    1
   136    23    22    1
   137   185   186    2
   138   185   184    1
   139   142   141    1
   140   122   125    1
   141   122   123    1
   142     8     6    1
   143   178   177    1
   144   178   183   am
   145   201   200    2
   146   198   199    1
   147   125   126    1
   148   182   180    1
   149     7     5    1
   150   184   183    1
   151   184   187    1
   152   177   180    1
   153   200   199    1
   154    22    19    1
   155    22    24    1
   156    19    18    1
   157   144   141    1
   158   144   145    1
   159   183   189    1
   160   126   127    1
   161   141   140    1
   162   123   132   am
   163   123   124    2
   164   199   202    1
   165     6     5    1
   166    18    11   am
   167   180   181    1
   168   135   134    2
   169   132   133    1
   170   127   128    1
   171     5     2    1
   172   187   188    1
   173   146   145    1
   174    17    15   am
   175   145   147    1
   176    13    14    1
   177    13    10    1
   178   134   133    1
   179   189   188    1
   180   202   204    1
   181   202   203    1
   182   128   129    2
   183    11    10    1
   184    11    12    2
   185   133   136    1
   186    14    15    1
   187     2     1    1
   188     2     3    1
   189    15    16    2
   190    10     9    1
   191   136   137    1
   192   136   138    1
   193   137   139    1
   194   129   131    1
   195   129   130    1
   196     4     3    2
