@<TRIPOS>MOLECULE
tmp/3lbjA00.pdb
 137 132 0 0 0
SMALL
GASTEIGER

@<TRIPOS>ATOM
      1  N         12.2010  -11.2690    2.6950 N.3    29  MET29      -0.1230
      2  CA        12.9790  -10.0320    2.7360 C.3    29  MET29       0.1702
      3  C         12.0960   -8.8090    2.8120 C.2    29  MET29       0.2592
      4  O         12.4310   -7.8240    3.4630 O.2    29  MET29      -0.2718
      5  CB        13.9180   -9.9390    1.5450 C.3    29  MET29       0.0401
      6  CG        14.9660  -10.9760    1.5630 C.3    29  MET29       0.0596
      7  SD        15.9870  -10.9650    3.0230 S.3    29  MET29      -0.1393
      8  CE        16.9030   -9.4730    2.7340 C.3    29  MET29       0.0692
      9  N         10.9600   -8.8540    2.1420 N.am   30  HIS30      -0.1976
     10  CA        10.0220   -7.7770    2.2580 C.3    30  HIS30       0.1656
     11  C          9.4770   -7.6650    3.6730 C.2    30  HIS30       0.2291
     12  O          9.4430   -6.5720    4.2350 O.2    30  HIS30      -0.2864
     13  CB         8.8820   -7.9610    1.2780 C.3    30  HIS30       0.0771
     14  CG         9.1830   -7.5020   -0.1210 C.ar   30  HIS30       0.0820
     15  ND1       10.1110   -6.5290   -0.4470 N.ar   30  HIS30      -0.2267
     16  CD2        8.5980   -7.8650   -1.2800 C.ar   30  HIS30       0.1154
     17  CE1       10.1040   -6.3470   -1.7570 C.ar   30  HIS30       0.1986
     18  NE2        9.1890   -7.1430   -2.2830 N.ar   30  HIS30      -0.2212
     19  N         10.8830   -8.7170    6.4250 N.3    32  LEU32      -0.1231
     20  CA        11.9870   -8.2780    7.2860 C.3    32  LEU32       0.1693
     21  C         12.1490   -6.7700    7.2310 C.2    32  LEU32       0.2592
     22  O         12.3850   -6.1340    8.2460 O.2    32  LEU32      -0.2718
     23  CB        13.3100   -8.9560    6.9200 C.3    32  LEU32       0.0284
     24  CG        13.5760  -10.3110    7.5590 C.3    32  LEU32       0.0019
     25  CD1       14.6730  -11.0460    6.8260 C.3    32  LEU32       0.0001
     26  CD2       13.9160  -10.1250    9.0450 C.3    32  LEU32       0.0001
     27  N         12.0850   -6.1800    6.0480 N.am   33  GLY33      -0.1957
     28  CA        12.1920   -4.7250    5.9640 C.3    33  GLY33       0.1869
     29  C         11.0310   -4.0470    6.6740 C.2    33  GLY33       0.2309
     30  O         11.2070   -3.0790    7.3970 O.2    33  GLY33      -0.2863
     31  N         11.5220   -4.1560   10.5000 N.3    36  ILE36      -0.1231
     32  CA        12.4580   -3.1610   10.9870 C.3    36  ILE36       0.1692
     33  C         11.7430   -1.8230   11.1480 C.2    36  ILE36       0.2591
     34  O         12.0090   -1.0940   12.1040 O.2    36  ILE36      -0.2718
     35  CB        13.6570   -3.0740   10.0380 C.3    36  ILE36       0.0266
     36  CG1       14.5040   -4.3480   10.1370 C.3    36  ILE36       0.0019
     37  CG2       14.4820   -1.8510   10.3300 C.3    36  ILE36       0.0020
     38  CD1       15.5080   -4.4870    8.9920 C.3    36  ILE36       0.0001
     39  N         10.8210   -1.5110   10.2370 N.am   37  MET37      -0.1979
     40  CA        10.0250   -0.3000   10.3500 C.3    37  MET37       0.1605
     41  C          8.9800   -0.3680   11.4630 C.2    37  MET37       0.2287
     42  O          8.8790    0.5550   12.2750 O.2    37  MET37      -0.2864
     43  CB         9.4150    0.0850    9.0010 C.3    37  MET37       0.0413
     44  CG        10.4980    0.5630    8.0030 C.3    37  MET37       0.0598
     45  SD         9.7660    0.9630    6.4250 S.3    37  MET37      -0.1393
     46  CE         9.5890   -0.6320    5.6200 C.3    37  MET37       0.0692
     47  N         15.2630    0.9320   12.8390 N.3    42  TYR42      -0.1241
     48  CA        16.1330    1.7960   12.0340 C.3    42  TYR42       0.1605
     49  C         16.1880    3.1630   12.6900 C.2    42  TYR42       0.2264
     50  O         15.2830    3.5790   13.3980 O.2    42  TYR42      -0.2867
     51  CB        15.6840    1.8870   10.5650 C.3    42  TYR42       0.0534
     52  CG        14.5030    2.7880   10.3560 C.ar   42  TYR42      -0.0201
     53  CD1       14.6690    4.0980    9.9710 C.ar   42  TYR42      -0.0009
     54  CD2       13.2040    2.3290   10.5610 C.ar   42  TYR42      -0.0009
     55  CE1       13.5840    4.9410    9.8100 C.ar   42  TYR42       0.0417
     56  CE2       12.1190    3.1680   10.3920 C.ar   42  TYR42       0.0417
     57  CZ        12.3210    4.4670   10.0110 C.ar   42  TYR42       0.1957
     58  OH        11.2820    5.3370    9.8440 O.3    42  TYR42      -0.2866
     59  N         19.0070    6.4040    8.2710 N.3    47  GLN47      -0.1231
     60  CA        17.9140    5.4940    7.9870 C.3    47  GLN47       0.1698
     61  C         18.3520    4.1580    7.4010 C.2    47  GLN47       0.2592
     62  O         17.5550    3.2300    7.3260 O.2    47  GLN47      -0.2718
     63  CB        16.8970    6.1730    7.0830 C.3    47  GLN47       0.0381
     64  CG        16.2730    7.3740    7.7160 C.3    47  GLN47       0.0905
     65  CD        15.0780    7.8670    6.9550 C.2    47  GLN47       0.2608
     66  OE1       14.1330    7.1220    6.7270 O.2    47  GLN47      -0.2717
     67  NE2       15.1060    9.1280    6.5470 N.am   47  GLN47      -0.0878
     68  N         19.6120    4.0390    7.0200 N.am   48  HIS48      -0.1976
     69  CA        20.1440    2.7620    6.6330 C.3    48  HIS48       0.1656
     70  C         20.7030    1.9570    7.8180 C.2    48  HIS48       0.2291
     71  O         21.1630    0.8370    7.6410 O.2    48  HIS48      -0.2864
     72  CB        21.2530    2.9570    5.5970 C.3    48  HIS48       0.0771
     73  CG        22.3560    3.8600    6.0570 C.ar   48  HIS48       0.0820
     74  ND1       23.6240    3.4240    6.3830 N.ar   48  HIS48      -0.2267
     75  CD2       22.3580    5.1950    6.2470 C.ar   48  HIS48       0.1154
     76  CE1       24.3610    4.4680    6.7370 C.ar   48  HIS48       0.1986
     77  NE2       23.6030    5.5490    6.6830 N.ar   48  HIS48      -0.2212
     78  N         20.4430    0.0770   11.4570 N.3    50  VAL50      -0.1245
     79  CA        19.4610   -0.6560   12.2180 C.3    50  VAL50       0.1561
     80  C         20.1300   -1.0540   13.5250 C.2    50  VAL50       0.2260
     81  O         21.1700   -1.6750   13.5260 O.2    50  VAL50      -0.2867
     82  CB        19.0030   -1.9150   11.4750 C.3    50  VAL50       0.0252
     83  CG1       18.0150   -2.6910   12.3500 C.3    50  VAL50       0.0019
     84  CG2       18.3890   -1.5530   10.1600 C.3    50  VAL50       0.0019
     85  N         15.7470   -9.8270   16.2550 N.3    57  LEU57      -0.1245
     86  CA        16.4830   -9.7530   14.9920 C.3    57  LEU57       0.1561
     87  C         17.9960   -9.7220   15.2510 C.2    57  LEU57       0.2260
     88  O         18.7510  -10.3880   14.5540 O.2    57  LEU57      -0.2867
     89  CB        16.0050   -8.5920   14.1510 C.3    57  LEU57       0.0270
     90  CG        16.8120   -8.3320   12.8880 C.3    57  LEU57       0.0019
     91  CD1       16.6790   -9.5250   12.0050 C.3    57  LEU57       0.0001
     92  CD2       16.3080   -7.0700   12.2110 C.3    57  LEU57       0.0001
     93  N         23.4670   -3.2030   12.2560 N.3    66  PHE66      -0.1241
     94  CA        24.0090   -3.4370   10.9410 C.3    66  PHE66       0.1605
     95  C         23.5860   -2.2940   10.0420 C.2    66  PHE66       0.2264
     96  O         22.7160   -1.4930   10.3980 O.2    66  PHE66      -0.2867
     97  CB        23.5990   -4.7950   10.3860 C.3    66  PHE66       0.0534
     98  CG        22.1580   -4.9030   10.0080 C.ar   66  PHE66      -0.0203
     99  CD1       21.7770   -4.7240    8.7050 C.ar   66  PHE66      -0.0042
    100  CD2       21.1910   -5.2370   10.9370 C.ar   66  PHE66      -0.0042
    101  CE1       20.4610   -4.8330    8.3390 C.ar   66  PHE66      -0.0003
    102  CE2       19.8660   -5.3360   10.5590 C.ar   66  PHE66      -0.0003
    103  CZ        19.5070   -5.1310    9.2700 C.ar   66  PHE66      -0.0000
    104  N         22.2500   -1.2930    6.2890 N.3    68  VAL68      -0.1245
    105  CA        21.5980   -1.8190    5.1110 C.3    68  VAL68       0.1561
    106  C         22.4420   -1.5460    3.8510 C.2    68  VAL68       0.2260
    107  O         22.2950   -2.2170    2.8430 O.2    68  VAL68      -0.2867
    108  CB        20.1800   -1.2490    5.0140 C.3    68  VAL68       0.0252
    109  CG1       19.5000   -1.7410    3.7640 C.3    68  VAL68       0.0019
    110  CG2       19.3810   -1.6500    6.2630 C.3    68  VAL68       0.0019
    111  N         25.0980   -5.0420    4.1800 N.3    71  PRO71      -0.2116
    112  CA        24.3160   -5.8880    5.0690 C.3    71  PRO71       0.1372
    113  C         24.8450   -7.3120    5.2310 C.2    71  PRO71       0.2244
    114  O         24.0700   -8.2330    5.4070 O.2    71  PRO71      -0.2868
    115  CB        22.9560   -5.9010    4.3840 C.3    71  PRO71       0.0268
    116  CG        23.3080   -5.8350    2.9630 C.3    71  PRO71       0.0207
    117  CD        24.4550   -4.9160    2.8610 C.3    71  PRO71       0.0892
    118  N         23.3800  -10.4200    7.2930 N.3    74  LEU74      -0.1231
    119  CA        22.0970  -10.9750    6.9570 C.3    74  LEU74       0.1693
    120  C         22.2190  -12.3330    6.2900 C.2    74  LEU74       0.2592
    121  O         21.3520  -13.1870    6.4640 O.2    74  LEU74      -0.2718
    122  CB        21.3550  -10.0640    5.9960 C.3    74  LEU74       0.0284
    123  CG        20.1170   -9.3020    6.4220 C.3    74  LEU74       0.0019
    124  CD1       20.2560   -8.6860    7.8050 C.3    74  LEU74       0.0001
    125  CD2       19.8650   -8.2560    5.3680 C.3    74  LEU74       0.0001
    126  N         23.2530  -12.5270    5.4790 N.am   75  TYR75      -0.1976
    127  CA        23.2550  -13.6450    4.5610 C.3    75  TYR75       0.1639
    128  C         23.3200  -14.9490    5.3140 C.2    75  TYR75       0.2290
    129  O         22.5210  -15.8540    5.0690 O.2    75  TYR75      -0.2864
    130  CB        24.4030  -13.5160    3.5590 C.3    75  TYR75       0.0560
    131  CG        24.3960  -12.1900    2.8340 C.ar   75  TYR75      -0.0198
    132  CD1       25.5480  -11.4540    2.7160 C.ar   75  TYR75      -0.0009
    133  CD2       23.2270  -11.6640    2.3130 C.ar   75  TYR75      -0.0009
    134  CE1       25.5520  -10.2510    2.0730 C.ar   75  TYR75       0.0417
    135  CE2       23.2160  -10.4610    1.6660 C.ar   75  TYR75       0.0417
    136  CZ        24.3810   -9.7510    1.5550 C.ar   75  TYR75       0.1957
    137  OH        24.3860   -8.5370    0.9200 O.3    75  TYR75      -0.2866
@<TRIPOS>BOND
     1    18    17   ar
     2    18    16   ar
     3    17    15   ar
     4    16    14   ar
     5    15    14   ar
     6    14    13    1
     7   137   136    1
     8    13    10    1
     9     5     6    1
    10     5     2    1
    11   136   135   ar
    12   136   134   ar
    13     6     7    1
    14   135   133   ar
    15   134   132   ar
    16     9    10    1
    17     9     3   am
    18    10    11    1
    19   133   131   ar
    20     1     2    1
    21   132   131   ar
    22     8     7    1
    23     2     3    1
    24     3     4    2
    25   131   130    1
    26   107   106    2
    27   117   116    1
    28   117   111    1
    29   116   115    1
    30   130   127    1
    31    11    12    2
    32   109   108    1
    33   106   105    1
    34   111   112    1
    35   115   112    1
    36   127   128    1
    37   127   126    1
    38   108   105    1
    39   108   110    1
    40   112   113    1
    41   129   128    2
    42   105   104    1
    43   113   114    2
    44   125   123    1
    45   126   120   am
    46    72    73    1
    47    72    69    1
    48    46    45    1
    49    28    27    1
    50    28    29    1
    51   122   123    1
    52   122   119    1
    53    27    21   am
    54    73    75   ar
    55    73    74   ar
    56    75    77   ar
    57   120   121    2
    58   120   119    1
    59    74    76   ar
    60   123   124    1
    61    45    44    1
    62    19    20    1
    63    67    65   am
    64    69    68    1
    65    69    70    1
    66    29    30    2
    67    77    76   ar
    68    66    65    2
    69    25    24    1
    70    23    20    1
    71    23    24    1
    72    65    64    1
    73   119   118    1
    74    68    61   am
    75    63    64    1
    76    63    60    1
    77    21    20    1
    78    21    22    2
    79    62    61    2
    80    61    60    1
    81    24    26    1
    82    71    70    2
    83    60    59    1
    84    44    43    1
    85   101    99   ar
    86   101   103   ar
    87    99    98   ar
    88    38    36    1
    89    43    40    1
    90   103   102   ar
    91    55    53   ar
    92    55    57   ar
    93    58    57    1
    94    53    52   ar
    95    98    97    1
    96    98   100   ar
    97    57    56   ar
    98    35    36    1
    99    35    37    1
   100    35    32    1
   101    95    96    2
   102    95    94    1
   103    84    82    1
   104    39    40    1
   105    39    33   am
   106    40    41    1
   107    52    54   ar
   108    52    51    1
   109    97    94    1
   110    56    54   ar
   111    31    32    1
   112   102   100   ar
   113    51    48    1
   114    94    93    1
   115    32    33    1
   116    33    34    2
   117    78    79    1
   118    41    42    2
   119    82    79    1
   120    82    83    1
   121    91    90    1
   122    48    49    1
   123    48    47    1
   124    92    90    1
   125    79    80    1
   126    49    50    2
   127    90    89    1
   128    80    81    2
   129    89    86    1
   130    88    87    2
   131    86    87    1
   132    86    85    1
