@<TRIPOS>MOLECULE
tmp/3lbjA01.pdb
 102 96 0 0 0
SMALL
GASTEIGER

@<TRIPOS>ATOM
      1  N         10.6270  -21.6220    0.9170 N.3     3  VAL3       -0.1245
      2  CA        10.9890  -22.0220    2.2410 C.3     3  VAL3        0.1561
      3  C         10.1590  -21.8340    3.4840 C.2     3  VAL3        0.2260
      4  O          9.1960  -21.0730    3.5090 O.2     3  VAL3       -0.2867
      5  CB        12.3540  -21.3000    2.4400 C.3     3  VAL3        0.0252
      6  CG1       13.2770  -21.6060    1.2540 C.3     3  VAL3        0.0019
      7  CG2       12.1610  -19.8000    2.5120 C.3     3  VAL3        0.0019
      8  N         12.5400  -20.9650   10.2560 N.3     6  LYS6       -0.1245
      9  CA        12.5700  -21.5040   11.6070 C.3     6  LYS6        0.1561
     10  C         11.8730  -20.5340   12.5390 C.2     6  LYS6        0.2260
     11  O         11.7560  -19.3440   12.2480 O.2     6  LYS6       -0.2867
     12  CB        13.9960  -21.7540   12.0620 C.3     6  LYS6        0.0271
     13  CG        14.6650  -22.8940   11.3100 C.3     6  LYS6        0.0035
     14  CD        16.0780  -23.1090   11.7830 C.3     6  LYS6        0.0206
     15  CE        16.8890  -23.9720   10.8300 C.3     6  LYS6        0.1093
     16  NZ        18.2920  -23.9980   11.2800 N.3     6  LYS6       -0.1314
     17  N         11.6850  -16.2690   -0.7670 N.3    25  VAL25      -0.1245
     18  CA        12.6930  -15.4040   -0.1550 C.3    25  VAL25       0.1561
     19  C         12.3530  -13.9290   -0.4030 C.2    25  VAL25       0.2260
     20  O         12.5880  -13.0870    0.4540 O.2    25  VAL25      -0.2867
     21  CB        14.1090  -15.7780   -0.5880 C.3    25  VAL25       0.0252
     22  CG1       15.0870  -14.7540   -0.0870 C.3    25  VAL25       0.0019
     23  CG2       14.4560  -17.1660   -0.0460 C.3    25  VAL25       0.0019
     24  N         12.2010  -11.2690    2.6950 N.3    29  MET29      -0.1245
     25  CA        12.9790  -10.0320    2.7360 C.3    29  MET29       0.1570
     26  C         12.0960   -8.8090    2.8120 C.2    29  MET29       0.2261
     27  O         12.4310   -7.8240    3.4630 O.2    29  MET29      -0.2867
     28  CB        13.9180   -9.9390    1.5450 C.3    29  MET29       0.0387
     29  CG        14.9660  -10.9760    1.5630 C.3    29  MET29       0.0595
     30  SD        15.9870  -10.9650    3.0230 S.3    29  MET29      -0.1393
     31  CE        16.9030   -9.4730    2.7340 C.3    29  MET29       0.0692
     32  N         23.3800  -10.4200    7.2930 N.3    74  LEU74      -0.1231
     33  CA        22.0970  -10.9750    6.9570 C.3    74  LEU74       0.1693
     34  C         22.2190  -12.3330    6.2900 C.2    74  LEU74       0.2592
     35  O         21.3520  -13.1870    6.4640 O.2    74  LEU74      -0.2718
     36  CB        21.3550  -10.0640    5.9960 C.3    74  LEU74       0.0284
     37  CG        20.1170   -9.3020    6.4220 C.3    74  LEU74       0.0019
     38  CD1       20.2560   -8.6860    7.8050 C.3    74  LEU74       0.0001
     39  CD2       19.8650   -8.2560    5.3680 C.3    74  LEU74       0.0001
     40  N         23.2530  -12.5270    5.4790 N.am   75  TYR75      -0.1962
     41  CA        23.2550  -13.6450    4.5610 C.3    75  TYR75       0.1771
     42  C         23.3200  -14.9490    5.3140 C.2    75  TYR75       0.2619
     43  O         22.5210  -15.8540    5.0690 O.2    75  TYR75      -0.2715
     44  CB        24.4030  -13.5160    3.5590 C.3    75  TYR75       0.0574
     45  CG        24.3960  -12.1900    2.8340 C.ar   75  TYR75      -0.0198
     46  CD1       25.5480  -11.4540    2.7160 C.ar   75  TYR75      -0.0009
     47  CD2       23.2270  -11.6640    2.3130 C.ar   75  TYR75      -0.0009
     48  CE1       25.5520  -10.2510    2.0730 C.ar   75  TYR75       0.0417
     49  CE2       23.2160  -10.4610    1.6660 C.ar   75  TYR75       0.0417
     50  CZ        24.3810   -9.7510    1.5550 C.ar   75  TYR75       0.1957
     51  OH        24.3860   -8.5370    0.9200 O.3    75  TYR75      -0.2866
     52  N         24.2350  -15.0400    6.2660 N.am   76  ASP76      -0.1971
     53  CA        24.3080  -16.2640    7.0490 C.3    76  ASP76       0.1709
     54  C         23.0960  -16.4910    7.9170 C.2    76  ASP76       0.2293
     55  O         22.7100  -17.6450    8.1550 O.2    76  ASP76      -0.2864
     56  CB        25.5780  -16.3340    7.8700 C.3    76  ASP76       0.1436
     57  CG        26.5100  -17.3830    7.3480 C.2    76  ASP76       0.3671
     58  OD1       27.1020  -17.1610    6.2630 O.co2  76  ASP76      -0.2456
     59  OD2       26.6110  -18.4450    8.0010 O.co2  76  ASP76      -0.2456
     60  N         20.0290  -15.8490    7.1230 N.3    78  LEU78      -0.1231
     61  CA        19.0070  -16.4310    6.2870 C.3    78  LEU78       0.1693
     62  C         19.3300  -17.8850    6.0010 C.2    78  LEU78       0.2592
     63  O         18.4360  -18.7270    6.0390 O.2    78  LEU78      -0.2718
     64  CB        18.8500  -15.6370    4.9900 C.3    78  LEU78       0.0284
     65  CG        18.3630  -14.1990    5.1740 C.3    78  LEU78       0.0019
     66  CD1       18.4870  -13.4170    3.8730 C.3    78  LEU78       0.0001
     67  CD2       16.9440  -14.1950    5.6620 C.3    78  LEU78       0.0001
     68  N         20.5930  -18.1910    5.7300 N.am   79  ARG79      -0.1966
     69  CA        20.9960  -19.5900    5.5330 C.3    79  ARG79       0.1729
     70  C         20.6220  -20.4510    6.7530 C.2    79  ARG79       0.2616
     71  O         20.1400  -21.5800    6.5970 O.2    79  ARG79      -0.2715
     72  CB        22.4980  -19.7160    5.2210 C.3    79  ARG79       0.0348
     73  CG        22.9700  -21.1690    5.0050 C.3    79  ARG79       0.0492
     74  CD        24.4900  -21.2920    4.9550 C.3    79  ARG79       0.2205
     75  NE        25.1360  -20.7220    6.1360 N.pl3  79  ARG79      -0.0865
     76  CZ        25.7140  -21.4000    7.1270 C.cat  79  ARG79       0.5346
     77  NH1       25.7750  -22.7290    7.1510 N.pl3  79  ARG79       0.1354
     78  NH2       26.2530  -20.7130    8.1200 N.pl3  79  ARG79       0.1354
     79  N         20.8230  -19.9180    7.9560 N.am   80  LYS80      -0.1977
     80  CA        20.5820  -20.6720    9.1870 C.3    80  LYS80       0.1596
     81  C         19.0920  -20.7750    9.5350 C.2    80  LYS80       0.2287
     82  O         18.6660  -21.6900   10.2630 O.2    80  LYS80      -0.2864
     83  CB        21.3370  -20.0200   10.3480 C.3    80  LYS80       0.0298
     84  CG        22.8220  -20.2500   10.3180 C.3    80  LYS80       0.0038
     85  CD        23.4960  -19.4230   11.3970 C.3    80  LYS80       0.0206
     86  CE        24.9460  -19.8170   11.5500 C.3    80  LYS80       0.1093
     87  NZ        25.6830  -18.8100   12.3630 N.3    80  LYS80      -0.1314
     88  N         16.3310  -20.5040    7.2700 N.3    82  LEU82      -0.1231
     89  CA        15.4070  -20.8890    6.2350 C.3    82  LEU82       0.1693
     90  C         15.6770  -22.3290    5.8640 C.2    82  LEU82       0.2591
     91  O         16.7780  -22.6830    5.4730 O.2    82  LEU82      -0.2718
     92  CB        15.5490  -19.9800    5.0130 C.3    82  LEU82       0.0284
     93  CG        15.2170  -18.4910    5.1770 C.3    82  LEU82       0.0019
     94  CD1       15.5460  -17.7740    3.8780 C.3    82  LEU82       0.0001
     95  CD2       13.7730  -18.2110    5.5890 C.3    82  LEU82       0.0001
     96  N         14.6680  -23.1650    6.0710 N.am   83  VAL83      -0.1980
     97  CA        14.6630  -24.5330    5.5650 C.3    83  VAL83       0.1595
     98  C         13.9520  -24.6790    4.2110 C.2    83  VAL83       0.2287
     99  O         12.7930  -24.2980    4.0420 O.2    83  VAL83      -0.2864
    100  CB        14.0250  -25.4810    6.5930 C.3    83  VAL83       0.0276
    101  CG1       14.2990  -26.9080    6.1980 C.3    83  VAL83       0.0022
    102  CG2       14.5750  -25.2000    8.0040 C.3    83  VAL83       0.0022
@<TRIPOS>BOND
     1    17    18    1
     2    21    18    1
     3    21    22    1
     4    21    23    1
     5    19    18    1
     6    19    20    2
     7     1     2    1
     8    51    50    1
     9     6     5    1
    10    28    29    1
    11    28    25    1
    12    50    49   ar
    13    50    48   ar
    14    29    30    1
    15    49    47   ar
    16    48    46   ar
    17     2     5    1
    18     2     3    1
    19    47    45   ar
    20     5     7    1
    21    24    25    1
    22    46    45   ar
    23    31    30    1
    24    25    26    1
    25    26    27    2
    26    45    44    1
    27     3     4    2
    28    44    41    1
    29    66    65    1
    30    94    93    1
    31    99    98    2
    32    98    97    1
    33    41    42    1
    34    41    40    1
    35    74    73    1
    36    74    75    1
    37    64    65    1
    38    64    61    1
    39    73    72    1
    40    92    93    1
    41    92    89    1
    42    43    42    2
    43    65    67    1
    44    93    95    1
    45    72    69    1
    46    42    52   am
    47    39    37    1
    48    91    90    2
    49    40    34   am
    50    69    68    1
    51    69    70    1
    52    97    96    1
    53    97   100    1
    54    68    62   am
    55    90    96   am
    56    90    89    1
    57    36    37    1
    58    36    33    1
    59    62    63    2
    60    62    61    1
    61    75    76    2
    62   101   100    1
    63    89    88    1
    64    58    57   ar
    65    52    53    1
    66    61    60    1
    67    34    35    2
    68    34    33    1
    69    37    38    1
    70   100   102    1
    71    71    70    2
    72    70    79   am
    73    33    32    1
    74    53    56    1
    75    53    54    1
    76    76    77    1
    77    76    78    1
    78    57    56    1
    79    57    59   ar
    80    54    55    2
    81    79    80    1
    82    80    81    1
    83    80    83    1
    84    81    82    2
    85     8     9    1
    86    84    83    1
    87    84    85    1
    88    15    16    1
    89    15    14    1
    90    13    14    1
    91    13    12    1
    92    85    86    1
    93    86    87    1
    94     9    12    1
    95     9    10    1
    96    11    10    2
