@<TRIPOS>MOLECULE
tmp/3lbkA00.pdb
 169 163 0 0 0
SMALL
GASTEIGER

@<TRIPOS>ATOM
      1  N         19.1820   11.0380   -1.9960 N.3    29  LEU29      -0.1231
      2  CA        19.0960   12.3270   -1.3170 C.3    29  LEU29       0.1693
      3  C         17.7110   12.8860   -1.4040 C.2    29  LEU29       0.2592
      4  O         17.2080   13.4250   -0.4160 O.2    29  LEU29      -0.2718
      5  CB        20.0790   13.3320   -1.8830 C.3    29  LEU29       0.0284
      6  CG        21.5270   13.1670   -1.4780 C.3    29  LEU29       0.0019
      7  CD1       22.4610   13.7930   -2.5290 C.3    29  LEU29       0.0001
      8  CD2       21.7300   13.8110   -0.1550 C.3    29  LEU29       0.0001
      9  N         17.0850   12.7610   -2.5720 N.am   30  PHE30      -0.1976
     10  CA        15.6910   13.1900   -2.7300 C.3    30  PHE30       0.1639
     11  C         14.6970   12.5400   -1.7760 C.2    30  PHE30       0.2290
     12  O         13.9320   13.2100   -1.1130 O.2    30  PHE30      -0.2864
     13  CB        15.1790   12.9230   -4.1340 C.3    30  PHE30       0.0560
     14  CG        13.7570   13.3600   -4.3410 C.ar   30  PHE30      -0.0200
     15  CD1       13.4560   14.7040   -4.5040 C.ar   30  PHE30      -0.0042
     16  CD2       12.7350   12.4530   -4.3410 C.ar   30  PHE30      -0.0042
     17  CE1       12.1720   15.1090   -4.6910 C.ar   30  PHE30      -0.0003
     18  CE2       11.4390   12.8600   -4.5370 C.ar   30  PHE30      -0.0003
     19  CZ        11.1620   14.1950   -4.7150 C.ar   30  PHE30      -0.0000
     20  N         15.3920   11.0950    0.9700 N.3    32  LEU32      -0.1231
     21  CA        15.8010   11.4610    2.3020 C.3    32  LEU32       0.1693
     22  C         15.1520   12.7800    2.7410 C.2    32  LEU32       0.2593
     23  O         14.3790   12.7980    3.7090 O.2    32  LEU32      -0.2718
     24  CB        17.3130   11.4840    2.4350 C.3    32  LEU32       0.0284
     25  CG        17.8980   10.1020    2.5950 C.3    32  LEU32       0.0019
     26  CD1       19.3730   10.1610    2.5720 C.3    32  LEU32       0.0001
     27  CD2       17.4340    9.4820    3.8550 C.3    32  LEU32       0.0001
     28  N         15.4160   13.8500    1.9970 N.am   33  GLY33      -0.1942
     29  CA        14.8190   15.1580    2.2520 C.3    33  GLY33       0.2014
     30  C         13.3170   15.0940    2.3550 C.2    33  GLY33       0.2638
     31  O         12.7310   15.7410    3.1800 O.2    33  GLY33      -0.2714
     32  N         12.6910   14.2640    1.5330 N.am   34  GLN34      -0.1977
     33  CA        11.2610   14.0560    1.5940 C.3    34  GLN34       0.1601
     34  C         10.8670   13.4240    2.9090 C.2    34  GLN34       0.2287
     35  O          9.8260   13.7570    3.4980 O.2    34  GLN34      -0.2864
     36  CB        10.8460   13.1100    0.4610 C.3    34  GLN34       0.0394
     37  CG        11.0850   13.6710   -0.9370 C.3    34  GLN34       0.0908
     38  CD        10.2590   14.8960   -1.2010 C.2    34  GLN34       0.2608
     39  OE1       10.7910   16.0000   -1.3930 O.2    34  GLN34      -0.2717
     40  NE2        8.9470   14.7240   -1.1630 N.am   34  GLN34      -0.0878
     41  N         12.6640   13.6320    5.7070 N.3    36  ILE36      -0.1231
     42  CA        12.9330   14.6980    6.6740 C.3    36  ILE36       0.1692
     43  C         11.7510   15.6630    6.7420 C.2    36  ILE36       0.2591
     44  O         11.3030   16.0420    7.8320 O.2    36  ILE36      -0.2718
     45  CB        14.1540   15.5060    6.2730 C.3    36  ILE36       0.0266
     46  CG1       15.4270   14.6510    6.3610 C.3    36  ILE36       0.0019
     47  CG2       14.2900   16.7190    7.1550 C.3    36  ILE36       0.0020
     48  CD1       16.7100   15.3510    5.8540 C.3    36  ILE36       0.0001
     49  N         11.2330   16.0390    5.5730 N.am   37  MET37      -0.1979
     50  CA        10.0700   16.9090    5.4870 C.3    37  MET37       0.1605
     51  C          8.8480   16.2480    6.0330 C.2    37  MET37       0.2287
     52  O          8.1320   16.8330    6.8330 O.2    37  MET37      -0.2864
     53  CB         9.7770   17.3080    4.0440 C.3    37  MET37       0.0413
     54  CG        10.7460   18.2730    3.4990 C.3    37  MET37       0.0598
     55  SD        10.8840   19.7010    4.5730 S.3    37  MET37      -0.1393
     56  CE         9.1650   20.1440    4.8390 C.3    37  MET37       0.0692
     57  N         13.0000   18.8650   10.5350 N.3    42  TYR42      -0.1241
     58  CA        13.6890   20.1440   10.4250 C.3    42  TYR42       0.1605
     59  C         13.1990   21.0900   11.5010 C.2    42  TYR42       0.2264
     60  O         12.1110   20.9070   12.0480 O.2    42  TYR42      -0.2867
     61  CB        13.4970   20.7470    9.0400 C.3    42  TYR42       0.0534
     62  CG        12.0600   21.0360    8.6780 C.ar   42  TYR42      -0.0201
     63  CD1       11.5660   22.3390    8.6950 C.ar   42  TYR42      -0.0009
     64  CD2       11.2000   20.0100    8.3020 C.ar   42  TYR42      -0.0009
     65  CE1       10.2480   22.6210    8.3500 C.ar   42  TYR42       0.0417
     66  CE2        9.8730   20.2680    7.9690 C.ar   42  TYR42       0.0417
     67  CZ         9.3940   21.5810    7.9910 C.ar   42  TYR42       0.1957
     68  OH         8.0710   21.8380    7.6360 O.3    42  TYR42      -0.2866
     69  N         15.9380   26.4510   10.4310 N.3    47  GLN47      -0.1231
     70  CA        15.6800   26.5980    8.9850 C.3    47  GLN47       0.1698
     71  C         16.5530   25.6910    8.0510 C.2    47  GLN47       0.2592
     72  O         16.1210   25.3500    6.9460 O.2    47  GLN47      -0.2718
     73  CB        15.6070   28.0990    8.5790 C.3    47  GLN47       0.0381
     74  CG        15.9330   28.4260    7.1010 C.3    47  GLN47       0.0905
     75  CD        14.8760   27.9840    6.0920 C.2    47  GLN47       0.2608
     76  OE1       13.7000   28.3410    6.1990 O.2    47  GLN47      -0.2717
     77  NE2       15.3100   27.2570    5.0640 N.am   47  GLN47      -0.0878
     78  N         17.7470   25.2880    8.4890 N.am   48  HIS48      -0.1976
     79  CA        18.4200   24.1140    7.8880 C.3    48  HIS48       0.1656
     80  C         19.1780   23.2250    8.8990 C.2    48  HIS48       0.2291
     81  O         20.2470   22.6820    8.6020 O.2    48  HIS48      -0.2864
     82  CB        19.3050   24.4600    6.6560 C.3    48  HIS48       0.0771
     83  CG        20.0600   25.7460    6.7470 C.ar   48  HIS48       0.0820
     84  ND1       21.2680   25.8570    7.4050 N.ar   48  HIS48      -0.2267
     85  CD2       19.8170   26.9590    6.1900 C.ar   48  HIS48       0.1154
     86  CE1       21.7130   27.0980    7.2890 C.ar   48  HIS48       0.1986
     87  NE2       20.8500   27.7880    6.5590 N.ar   48  HIS48      -0.2212
     88  N         18.5100   19.7530   10.8050 N.3    50  VAL50      -0.1245
     89  CA        17.6610   18.6230   10.7410 C.3    50  VAL50       0.1561
     90  C         17.8310   18.0030   12.0820 C.2    50  VAL50       0.2260
     91  O         18.9430   17.6580   12.4390 O.2    50  VAL50      -0.2867
     92  CB        18.1030   17.6680    9.6030 C.3    50  VAL50       0.0252
     93  CG1       17.4510   16.2830    9.7500 C.3    50  VAL50       0.0019
     94  CG2       17.7840   18.3210    8.2500 C.3    50  VAL50       0.0019
     95  N         16.0390    7.8540   11.0140 N.3    57  LEU57      -0.1245
     96  CA        17.0990    8.5390   10.2670 C.3    57  LEU57       0.1561
     97  C         18.3040    8.7690   11.1490 C.2    57  LEU57       0.2260
     98  O         19.4170    8.5350   10.7120 O.2    57  LEU57      -0.2867
     99  CB        16.6120    9.8730    9.6610 C.3    57  LEU57       0.0270
    100  CG        17.6660   10.7210    8.9450 C.3    57  LEU57       0.0019
    101  CD1       18.2640   10.0050    7.7380 C.3    57  LEU57       0.0001
    102  CD2       17.1030   12.0650    8.5490 C.3    57  LEU57       0.0001
    103  N         21.9520    7.6010   10.6850 N.3    61  PHE61      -0.1241
    104  CA        22.9960    8.6090   10.5750 C.3    61  PHE61       0.1605
    105  C         23.9220    8.6920   11.7710 C.2    61  PHE61       0.2264
    106  O         25.0190    9.2720   11.6640 O.2    61  PHE61      -0.2867
    107  CB        22.3510    9.9690   10.3480 C.3    61  PHE61       0.0534
    108  CG        21.9960   10.2490    8.9140 C.ar   61  PHE61      -0.0203
    109  CD1       22.1390    9.2810    7.9170 C.ar   61  PHE61      -0.0042
    110  CD2       21.5140   11.4980    8.5650 C.ar   61  PHE61      -0.0042
    111  CE1       21.8170    9.5740    6.5970 C.ar   61  PHE61      -0.0003
    112  CE2       21.1850   11.7970    7.2520 C.ar   61  PHE61      -0.0003
    113  CZ        21.3420   10.8240    6.2640 C.ar   61  PHE61      -0.0000
    114  N         22.0720   17.6700   12.3730 N.3    66  PHE66      -0.1241
    115  CA        23.1070   18.0820   11.4500 C.3    66  PHE66       0.1605
    116  C         22.5660   19.2390   10.5970 C.2    66  PHE66       0.2264
    117  O         21.3410   19.4280   10.4580 O.2    66  PHE66      -0.2867
    118  CB        23.5760   16.8860   10.5850 C.3    66  PHE66       0.0534
    119  CG        22.4990   16.2860    9.7110 C.ar   66  PHE66      -0.0203
    120  CD1       22.2010   16.8240    8.4650 C.ar   66  PHE66      -0.0042
    121  CD2       21.7880   15.1840   10.1290 C.ar   66  PHE66      -0.0042
    122  CE1       21.1910   16.2650    7.6650 C.ar   66  PHE66      -0.0003
    123  CE2       20.7930   14.6480    9.3540 C.ar   66  PHE66      -0.0003
    124  CZ        20.4920   15.1860    8.1190 C.ar   66  PHE66      -0.0000
    125  N         21.9190   20.8930    6.9220 N.3    68  VAL68      -0.1245
    126  CA        21.8730   20.5130    5.5260 C.3    68  VAL68       0.1561
    127  C         22.9820   21.1820    4.7260 C.2    68  VAL68       0.2260
    128  O         23.1790   20.8240    3.5740 O.2    68  VAL68      -0.2867
    129  CB        20.5760   20.8740    4.8600 C.3    68  VAL68       0.0252
    130  CG1       19.4210   20.4480    5.7310 C.3    68  VAL68       0.0019
    131  CG2       20.5620   22.3540    4.5500 C.3    68  VAL68       0.0019
    132  N         27.6490   19.1560    3.5310 N.3    71  HIS71      -0.1241
    133  CA        27.4020   18.2300    2.4110 C.3    71  HIS71       0.1621
    134  C         28.1810   16.9180    2.5530 C.2    71  HIS71       0.2264
    135  O         27.6610   15.8500    2.2770 O.2    71  HIS71      -0.2867
    136  CB        27.7200   18.9210    1.0980 C.3    71  HIS71       0.0745
    137  CG        26.7870   20.0310    0.7630 C.ar   71  HIS71       0.0817
    138  ND1       27.1770   21.3490    0.7480 N.ar   71  HIS71      -0.2268
    139  CD2       25.4900   20.0230    0.3700 C.ar   71  HIS71       0.1154
    140  CE1       26.1580   22.1120    0.3790 C.ar   71  HIS71       0.1986
    141  NE2       25.1180   21.3310    0.1450 N.ar   71  HIS71      -0.2212
    142  N         26.8950   14.6800    5.5610 N.3    74  ILE74      -0.1231
    143  CA        25.7300   13.9680    5.1320 C.3    74  ILE74       0.1692
    144  C         26.0550   12.8760    4.1310 C.2    74  ILE74       0.2592
    145  O         25.5030   11.7730    4.2080 O.2    74  ILE74      -0.2718
    146  CB        24.7790   14.8880    4.4740 C.3    74  ILE74       0.0266
    147  CG1       24.0800   15.7370    5.5430 C.3    74  ILE74       0.0019
    148  CG2       23.7790   14.0420    3.6270 C.3    74  ILE74       0.0020
    149  CD1       23.6380   17.1140    5.0750 C.3    74  ILE74       0.0001
    150  N         26.9460   13.1760    3.1910 N.am   75  TYR75      -0.1976
    151  CA        27.3710   12.1950    2.2240 C.3    75  TYR75       0.1639
    152  C         27.9840   11.0390    2.9390 C.2    75  TYR75       0.2290
    153  O         27.6380    9.9000    2.6560 O.2    75  TYR75      -0.2864
    154  CB        28.3480   12.7930    1.1890 C.3    75  TYR75       0.0560
    155  CG        27.6450   13.1520   -0.0940 C.ar   75  TYR75      -0.0198
    156  CD1       28.0930   12.6580   -1.3210 C.ar   75  TYR75      -0.0009
    157  CD2       26.4850   13.9300   -0.0890 C.ar   75  TYR75      -0.0009
    158  CE1       27.4390   12.9550   -2.5010 C.ar   75  TYR75       0.0417
    159  CE2       25.8250   14.2360   -1.2690 C.ar   75  TYR75       0.0417
    160  CZ        26.3120   13.7280   -2.4870 C.ar   75  TYR75       0.1957
    161  OH        25.6760   14.0130   -3.7000 O.3    75  TYR75      -0.2866
    162  N         25.1560    9.0410    4.7820 N.3    78  ILE78      -0.1245
    163  CA        24.4310    8.2610    3.7510 C.3    78  ILE78       0.1561
    164  C         25.2250    7.0270    3.2630 C.2    78  ILE78       0.2260
    165  O         24.7120    5.9350    3.2300 O.2    78  ILE78      -0.2867
    166  CB        24.0750    9.1490    2.5150 C.3    78  ILE78       0.0252
    167  CG1       22.9480   10.1290    2.8910 C.3    78  ILE78       0.0019
    168  CG2       23.6770    8.2700    1.3610 C.3    78  ILE78       0.0019
    169  CD1       22.7830   11.2640    1.9960 C.3    78  ILE78       0.0001
@<TRIPOS>BOND
     1    19    17   ar
     2    19    18   ar
     3    17    15   ar
     4    18    16   ar
     5    15    14   ar
     6    16    14   ar
     7    14    13    1
     8    13    10    1
     9   161   160    1
    10    10     9    1
    11    10    11    1
    12     9     3   am
    13     7     6    1
    14   158   160   ar
    15   158   156   ar
    16   160   159   ar
    17     1     2    1
    18     5     6    1
    19     5     2    1
    20    11    12    2
    21     6     8    1
    22     3     2    1
    23     3     4    2
    24    39    38    2
    25   156   155   ar
    26   159   157   ar
    27    38    40   am
    28    38    37    1
    29    37    36    1
    30   155   157   ar
    31   155   154    1
    32   141   139   ar
    33   141   140   ar
    34   139   137   ar
    35   140   138   ar
    36    36    33    1
    37   138   137   ar
    38   137   136    1
    39    20    21    1
    40   136   133    1
    41   154   151    1
    42   168   166    1
    43    32    33    1
    44    32    30   am
    45    33    34    1
    46   169   167    1
    47    28    29    1
    48    28    22   am
    49   151   152    1
    50   151   150    1
    51    29    30    1
    52   135   134    2
    53    21    24    1
    54    21    22    1
    55    30    31    2
    56   133   134    1
    57   133   132    1
    58    24    25    1
    59   166   167    1
    60   166   163    1
    61    26    25    1
    62    25    27    1
    63   153   152    2
    64    22    23    2
    65    34    35    2
    66   150   144   am
    67   165   164    2
    68   164   163    1
    69    54    53    1
    70    54    55    1
    71   128   127    2
    72   148   146    1
    73   163   162    1
    74    53    50    1
    75   144   145    2
    76   144   143    1
    77   146   143    1
    78   146   147    1
    79   131   129    1
    80    55    56    1
    81   127   126    1
    82   129   126    1
    83   129   130    1
    84    77    75   am
    85   149   147    1
    86   143   142    1
    87    50    49    1
    88    50    51    1
    89   126   125    1
    90    49    43   am
    91    41    42    1
    92    48    46    1
    93    51    52    2
    94    75    76    2
    95    75    74    1
    96    85    87   ar
    97    85    83   ar
    98   113   111   ar
    99   113   112   ar
   100    45    46    1
   101    45    42    1
   102    45    47    1
   103    87    86   ar
   104   111   109   ar
   105    82    83    1
   106    82    79    1
   107    42    43    1
   108    43    44    2
   109    83    84   ar
   110    72    71    2
   111    74    73    1
   112   112   110   ar
   113    86    84   ar
   114    68    67    1
   115   122   124   ar
   116   122   120   ar
   117   101   100    1
   118    79    78    1
   119    79    80    1
   120   109   108   ar
   121    66    67   ar
   122    66    64   ar
   123    67    65   ar
   124    71    78   am
   125    71    70    1
   126   124   123   ar
   127    94    92    1
   128    64    62   ar
   129    65    63   ar
   130   120   119   ar
   131   102   100    1
   132   110   108   ar
   133    73    70    1
   134    81    80    2
   135    62    63   ar
   136    62    61    1
   137   108   107    1
   138   100    99    1
   139    70    69    1
   140    61    58    1
   141   123   121   ar
   142    92    93    1
   143    92    89    1
   144    99    96    1
   145   119   121   ar
   146   119   118    1
   147    96    95    1
   148    96    97    1
   149   107   104    1
   150    58    57    1
   151    58    59    1
   152   117   116    2
   153   104   103    1
   154   104   105    1
   155   118   115    1
   156   116   115    1
   157    98    97    2
   158    89    88    1
   159    89    90    1
   160   115   114    1
   161    59    60    2
   162   106   105    2
   163    90    91    2
