@<TRIPOS>MOLECULE
tmp/3lblA00.pdb
 149 142 0 0 0
SMALL
GASTEIGER

@<TRIPOS>ATOM
      1  N        -23.3600    5.2890  -10.0440 N.3     3  ILE3       -0.1245
      2  CA       -23.7600    6.2240  -11.0880 C.3     3  ILE3        0.1561
      3  C        -25.1140    5.7570  -11.6010 C.2     3  ILE3        0.2260
      4  O        -25.2360    4.6240  -12.0540 O.2     3  ILE3       -0.2867
      5  CB       -22.7250    6.2650  -12.2250 C.3     3  ILE3        0.0252
      6  CG1      -21.3870    6.7780  -11.6830 C.3     3  ILE3        0.0019
      7  CG2      -23.2060    7.1530  -13.3610 C.3     3  ILE3        0.0019
      8  CD1      -20.2430    6.6810  -12.6690 C.3     3  ILE3        0.0001
      9  N        -17.4050    7.3380  -21.8230 N.3    38  LEU38      -0.1231
     10  CA       -16.8470    6.2200  -21.0550 C.3    38  LEU38       0.1693
     11  C        -16.4840    5.0250  -21.9370 C.2    38  LEU38       0.2592
     12  O        -15.4590    4.3780  -21.7120 O.2    38  LEU38      -0.2718
     13  CB       -17.7920    5.7860  -19.9230 C.3    38  LEU38       0.0284
     14  CG       -17.6400    6.5880  -18.6240 C.3    38  LEU38       0.0019
     15  CD1      -16.3530    6.2060  -17.8910 C.3    38  LEU38       0.0001
     16  CD2      -17.6690    8.0830  -18.8900 C.3    38  LEU38       0.0001
     17  N        -17.3170    4.7290  -22.9280 N.am   39  PHE39      -0.1976
     18  CA       -17.0320    3.6260  -23.8350 C.3    39  PHE39       0.1639
     19  C        -15.7860    3.9220  -24.6560 C.2    39  PHE39       0.2290
     20  O        -14.9000    3.0730  -24.7760 O.2    39  PHE39      -0.2864
     21  CB       -18.2020    3.3400  -24.7790 C.3    39  PHE39       0.0560
     22  CG       -17.8570    2.3570  -25.8520 C.ar   39  PHE39      -0.0200
     23  CD1      -17.8240    1.0050  -25.5650 C.ar   39  PHE39      -0.0042
     24  CD2      -17.5220    2.7810  -27.1270 C.ar   39  PHE39      -0.0042
     25  CE1      -17.4770    0.0870  -26.5390 C.ar   39  PHE39      -0.0003
     26  CE2      -17.1730    1.8660  -28.1140 C.ar   39  PHE39      -0.0003
     27  CZ       -17.1510    0.5180  -27.8150 C.ar   39  PHE39      -0.0000
     28  N        -13.2920    6.1220  -24.1190 N.3    41  LEU41      -0.1231
     29  CA       -12.0960    6.1000  -23.2730 C.3    41  LEU41       0.1693
     30  C        -11.6920    4.6790  -22.8880 C.2    41  LEU41       0.2592
     31  O        -10.5090    4.3520  -22.8700 O.2    41  LEU41      -0.2718
     32  CB       -12.2780    6.9500  -22.0190 C.3    41  LEU41       0.0284
     33  CG       -12.1920    8.4650  -22.2340 C.3    41  LEU41       0.0019
     34  CD1      -12.6920    9.1740  -20.9890 C.3    41  LEU41       0.0001
     35  CD2      -10.7740    8.9010  -22.5570 C.3    41  LEU41       0.0001
     36  N        -12.6700    3.8250  -22.5910 N.am   42  GLY42      -0.1957
     37  CA       -12.3720    2.4300  -22.2830 C.3    42  GLY42       0.1869
     38  C        -11.7640    1.7150  -23.4760 C.2    42  GLY42       0.2309
     39  O        -10.8210    0.9310  -23.3400 O.2    42  GLY42      -0.2863
     40  N         -8.2040    2.8090  -23.9500 N.3    45  ILE45      -0.1231
     41  CA        -7.3710    2.1100  -22.9830 C.3    45  ILE45       0.1692
     42  C         -7.0850    0.6680  -23.4090 C.2    45  ILE45       0.2591
     43  O         -5.9400    0.2060  -23.3360 O.2    45  ILE45      -0.2718
     44  CB        -8.0120    2.1520  -21.5850 C.3    45  ILE45       0.0266
     45  CG1       -7.8550    3.5590  -21.0010 C.3    45  ILE45       0.0019
     46  CG2       -7.3870    1.0990  -20.6780 C.3    45  ILE45       0.0020
     47  CD1       -8.7040    3.8220  -19.7750 C.3    45  ILE45       0.0001
     48  N         -8.1100   -0.0420  -23.8730 N.am   46  MET46      -0.1979
     49  CA        -7.9440   -1.4450  -24.2430 C.3    46  MET46       0.1605
     50  C         -7.1410   -1.6250  -25.5130 C.2    46  MET46       0.2287
     51  O         -6.2590   -2.4770  -25.5670 O.2    46  MET46      -0.2864
     52  CB        -9.2970   -2.1410  -24.3900 C.3    46  MET46       0.0413
     53  CG       -10.0080   -2.3380  -23.0760 C.3    46  MET46       0.0598
     54  SD        -9.0180   -3.2220  -21.8490 S.3    46  MET46      -0.1393
     55  CE        -8.8270   -4.8210  -22.6360 C.3    46  MET46       0.0692
     56  N         -4.2610   -1.0330  -19.8060 N.3    51  TYR51      -0.1241
     57  CA        -4.8570   -1.6580  -18.6280 C.3    51  TYR51       0.1605
     58  C         -4.1380   -2.9650  -18.3130 C.2    51  TYR51       0.2264
     59  O         -4.0350   -3.8380  -19.1750 O.2    51  TYR51      -0.2867
     60  CB        -6.3400   -1.9200  -18.8880 C.3    51  TYR51       0.0534
     61  CG        -7.0780   -2.5940  -17.7540 C.ar   51  TYR51      -0.0201
     62  CD1       -6.9900   -2.1140  -16.4550 C.ar   51  TYR51      -0.0009
     63  CD2       -7.8870   -3.6970  -17.9940 C.ar   51  TYR51      -0.0009
     64  CE1       -7.6790   -2.7250  -15.4150 C.ar   51  TYR51       0.0417
     65  CE2       -8.5820   -4.3080  -16.9690 C.ar   51  TYR51       0.0417
     66  CZ        -8.4730   -3.8180  -15.6850 C.ar   51  TYR51       0.1957
     67  OH        -9.1650   -4.4290  -14.6690 O.3    51  TYR51      -0.2866
     68  N         -4.6290    1.0610  -14.5760 N.3    59  VAL59      -0.1245
     69  CA        -4.3530    1.6300  -15.8820 C.3    59  VAL59       0.1561
     70  C         -3.0760    2.4610  -15.7580 C.2    59  VAL59       0.2260
     71  O         -2.9570    3.3130  -14.8720 O.2    59  VAL59      -0.2867
     72  CB        -5.5080    2.5400  -16.3800 C.3    59  VAL59       0.0252
     73  CG1       -5.1200    3.2400  -17.6750 C.3    59  VAL59       0.0019
     74  CG2       -6.7940    1.7350  -16.5680 C.3    59  VAL59       0.0019
     75  N         -3.2970   10.0740  -22.3840 N.3    66  LEU66      -0.1245
     76  CA        -4.2960    9.8750  -21.3300 C.3    66  LEU66       0.1561
     77  C         -3.7710   10.3980  -19.9850 C.2    66  LEU66       0.2260
     78  O         -4.5330   10.9500  -19.1880 O.2    66  LEU66      -0.2867
     79  CB        -4.7060    8.4040  -21.2300 C.3    66  LEU66       0.0270
     80  CG        -5.7200    8.0450  -20.1380 C.3    66  LEU66       0.0019
     81  CD1       -7.0270    8.8130  -20.3200 C.3    66  LEU66       0.0001
     82  CD2       -5.9740    6.5470  -20.1160 C.3    66  LEU66       0.0001
     83  N         -5.5300   13.3290  -17.5170 N.3    70  PHE70      -0.1241
     84  CA        -5.9240   13.0460  -16.1400 C.3    70  PHE70       0.1605
     85  C         -4.9560   13.6120  -15.1060 C.2    70  PHE70       0.2264
     86  O         -5.3040   13.7290  -13.9250 O.2    70  PHE70      -0.2867
     87  CB        -6.0510   11.5320  -15.9510 C.3    70  PHE70       0.0534
     88  CG        -7.3270   10.9330  -16.5120 C.ar   70  PHE70      -0.0203
     89  CD1       -8.2480   11.6890  -17.2410 C.ar   70  PHE70      -0.0042
     90  CD2       -7.5840    9.5900  -16.3260 C.ar   70  PHE70      -0.0042
     91  CE1       -9.4100   11.1120  -17.7370 C.ar   70  PHE70      -0.0003
     92  CE2       -8.7450    9.0030  -16.8270 C.ar   70  PHE70      -0.0003
     93  CZ        -9.6500    9.7620  -17.5370 C.ar   70  PHE70      -0.0000
     94  N         -3.8020    4.9540  -12.5090 N.3    75  PHE75      -0.1241
     95  CA        -4.9440    4.9270  -11.6040 C.3    75  PHE75       0.1605
     96  C         -5.5510    3.5330  -11.5340 C.2    75  PHE75       0.2264
     97  O         -5.4410    2.7450  -12.4670 O.2    75  PHE75      -0.2867
     98  CB        -6.0040    5.9630  -12.0130 C.3    75  PHE75       0.0534
     99  CG        -6.5640    5.7530  -13.3890 C.ar   75  PHE75      -0.0203
    100  CD1       -7.6840    4.9590  -13.5810 C.ar   75  PHE75      -0.0042
    101  CD2       -5.9730    6.3520  -14.4910 C.ar   75  PHE75      -0.0042
    102  CE1       -8.2050    4.7570  -14.8430 C.ar   75  PHE75      -0.0003
    103  CE2       -6.4890    6.1620  -15.7610 C.ar   75  PHE75      -0.0003
    104  CZ        -7.6120    5.3630  -15.9390 C.ar   75  PHE75      -0.0000
    105  N         -8.7020    1.1740  -11.6770 N.3    77  VAL77      -0.1245
    106  CA       -10.0140    1.2260  -12.3260 C.3    77  VAL77       0.1561
    107  C        -11.1660    1.1080  -11.3190 C.2    77  VAL77       0.2260
    108  O        -12.3130    1.3810  -11.6630 O.2    77  VAL77      -0.2867
    109  CB       -10.1730    0.1520  -13.4300 C.3    77  VAL77       0.0252
    110  CG1       -9.0830    0.3110  -14.4800 C.3    77  VAL77       0.0019
    111  CG2      -10.1570   -1.2490  -12.8400 C.3    77  VAL77       0.0019
    112  N        -13.7870    4.7460   -8.9040 N.3    80  HIS80      -0.1241
    113  CA       -14.7760    5.3250   -9.8120 C.3    80  HIS80       0.1621
    114  C        -14.9790    6.8270   -9.6360 C.2    80  HIS80       0.2264
    115  O        -15.0830    7.5410  -10.6270 O.2    80  HIS80      -0.2867
    116  CB       -16.1160    4.5870   -9.7120 C.3    80  HIS80       0.0745
    117  CG       -16.1550    3.3140  -10.4980 C.ar   80  HIS80       0.0817
    118  ND1      -17.3320    2.6930  -10.8580 N.ar   80  HIS80      -0.2268
    119  CD2      -15.1580    2.5590  -11.0130 C.ar   80  HIS80       0.1154
    120  CE1      -17.0560    1.6020  -11.5500 C.ar   80  HIS80       0.1986
    121  NE2      -15.7430    1.4980  -11.6580 N.ar   80  HIS80      -0.2212
    122  N        -11.9580    8.6880  -11.0760 N.3    83  ILE83      -0.1231
    123  CA       -11.9840    8.6110  -12.5350 C.3    83  ILE83       0.1692
    124  C        -13.0260    9.5590  -13.1120 C.2    83  ILE83       0.2592
    125  O        -12.7440   10.3140  -14.0520 O.2    83  ILE83      -0.2718
    126  CB       -12.2640    7.1760  -13.0230 C.3    83  ILE83       0.0266
    127  CG1      -11.0630    6.2770  -12.7310 C.3    83  ILE83       0.0019
    128  CG2      -12.5740    7.1610  -14.5250 C.3    83  ILE83       0.0020
    129  CD1      -11.3660    4.8060  -12.8760 C.3    83  ILE83       0.0001
    130  N        -14.2270    9.5170  -12.5430 N.am   84  TYR84      -0.1976
    131  CA       -15.3320   10.3160  -13.0570 C.3    84  TYR84       0.1639
    132  C        -15.0310   11.8030  -12.9240 C.2    84  TYR84       0.2290
    133  O        -15.3700   12.5920  -13.8090 O.2    84  TYR84      -0.2864
    134  CB       -16.6510    9.9610  -12.3530 C.3    84  TYR84       0.0560
    135  CG       -17.8050    9.9630  -13.3150 C.ar   84  TYR84      -0.0198
    136  CD1      -17.8100    9.0930  -14.3990 C.ar   84  TYR84      -0.0009
    137  CD2      -18.8730   10.8440  -13.1740 C.ar   84  TYR84      -0.0009
    138  CE1      -18.8310    9.0800  -15.3050 C.ar   84  TYR84       0.0417
    139  CE2      -19.9180   10.8330  -14.0870 C.ar   84  TYR84       0.0417
    140  CZ       -19.8820    9.9490  -15.1530 C.ar   84  TYR84       0.1957
    141  OH       -20.8830    9.9070  -16.0870 O.3    84  TYR84      -0.2866
    142  N        -12.4280   12.7580  -15.6400 N.3    87  ILE87      -0.1245
    143  CA       -13.0940   12.8820  -16.9380 C.3    87  ILE87       0.1561
    144  C        -13.8660   14.1930  -17.0140 C.2    87  ILE87       0.2260
    145  O        -13.7530   14.9390  -17.9820 O.2    87  ILE87      -0.2867
    146  CB       -14.0480   11.6870  -17.2090 C.3    87  ILE87       0.0252
    147  CG1      -13.2430   10.3990  -17.3840 C.3    87  ILE87       0.0019
    148  CG2      -14.9140   11.9390  -18.4500 C.3    87  ILE87       0.0019
    149  CD1      -14.0970    9.1500  -17.4810 C.3    87  ILE87       0.0001
@<TRIPOS>BOND
     1    26    27   ar
     2    26    24   ar
     3    27    25   ar
     4    24    22   ar
     5    25    23   ar
     6    22    23   ar
     7    22    21    1
     8    51    50    2
     9    50    49    1
    10    21    18    1
    11    20    19    2
    12    19    18    1
    13    52    49    1
    14    52    53    1
    15    49    48    1
    16    28    29    1
    17    40    41    1
    18    48    42   am
    19    18    17    1
    20    38    39    2
    21    38    37    1
    22    42    43    2
    23    42    41    1
    24    29    30    1
    25    29    32    1
    26    53    54    1
    27    41    44    1
    28    17    11   am
    29    30    31    2
    30    30    36   am
    31    55    54    1
    32    36    37    1
    33    35    33    1
    34    75    76    1
    35    33    32    1
    36    33    34    1
    37    11    12    2
    38    11    10    1
    39     9    10    1
    40    44    45    1
    41    44    46    1
    42    76    79    1
    43    76    77    1
    44    79    80    1
    45    10    13    1
    46    45    47    1
    47    81    80    1
    48    80    82    1
    49    77    78    2
    50    13    14    1
    51    56    57    1
    52    59    58    2
    53    16    14    1
    54    60    57    1
    55    60    61    1
    56    57    58    1
    57    14    15    1
    58   148   146    1
    59    63    61   ar
    60    63    65   ar
    61   145   144    2
    62    61    62   ar
    63    91    93   ar
    64    91    89   ar
    65    73    72    1
    66    93    92   ar
    67    83    84    1
    68   149   147    1
    69   147   146    1
    70    89    88   ar
    71   146   143    1
    72   144   143    1
    73    65    66   ar
    74   143   142    1
    75    92    90   ar
    76    74    72    1
    77    88    90   ar
    78    88    87    1
    79    62    64   ar
    80    72    69    1
    81    84    87    1
    82    84    85    1
    83   141   140    1
    84   104   103   ar
    85   104   102   ar
    86    69    70    1
    87    69    68    1
    88   103   101   ar
    89    70    71    2
    90    66    64   ar
    91    66    67    1
    92   138   140   ar
    93   138   136   ar
    94   140   139   ar
    95    85    86    2
    96   102   100   ar
    97   128   126    1
    98   101    99   ar
    99   110   109    1
   100   136   135   ar
   101   139   137   ar
   102   125   124    2
   103   133   132    2
   104   100    99   ar
   105   109   111    1
   106   109   106    1
   107    99    98    1
   108     7     5    1
   109   135   137   ar
   110   135   134    1
   111   124   130   am
   112   124   123    1
   113   131   132    1
   114   131   130    1
   115   131   134    1
   116   126   127    1
   117   126   123    1
   118   129   127    1
   119     8     6    1
   120   123   122    1
   121    94    95    1
   122    97    96    2
   123   106   105    1
   124   106   107    1
   125     5     6    1
   126     5     2    1
   127     4     3    2
   128    98    95    1
   129   108   107    2
   130   121   120   ar
   131   121   119   ar
   132    95    96    1
   133     3     2    1
   134   120   118   ar
   135     2     1    1
   136   119   117   ar
   137   118   117   ar
   138   115   114    2
   139   117   116    1
   140   113   116    1
   141   113   114    1
   142   113   112    1
