@<TRIPOS>MOLECULE
tmp/3lbyA00.pdb
 184 180 0 0 0
SMALL
GASTEIGER

@<TRIPOS>ATOM
      1  N          3.8840   37.6310   -1.9660 N.3    26  ALA26      -0.1231
      2  CA         3.4560   38.8470   -2.6670 C.3    26  ALA26       0.1694
      3  C          4.5570   39.5490   -3.4750 C.2    26  ALA26       0.2592
      4  O          4.2730   40.4540   -4.2690 O.2    26  ALA26      -0.2718
      5  CB         2.7890   39.8330   -1.6720 C.3    26  ALA26       0.0304
      6  N          5.8040   39.1310   -3.2640 N.am   27  THR27      -0.1953
      7  CA         6.9590   39.7310   -3.9160 C.3    27  THR27       0.1897
      8  C          7.9770   38.6460   -4.2710 C.2    27  THR27       0.2313
      9  O          9.0210   38.5040   -3.6270 O.2    27  THR27      -0.2863
     10  CB         7.6260   40.7800   -3.0130 C.3    27  THR27       0.1794
     11  OG1        7.8300   40.2110   -1.7170 O.3    27  THR27      -0.2208
     12  CG2        6.7300   42.0200   -2.8770 C.3    27  THR27       0.0378
     13  N         10.3670   38.0350   -6.4200 N.3    29  GLY29      -0.1225
     14  CA        11.7860   38.2890   -6.6050 C.3    29  GLY29       0.1811
     15  C         12.5170   37.0730   -7.1860 C.2    29  GLY29       0.2280
     16  O         12.0550   36.4630   -8.1530 O.2    29  GLY29      -0.2866
     17  N          3.5890   36.3280   -6.6600 N.3    47  PHE47      -0.1227
     18  CA         3.3330   37.4710   -7.5460 C.3    47  PHE47       0.1736
     19  C          4.5900   38.2680   -7.8230 C.2    47  PHE47       0.2595
     20  O          5.3900   38.5000   -6.9200 O.2    47  PHE47      -0.2718
     21  CB         2.3370   38.4500   -6.8840 C.3    47  PHE47       0.0547
     22  CG         0.9460   37.9150   -6.7360 C.ar   47  PHE47      -0.0202
     23  CD1       -0.0470   38.2760   -7.6390 C.ar   47  PHE47      -0.0042
     24  CD2        0.6120   37.0810   -5.6760 C.ar   47  PHE47      -0.0042
     25  CE1       -1.3440   37.7970   -7.4960 C.ar   47  PHE47      -0.0003
     26  CE2       -0.6770   36.5950   -5.5370 C.ar   47  PHE47      -0.0003
     27  CZ        -1.6570   36.9520   -6.4480 C.ar   47  PHE47      -0.0000
     28  N          4.7540   38.7090   -9.0650 N.am   48  ASP48      -0.1960
     29  CA         5.7560   39.7170   -9.3860 C.3    48  ASP48       0.1840
     30  C          5.3500   40.4790  -10.6410 C.2    48  ASP48       0.2622
     31  O          4.5680   39.9750  -11.4600 O.2    48  ASP48      -0.2715
     32  CB         7.1510   39.1080   -9.5670 C.3    48  ASP48       0.1450
     33  CG         8.2590   40.0840   -9.1970 C.2    48  ASP48       0.3671
     34  OD1        8.4330   41.1170   -9.8840 O.co2  48  ASP48      -0.2456
     35  OD2        8.9600   39.8290   -8.2030 O.co2  48  ASP48      -0.2456
     36  N          5.8880   41.6870  -10.7910 N.am   49  VAL49      -0.1963
     37  CA         5.6560   42.4670  -12.0030 C.3    49  VAL49       0.1727
     38  C          6.8210   42.4220  -13.0080 C.2    49  VAL49       0.2616
     39  O          6.6960   42.9480  -14.1170 O.2    49  VAL49      -0.2715
     40  CB         5.3310   43.9440  -11.6770 C.3    49  VAL49       0.0290
     41  CG1        4.0740   44.0400  -10.8100 C.3    49  VAL49       0.0023
     42  CG2        6.5210   44.6080  -11.0080 C.3    49  VAL49       0.0023
     43  N          7.9410   41.8070  -12.6250 N.am   50  GLN50      -0.1977
     44  CA         9.0960   41.6650  -13.5220 C.3    50  GLN50       0.1601
     45  C          9.2350   40.2350  -14.0560 C.2    50  GLN50       0.2287
     46  O          9.2950   39.2750  -13.2860 O.2    50  GLN50      -0.2864
     47  CB        10.4050   42.0550  -12.8150 C.3    50  GLN50       0.0394
     48  CG        10.5830   43.5450  -12.5210 C.3    50  GLN50       0.0908
     49  CD        11.9250   43.8590  -11.8570 C.2    50  GLN50       0.2608
     50  OE1       11.9990   44.0770  -10.6420 O.2    50  GLN50      -0.2717
     51  NE2       12.9900   43.8700  -12.6480 N.am   50  GLN50      -0.0878
     52  N         11.8390   37.9450  -12.5320 N.3    53  ALA53      -0.1245
     53  CA        11.4980   37.2530  -11.2930 C.3    53  ALA53       0.1562
     54  C         10.9150   35.8750  -11.5840 C.2    53  ALA53       0.2260
     55  O         11.2950   34.8840  -10.9580 O.2    53  ALA53      -0.2867
     56  CB        10.5000   38.0920  -10.4610 C.3    53  ALA53       0.0290
     57  N          1.7300   39.6290  -12.3410 N.3    74  ASP74      -0.1225
     58  CA         0.7480   40.6720  -12.0970 C.3    74  ASP74       0.1805
     59  C          0.9740   41.2430  -10.6950 C.2    74  ASP74       0.2598
     60  O          1.5680   40.5830   -9.8480 O.2    74  ASP74      -0.2718
     61  CB        -0.6720   40.1110  -12.2450 C.3    74  ASP74       0.1424
     62  CG        -1.6630   41.1480  -12.7530 C.2    74  ASP74       0.3668
     63  OD1       -1.3140   42.3450  -12.8040 O.co2  74  ASP74      -0.2456
     64  OD2       -2.7960   40.7640  -13.1010 O.co2  74  ASP74      -0.2456
     65  N          0.5160   42.4700  -10.4560 N.am   75  GLY75      -0.1942
     66  CA         0.7440   43.1310   -9.1850 C.3    75  GLY75       0.2014
     67  C          0.0730   42.4120   -8.0290 C.2    75  GLY75       0.2639
     68  O         -1.0260   41.8830   -8.1850 O.2    75  GLY75      -0.2714
     69  N          0.7120   42.3970   -6.8620 N.am   76  HIS76      -0.1959
     70  CA         0.0730   41.7820   -5.6910 C.3    76  HIS76       0.1787
     71  C         -1.2730   42.4330   -5.3340 C.2    76  HIS76       0.2620
     72  O         -2.1120   41.8200   -4.6590 O.2    76  HIS76      -0.2715
     73  CB         1.0070   41.7390   -4.4750 C.3    76  HIS76       0.0785
     74  CG         1.8330   42.9730   -4.2800 C.ar   76  HIS76       0.0821
     75  ND1        3.1760   42.9250   -3.9700 N.ar   76  HIS76      -0.2267
     76  CD2        1.5040   44.2870   -4.3230 C.ar   76  HIS76       0.1154
     77  CE1        3.6430   44.1560   -3.8470 C.ar   76  HIS76       0.1986
     78  NE2        2.6460   45.0010   -4.0510 N.ar   76  HIS76      -0.2212
     79  N         -1.4870   43.6620   -5.8000 N.am   77  GLN77      -0.1977
     80  CA        -2.7590   44.3420   -5.5600 C.3    77  GLN77       0.1601
     81  C         -3.9160   43.6630   -6.3000 C.2    77  GLN77       0.2287
     82  O         -5.0780   43.9440   -6.0300 O.2    77  GLN77      -0.2864
     83  CB        -2.6830   45.8360   -5.9250 C.3    77  GLN77       0.0394
     84  CG        -2.6330   46.1540   -7.4330 C.3    77  GLN77       0.0908
     85  CD        -1.2110   46.1470   -7.9910 C.2    77  GLN77       0.2608
     86  OE1       -0.2610   45.7590   -7.3070 O.2    77  GLN77      -0.2717
     87  NE2       -1.0630   46.5840   -9.2350 N.am   77  GLN77      -0.0878
     88  N          8.3700   41.1200    0.8340 N.3    93  ASN93      -0.1225
     89  CA         9.7200   41.6650    0.9580 C.3    93  ASN93       0.1785
     90  C          9.8010   42.9190    0.1090 C.2    93  ASN93       0.2597
     91  O         10.0210   42.8300   -1.1010 O.2    93  ASN93      -0.2718
     92  CB        10.7670   40.6700    0.4750 C.3    93  ASN93       0.1169
     93  CG        11.3190   39.8260    1.5880 C.2    93  ASN93       0.2627
     94  OD1       12.4480   40.0290    2.0340 O.2    93  ASN93      -0.2716
     95  ND2       10.5270   38.8780    2.0550 N.am   93  ASN93      -0.0877
     96  N          9.6210   44.0810    0.7310 N.am   94  LEU94      -0.1966
     97  CA         9.5590   45.3420   -0.0080 C.3    94  LEU94       0.1728
     98  C         10.9200   45.8500   -0.5180 C.2    94  LEU94       0.2617
     99  O         11.9740   45.3470   -0.1190 O.2    94  LEU94      -0.2715
    100  CB         8.8620   46.4090    0.8330 C.3    94  LEU94       0.0311
    101  CG         7.5130   45.9520    1.3990 C.3    94  LEU94       0.0022
    102  CD1        6.9180   47.0190    2.3070 C.3    94  LEU94       0.0001
    103  CD2        6.5470   45.5700    0.2690 C.3    94  LEU94       0.0001
    104  N         10.8810   46.8250   -1.4270 N.am   95  GLY95      -0.1940
    105  CA        12.0760   47.5090   -1.9110 C.3    95  GLY95       0.2014
    106  C         13.1230   46.8150   -2.7870 C.2    95  GLY95       0.2639
    107  O         14.2440   46.5810   -2.3340 O.2    95  GLY95      -0.2714
    108  N         12.7700   46.5100   -4.0360 N.am   96  TYR96      -0.1959
    109  CA        13.7260   46.1230   -5.1070 C.3    96  TYR96       0.1771
    110  C         14.6980   44.9340   -4.9240 C.2    96  TYR96       0.2619
    111  O         15.2540   44.7130   -3.8490 O.2    96  TYR96      -0.2715
    112  CB        14.5040   47.3490   -5.6240 C.3    96  TYR96       0.0574
    113  CG        15.8410   47.6090   -4.9550 C.ar   96  TYR96      -0.0198
    114  CD1       16.9650   46.8620   -5.2870 C.ar   96  TYR96      -0.0009
    115  CD2       15.9870   48.6230   -4.0130 C.ar   96  TYR96      -0.0009
    116  CE1       18.1900   47.1000   -4.6880 C.ar   96  TYR96       0.0417
    117  CE2       17.2090   48.8710   -3.4080 C.ar   96  TYR96       0.0417
    118  CZ        18.3080   48.1060   -3.7500 C.ar   96  TYR96       0.1957
    119  OH        19.5290   48.3410   -3.1580 O.3    96  TYR96      -0.2866
    120  N         14.9220   44.1990   -6.0150 N.am   97  LEU97      -0.1964
    121  CA        15.9090   43.1170   -6.0380 C.3    97  LEU97       0.1713
    122  C         17.0930   43.4760   -6.9360 C.2    97  LEU97       0.2458
    123  O         16.9470   44.2580   -7.8740 O.2    97  LEU97      -0.2730
    124  CB        15.2770   41.8090   -6.5260 C.3    97  LEU97       0.0310
    125  CG        15.2770   41.5640   -8.0380 C.3    97  LEU97       0.0022
    126  CD1       14.9870   40.1040   -8.3550 C.3    97  LEU97       0.0001
    127  CD2       14.2940   42.4820   -8.7510 C.3    97  LEU97       0.0001
    128  N         18.2730   42.9080   -6.6430 N.am   98  PRO98      -0.2727
    129  CA        19.4910   43.0930   -7.4500 C.3    98  PRO98       0.1402
    130  C         19.2990   42.7710   -8.9350 C.2    98  PRO98       0.2269
    131  O         19.7270   41.7150   -9.4040 O.2    98  PRO98      -0.2865
    132  CB        20.4740   42.1080   -6.8190 C.3    98  PRO98       0.0296
    133  CG        20.0460   42.0360   -5.3920 C.3    98  PRO98       0.0237
    134  CD        18.5400   42.1520   -5.4070 C.3    98  PRO98       0.0939
    135  N         11.8290   49.4450  -10.5120 N.3   102  VAL102     -0.1231
    136  CA        10.8010   48.4530  -10.1960 C.3   102  VAL102      0.1692
    137  C         10.7420   48.1530   -8.7030 C.2   102  VAL102      0.2592
    138  O         10.6930   46.9920   -8.2820 O.2   102  VAL102     -0.2718
    139  CB        10.9600   47.1410  -10.9760 C.3   102  VAL102      0.0266
    140  CG1        9.6540   46.3700  -10.9230 C.3   102  VAL102      0.0020
    141  CG2       11.3540   47.4210  -12.4260 C.3   102  VAL102      0.0020
    142  N         10.7350   49.2050   -7.8990 N.am  103  ILE103     -0.1966
    143  CA        10.5470   49.0270   -6.4710 C.3   103  ILE103      0.1727
    144  C          9.0620   48.9040   -6.1660 C.2   103  ILE103      0.2617
    145  O          8.2080   49.3270   -6.9610 O.2   103  ILE103     -0.2715
    146  CB        11.1310   50.1970   -5.6720 C.3   103  ILE103      0.0290
    147  CG1       10.5360   51.5240   -6.1530 C.3   103  ILE103      0.0022
    148  CG2       12.6580   50.2180   -5.7920 C.3   103  ILE103      0.0023
    149  CD1       10.7930   52.6760   -5.1930 C.3   103  ILE103      0.0001
    150  N          8.7580   48.3090   -5.0160 N.am  104  THR104     -0.1937
    151  CA         7.3920   48.2540   -4.5310 C.3   104  THR104      0.2028
    152  C          6.9890   49.6670   -4.1550 C.2   104  THR104      0.2642
    153  O          7.8400   50.4800   -3.7830 O.2   104  THR104     -0.2714
    154  CB         7.2740   47.3200   -3.3100 C.3   104  THR104      0.1808
    155  OG1        8.2360   47.7040   -2.3130 O.3   104  THR104     -0.2208
    156  CG2        7.5400   45.8660   -3.7260 C.3   104  THR104      0.0379
    157  N          5.6920   49.9530   -4.2340 N.am  105  GLN105     -0.1976
    158  CA         5.1890   51.3130   -4.0810 C.3   105  GLN105      0.1601
    159  C          4.0750   51.3660   -3.0350 C.2   105  GLN105      0.2287
    160  O          3.3310   50.4010   -2.8750 O.2   105  GLN105     -0.2864
    161  CB         4.6610   51.8080   -5.4280 C.3   105  GLN105      0.0394
    162  CG         5.1500   53.1830   -5.8060 C.3   105  GLN105      0.0908
    163  CD         6.6420   53.2080   -6.0560 C.2   105  GLN105      0.2608
    164  OE1        7.1400   52.5600   -6.9780 O.2   105  GLN105     -0.2717
    165  NE2        7.3660   53.9700   -5.2420 N.am  105  GLN105     -0.0878
    166  N          0.1410   50.4350   -4.0200 N.3   108  THR108     -0.1218
    167  CA        -0.0120   49.0440   -4.4300 C.3   108  THR108      0.1862
    168  C          0.2920   48.1000   -3.2720 C.2   108  THR108      0.2287
    169  O         -0.3920   47.0920   -3.0830 O.2   108  THR108     -0.2866
    170  CB         0.8610   48.6950   -5.6560 C.3   108  THR108      0.1770
    171  OG1        2.1670   49.2730   -5.5080 O.3   108  THR108     -0.2211
    172  CG2        0.2130   49.2200   -6.9320 C.3   108  THR108      0.0375
    173  N         12.3440   47.1730    3.5680 N.3   131  TYR131     -0.1241
    174  CA        13.6530   47.7030    3.1750 C.3   131  TYR131      0.1605
    175  C         13.4820   49.1620    2.7870 C.2   131  TYR131      0.2264
    176  O         12.5570   49.5030    2.0550 O.2   131  TYR131     -0.2867
    177  CB        14.2270   46.9290    1.9810 C.3   131  TYR131      0.0534
    178  CG        14.5100   45.4760    2.2720 C.ar  131  TYR131     -0.0201
    179  CD1       15.8050   45.0220    2.4570 C.ar  131  TYR131     -0.0009
    180  CD2       13.4780   44.5640    2.3830 C.ar  131  TYR131     -0.0009
    181  CE1       16.0600   43.6960    2.7350 C.ar  131  TYR131      0.0417
    182  CE2       13.7220   43.2470    2.6630 C.ar  131  TYR131      0.0417
    183  CZ        15.0070   42.8130    2.8350 C.ar  131  TYR131      0.1957
    184  OH        15.2280   41.4860    3.1180 O.3   131  TYR131     -0.2866
@<TRIPOS>BOND
     1    39    38    2
     2    45    44    1
     3    45    46    2
     4    44    47    1
     5    44    43    1
     6    64    62   ar
     7    38    43   am
     8    38    37    1
     9    47    48    1
    10    63    62   ar
    11    62    61    1
    12    51    49   am
    13    52    53    1
    14    48    49    1
    15   141   139    1
    16    57    58    1
    17    61    58    1
    18    58    59    1
    19    37    40    1
    20    37    36    1
    21    49    50    2
    22    40    42    1
    23    40    41    1
    24    54    53    1
    25    54    55    2
    26    31    30    2
    27    53    56    1
    28   139   140    1
    29   139   136    1
    30    36    30   am
    31    59    65   am
    32    59    60    2
    33    30    29    1
    34   135   136    1
    35    65    66    1
    36   136   137    1
    37    34    33   ar
    38    32    29    1
    39    32    33    1
    40   131   130    2
    41    29    28    1
    42    87    85   am
    43    33    35   ar
    44    66    67    1
    45    28    19   am
    46   130   129    1
    47   127   125    1
    48   137   138    2
    49   137   142   am
    50   126   125    1
    51    68    67    2
    52    16    15    2
    53   125   124    1
    54    67    69   am
    55    85    84    1
    56    85    86    2
    57   142   143    1
    58   123   122    2
    59    19    18    1
    60    19    20    2
    61    23    25   ar
    62    23    22   ar
    63    18    21    1
    64    18    17    1
    65    25    27   ar
    66   129   132    1
    67   129   128    1
    68    84    83    1
    69    15    14    1
    70   164   163    2
    71   145   144    2
    72   122   128   am
    73   122   121    1
    74   172   170    1
    75    21    22    1
    76    69    70    1
    77   132   133    1
    78    22    24   ar
    79   128   134    1
    80    14    13    1
    81   124   121    1
    82   143   144    1
    83   143   146    1
    84    27    26   ar
    85    81    82    2
    86    81    80    1
    87   144   150   am
    88   147   146    1
    89   147   149    1
    90   163   162    1
    91   163   165   am
    92   121   120    1
    93   120   110   am
    94    83    80    1
    95   162   161    1
    96    79    80    1
    97    79    71   am
    98   148   146    1
    99    70    71    1
   100    70    73    1
   101    24    26   ar
   102   170   171    1
   103   170   167    1
   104   112   109    1
   105   112   113    1
   106   161   158    1
   107   134   133    1
   108    71    72    2
   109   114   113   ar
   110   114   116   ar
   111   109   110    1
   112   109   108    1
   113   150   151    1
   114   113   115   ar
   115   110   111    2
   116   116   118   ar
   117   151   152    1
   118   151   154    1
   119    73    74    1
   120   167   166    1
   121   167   168    1
   122    76    74   ar
   123    76    78   ar
   124    74    75   ar
   125     8     7    1
   126     8     9    2
   127     4     3    2
   128   157   152   am
   129   157   158    1
   130   152   153    2
   131   158   159    1
   132    78    77   ar
   133   108   106   am
   134   115   117   ar
   135    75    77   ar
   136     7     6    1
   137     7    10    1
   138   118   117   ar
   139   118   119    1
   140   156   154    1
   141     3     6   am
   142     3     2    1
   143   154   155    1
   144   168   169    2
   145   159   160    2
   146    10    12    1
   147    10    11    1
   148   106   107    2
   149   106   105    1
   150     2     1    1
   151     2     5    1
   152   105   104    1
   153   104    98   am
   154    91    90    2
   155    98    99    2
   156    98    97    1
   157    97    96    1
   158    97   100    1
   159    90    96   am
   160    90    89    1
   161   103   101    1
   162    92    89    1
   163    92    93    1
   164   100   101    1
   165    88    89    1
   166   101   102    1
   167    93    94    2
   168    93    95   am
   169   177   178    1
   170   177   174    1
   171   176   175    2
   172   178   180   ar
   173   178   179   ar
   174   180   182   ar
   175   179   181   ar
   176   182   183   ar
   177   181   183   ar
   178   175   174    1
   179   183   184    1
   180   174   173    1
