@<TRIPOS>MOLECULE
tmp/3lbzB02.pdb
 99 95 0 0 0
SMALL
GASTEIGER

@<TRIPOS>ATOM
      1  N        -11.7390   -0.0500   21.5830 N.3    50  LEU50      -0.1245
      2  CA       -12.3770   -0.1700   22.8630 C.3    50  LEU50       0.1561
      3  C        -11.4980   -0.8790   23.8570 C.2    50  LEU50       0.2260
      4  O        -11.2590   -0.3520   24.9410 O.2    50  LEU50      -0.2867
      5  CB       -13.7410   -0.8810   22.7540 C.3    50  LEU50       0.0270
      6  CG       -14.4760   -0.9220   24.0850 C.3    50  LEU50       0.0019
      7  CD1      -15.0270    0.5370   24.4940 C.3    50  LEU50       0.0001
      8  CD2      -15.5340   -1.9450   24.0610 C.3    50  LEU50       0.0001
      9  N         -9.7780    0.4490   27.1890 N.3    54  ILE54      -0.1245
     10  CA        -9.9160   -0.2540   28.4380 C.3    54  ILE54       0.1561
     11  C         -8.5820   -0.6420   29.0720 C.2    54  ILE54       0.2260
     12  O         -8.3130   -0.3180   30.2170 O.2    54  ILE54      -0.2867
     13  CB       -10.7640   -1.4900   28.2380 C.3    54  ILE54       0.0252
     14  CG1      -12.1750   -1.0450   27.9160 C.3    54  ILE54       0.0019
     15  CG2      -10.6110   -2.4170   29.3900 C.3    54  ILE54       0.0019
     16  CD1      -13.0090   -2.1880   27.5890 C.3    54  ILE54       0.0001
     17  N         -6.7190    2.4620   36.1230 N.3    59  LEU59      -0.1231
     18  CA        -7.7050    1.7400   36.8970 C.3    59  LEU59       0.1693
     19  C         -7.9150    0.2790   36.3640 C.2    59  LEU59       0.2591
     20  O         -7.4690   -0.6780   37.0050 O.2    59  LEU59      -0.2718
     21  CB        -9.0270    2.5840   36.8620 C.3    59  LEU59       0.0284
     22  CG       -10.2340    2.4880   37.8160 C.3    59  LEU59       0.0019
     23  CD1      -11.0490    3.7380   37.6960 C.3    59  LEU59       0.0001
     24  CD2      -11.1130    1.2400   37.5120 C.3    59  LEU59       0.0001
     25  N         -8.4680    0.0970   35.1550 N.am   60  LYS60      -0.1980
     26  CA        -8.9860   -1.1870   34.7220 C.3    60  LYS60       0.1596
     27  C         -7.8810   -2.1070   34.2050 C.2    60  LYS60       0.2287
     28  O         -8.1340   -3.2880   33.8930 O.2    60  LYS60      -0.2864
     29  CB       -10.0990   -1.0790   33.6890 C.3    60  LYS60       0.0298
     30  CG       -11.2320   -0.1490   34.0520 C.3    60  LYS60       0.0038
     31  CD       -11.8440    0.4430   32.7690 C.3    60  LYS60       0.0206
     32  CE       -13.0920    1.3700   33.0250 C.3    60  LYS60       0.1093
     33  NZ       -14.1100    1.4090   31.8870 N.3    60  LYS60      -0.1314
     34  N         -7.4650   -5.8270   35.8610 N.3    63  LEU63      -0.1245
     35  CA        -8.5780   -6.7520   36.1070 C.3    63  LEU63       0.1561
     36  C         -8.3350   -8.0380   35.2870 C.2    63  LEU63       0.2260
     37  O         -7.7990   -7.9940   34.1820 O.2    63  LEU63      -0.2867
     38  CB        -9.9240   -6.0650   35.8240 C.3    63  LEU63       0.0270
     39  CG       -10.2180   -4.8360   36.6830 C.3    63  LEU63       0.0019
     40  CD1      -11.2390   -3.9070   35.8920 C.3    63  LEU63       0.0001
     41  CD2      -10.6900   -5.2240   38.2070 C.3    63  LEU63       0.0001
     42  N        -11.1410   -9.8850   34.6620 N.3    65  VAL65      -0.1231
     43  CA       -12.4590  -10.0490   34.1710 C.3    65  VAL65       0.1692
     44  C        -12.9380   -8.6760   33.7690 C.2    65  VAL65       0.2592
     45  O        -12.7880   -7.6840   34.4970 O.2    65  VAL65      -0.2718
     46  CB       -13.4400  -10.6790   35.2510 C.3    65  VAL65       0.0266
     47  CG1      -14.7990  -10.9970   34.6480 C.3    65  VAL65       0.0020
     48  CG2      -12.8280  -11.9740   35.9290 C.3    65  VAL65       0.0020
     49  N        -13.4870   -8.6210   32.5610 N.am   66  ILE66      -0.1966
     50  CA       -13.9770   -7.3660   31.9530 C.3    66  ILE66       0.1727
     51  C        -15.3850   -7.6300   31.4810 C.2    66  ILE66       0.2616
     52  O        -15.6810   -8.5340   30.6710 O.2    66  ILE66      -0.2715
     53  CB       -13.0040   -6.7890   30.8130 C.3    66  ILE66       0.0290
     54  CG1      -11.6590   -6.3830   31.4180 C.3    66  ILE66       0.0022
     55  CG2      -13.6550   -5.6810   29.9090 C.3    66  ILE66       0.0023
     56  CD1      -11.7260   -5.3410   32.5170 C.3    66  ILE66       0.0001
     57  N        -16.2530   -6.8360   32.0690 N.am   67  ASN67      -0.1958
     58  CA       -17.6060   -6.6890   31.6020 C.3    67  ASN67       0.1819
     59  C        -17.6280   -5.7000   30.4800 C.2    67  ASN67       0.2621
     60  O        -17.0560   -4.5990   30.5590 O.2    67  ASN67      -0.2715
     61  CB       -18.5170   -6.1750   32.7100 C.3    67  ASN67       0.1195
     62  CG       -19.0350   -7.2840   33.5570 C.2    67  ASN67       0.2630
     63  OD1      -19.9050   -8.0840   33.1530 O.2    67  ASN67      -0.2716
     64  ND2      -18.4610   -7.3760   34.7210 N.am   67  ASN67      -0.0877
     65  N        -18.2440   -6.1590   29.4140 N.am   68  LEU68      -0.1963
     66  CA       -18.7280   -5.2620   28.3650 C.3    68  LEU68       0.1728
     67  C        -20.2180   -4.9870   28.5660 C.2    68  LEU68       0.2616
     68  O        -20.9210   -5.7270   29.2830 O.2    68  LEU68      -0.2715
     69  CB       -18.5080   -5.9130   27.0130 C.3    68  LEU68       0.0311
     70  CG       -17.0450   -6.2510   26.6640 C.3    68  LEU68       0.0022
     71  CD1      -17.0440   -7.0640   25.3600 C.3    68  LEU68       0.0001
     72  CD2      -16.2220   -4.9380   26.5980 C.3    68  LEU68       0.0001
     73  N        -20.6850   -3.9540   27.8780 N.am   69  ASP69      -0.1958
     74  CA       -22.1020   -3.7180   27.7510 C.3    69  ASP69       0.1825
     75  C        -22.9010   -5.0620   27.6070 C.2    69  ASP69       0.2464
     76  O        -22.6330   -5.8770   26.6990 O.2    69  ASP69      -0.2730
     77  CB       -22.2880   -2.7490   26.6100 C.3    69  ASP69       0.1450
     78  CG       -23.7330   -2.4470   26.3220 C.2    69  ASP69       0.3671
     79  OD1      -23.9890   -1.7150   25.3570 O.co2  69  ASP69      -0.2456
     80  OD2      -24.6090   -2.9450   27.0290 O.co2  69  ASP69      -0.2456
     81  N        -23.8280   -5.3180   28.5620 N.am   70  PRO70      -0.2727
     82  CA       -24.5030   -6.5940   28.5990 C.3    70  PRO70       0.1402
     83  C        -25.6520   -6.7140   27.6300 C.2    70  PRO70       0.2269
     84  O        -26.2480   -7.7760   27.5190 O.2    70  PRO70      -0.2865
     85  CB       -24.9010   -6.7440   30.0710 C.3    70  PRO70       0.0296
     86  CG       -25.1300   -5.3010   30.5500 C.3    70  PRO70       0.0237
     87  CD       -24.1880   -4.4300   29.6920 C.3    70  PRO70       0.0939
     88  N        -19.4290   -0.9390   18.3530 N.3   105  TYR105     -0.1241
     89  CA       -19.0950   -0.8680   19.7450 C.3   105  TYR105      0.1605
     90  C        -17.5840   -1.1660   20.0910 C.2   105  TYR105      0.2264
     91  O        -16.9670   -0.4600   20.9150 O.2   105  TYR105     -0.2867
     92  CB       -19.9690   -1.8330   20.4890 C.3   105  TYR105      0.0534
     93  CG       -19.6890   -1.9190   21.9520 C.ar  105  TYR105     -0.0201
     94  CD1      -19.7550   -0.7470   22.8010 C.ar  105  TYR105     -0.0009
     95  CD2      -19.3850   -3.1910   22.5220 C.ar  105  TYR105     -0.0009
     96  CE1      -19.4550   -0.8840   24.2170 C.ar  105  TYR105      0.0417
     97  CE2      -19.1640   -3.3460   23.9040 C.ar  105  TYR105      0.0417
     98  CZ       -19.1890   -2.1960   24.7490 C.ar  105  TYR105      0.1957
     99  OH       -18.9150   -2.4050   26.1240 O.3   105  TYR105     -0.2866
@<TRIPOS>BOND
     1    88    89    1
     2    89    90    1
     3    89    92    1
     4    90    91    2
     5    92    93    1
     6     1     2    1
     7    93    95   ar
     8    93    94   ar
     9    95    97   ar
    10     5     2    1
    11     5     6    1
    12    94    96   ar
    13     2     3    1
    14     3     4    2
    15    97    98   ar
    16     8     6    1
    17     6     7    1
    18    96    98   ar
    19    98    99    1
    20    79    78   ar
    21    71    70    1
    22    78    77    1
    23    78    80   ar
    24    72    70    1
    25    77    74    1
    26    70    69    1
    27    76    75    2
    28    69    66    1
    29     9    10    1
    30    84    83    2
    31    16    14    1
    32    75    74    1
    33    75    81   am
    34    83    82    1
    35    74    73    1
    36    73    67   am
    37    14    13    1
    38    13    10    1
    39    13    15    1
    40    66    67    1
    41    66    65    1
    42    10    11    1
    43    81    82    1
    44    81    87    1
    45    67    68    2
    46    82    85    1
    47    11    12    2
    48    65    59   am
    49    87    86    1
    50    55    53    1
    51    85    86    1
    52    59    60    2
    53    59    58    1
    54    52    51    2
    55    53    54    1
    56    53    50    1
    57    54    56    1
    58    51    50    1
    59    51    57   am
    60    58    57    1
    61    58    61    1
    62    33    32    1
    63    50    49    1
    64    49    44   am
    65    61    62    1
    66    31    32    1
    67    31    30    1
    68    63    62    2
    69    62    64   am
    70    29    30    1
    71    29    26    1
    72    44    43    1
    73    44    45    2
    74    28    27    2
    75    43    42    1
    76    43    46    1
    77    37    36    2
    78    27    26    1
    79    47    46    1
    80    26    25    1
    81    25    19   am
    82    46    48    1
    83    36    35    1
    84    38    35    1
    85    38    39    1
    86    34    35    1
    87    40    39    1
    88    17    18    1
    89    19    18    1
    90    19    20    2
    91    39    41    1
    92    21    18    1
    93    21    22    1
    94    24    22    1
    95    23    22    1
