@<TRIPOS>MOLECULE
tmp/3lc2B00.pdb
 133 124 0 0 0
SMALL
GASTEIGER

@<TRIPOS>ATOM
      1  N         28.6150  -23.8600   31.9170 N.3    13  ILE13      -0.1245
      2  CA        29.5600  -23.4450   32.9530 C.3    13  ILE13       0.1561
      3  C         30.9780  -23.8420   32.6140 C.2    13  ILE13       0.2260
      4  O         31.8610  -23.0030   32.6630 O.2    13  ILE13      -0.2867
      5  CB        29.1450  -23.9280   34.3480 C.3    13  ILE13       0.0252
      6  CG1       27.8080  -23.2900   34.7180 C.3    13  ILE13       0.0019
      7  CG2       30.2140  -23.5670   35.3780 C.3    13  ILE13       0.0019
      8  CD1       27.8110  -21.7420   34.5920 C.3    13  ILE13       0.0001
      9  N         30.6000  -27.2590   40.6180 N.3   120  SER120     -0.1202
     10  CA        29.9290  -26.0510   40.1810 C.3   120  SER120      0.2020
     11  C         28.4100  -26.0600   40.4140 C.2   120  SER120      0.2619
     12  O         27.6470  -25.7160   39.5100 O.2   120  SER120     -0.2717
     13  CB        30.2280  -25.8030   38.7110 C.3   120  SER120      0.2103
     14  OG        29.5200  -26.7230   37.8980 O.3   120  SER120     -0.2182
     15  N         27.9910  -26.4050   41.6360 N.am  121  ALA121     -0.1965
     16  CA        26.5780  -26.5880   42.0040 C.3   121  ALA121      0.1713
     17  C         26.5000  -26.8650   43.5000 C.2   121  ALA121      0.2458
     18  O         27.5020  -27.2830   44.0870 O.2   121  ALA121     -0.2730
     19  CB        25.9890  -27.7550   41.2620 C.3   121  ALA121      0.0333
     20  N         25.3210  -26.6470   44.1350 N.am  122  PRO122     -0.2727
     21  CA        25.2000  -27.1450   45.5190 C.3   122  PRO122      0.1402
     22  C         25.3850  -28.6650   45.5440 C.2   122  PRO122      0.2269
     23  O         24.9210  -29.3390   44.6370 O.2   122  PRO122     -0.2865
     24  CB        23.7640  -26.7740   45.9120 C.3   122  PRO122      0.0296
     25  CG        23.4190  -25.6210   45.0420 C.3   122  PRO122      0.0237
     26  CD        24.1100  -25.9090   43.7210 C.3   122  PRO122      0.0939
     27  N         25.5340  -22.0770   44.1520 N.3   150  SER150     -0.1202
     28  CA        24.8070  -21.9410   42.9090 C.3   150  SER150      0.2020
     29  C         24.9240  -20.5090   42.4660 C.2   150  SER150      0.2619
     30  O         25.3600  -19.6540   43.2380 O.2   150  SER150     -0.2717
     31  CB        23.3350  -22.3120   43.0920 C.3   150  SER150      0.2103
     32  OG        22.6070  -21.2540   43.7040 O.3   150  SER150     -0.2182
     33  N         24.5100  -20.2420   41.2230 N.am  151  CYS151     -0.1955
     34  CA        24.4620  -18.8830   40.6940 C.3   151  CYS151      0.1843
     35  C         23.6150  -17.9630   41.5690 C.2   151  CYS151      0.2626
     36  O         24.0780  -16.8960   41.9460 O.2   151  CYS151     -0.2714
     37  CB        23.9880  -18.8690   39.2500 C.3   151  CYS151      0.0997
     38  SG        22.4610  -19.7080   39.0040 S.3   151  CYS151     -0.0797
     39  N         22.4010  -18.3770   41.9220 N.am  152  THR152     -0.1950
     40  CA        21.5360  -17.5140   42.7250 C.3   152  THR152      0.1897
     41  C         22.1030  -17.3190   44.1280 C.2   152  THR152      0.2313
     42  O         22.0100  -16.2280   44.6920 O.2   152  THR152     -0.2863
     43  CB        20.1030  -18.0460   42.7970 C.3   152  THR152      0.1794
     44  OG1       19.5950  -18.2430   41.4680 O.3   152  THR152     -0.2208
     45  CG2       19.2310  -17.0640   43.5100 C.3   152  THR152      0.0378
     46  N         13.7170  -15.1020   42.5100 N.3   176  THR176     -0.1218
     47  CA        14.6350  -14.7590   41.4500 C.3   176  THR176      0.1862
     48  C         13.8600  -14.8470   40.1470 C.2   176  THR176      0.2287
     49  O         13.2660  -15.9100   39.8100 O.2   176  THR176     -0.2866
     50  CB        15.8890  -15.6480   41.4290 C.3   176  THR176      0.1770
     51  OG1       16.5910  -15.4440   40.1960 O.3   176  THR176     -0.2211
     52  CG2       15.5220  -17.1310   41.5910 C.3   176  THR176      0.0375
     53  N         14.5040  -15.2440   36.6840 N.3   178  HIS178     -0.1241
     54  CA        15.6990  -16.0070   36.3580 C.3   178  HIS178      0.1621
     55  C         15.6180  -16.4320   34.8990 C.2   178  HIS178      0.2264
     56  O         14.5530  -16.9130   34.4580 O.2   178  HIS178     -0.2867
     57  CB        15.7300  -17.2450   37.2790 C.3   178  HIS178      0.0745
     58  CG        16.9880  -18.0530   37.2070 C.ar  178  HIS178      0.0817
     59  ND1       17.4200  -18.6710   36.0510 N.ar  178  HIS178     -0.2268
     60  CD2       17.8840  -18.3890   38.1640 C.ar  178  HIS178      0.1154
     61  CE1       18.5380  -19.3300   36.2960 C.ar  178  HIS178      0.1986
     62  NE2       18.8460  -19.1710   37.5690 N.ar  178  HIS178     -0.2212
     63  N         17.2910  -22.0900   31.6180 N.3   181  THR181     -0.1218
     64  CA        18.5090  -22.8740   31.5190 C.3   181  THR181      0.1862
     65  C         18.2770  -24.0870   30.6390 C.2   181  THR181      0.2287
     66  O         17.1370  -24.3740   30.2610 O.2   181  THR181     -0.2866
     67  CB        18.9870  -23.3420   32.8950 C.3   181  THR181      0.1770
     68  OG1       17.9760  -24.1650   33.4790 O.3   181  THR181     -0.2211
     69  CG2       19.2560  -22.1820   33.7940 C.3   181  THR181      0.0375
     70  N          9.1790  -27.2650   34.5950 N.3   198  ARG198     -0.1245
     71  CA        10.3370  -27.3360   33.7010 C.3   198  ARG198      0.1563
     72  C         10.0170  -28.0620   32.3720 C.2   198  ARG198      0.2260
     73  O         10.7420  -27.8900   31.3700 O.2   198  ARG198     -0.2867
     74  CB        11.5300  -27.9780   34.4050 C.3   198  ARG198      0.0307
     75  CG        12.3210  -27.0010   35.2530 C.3   198  ARG198      0.0489
     76  CD        13.4440  -27.6930   36.0430 C.3   198  ARG198      0.2205
     77  NE        13.8760  -26.8690   37.1770 N.pl3 198  ARG198     -0.0865
     78  CZ        15.0620  -26.2760   37.3330 C.cat 198  ARG198      0.5346
     79  NH1       16.0470  -26.3910   36.4570 N.pl3 198  ARG198      0.1354
     80  NH2       15.2700  -25.5690   38.4110 N.pl3 198  ARG198      0.1354
     81  N         11.7430  -23.7820   41.5320 N.3   210  SER210     -0.1202
     82  CA        12.5090  -23.7750   42.7750 C.3   210  SER210      0.2020
     83  C         13.8710  -23.1520   42.5620 C.2   210  SER210      0.2619
     84  O         14.2780  -22.9250   41.4180 O.2   210  SER210     -0.2717
     85  CB        12.6970  -25.1910   43.2860 C.3   210  SER210      0.2103
     86  OG        13.6050  -25.8560   42.4270 O.3   210  SER210     -0.2182
     87  N         14.5710  -22.8760   43.6690 N.am  211  THR211     -0.1938
     88  CA        15.9430  -22.3460   43.6170 C.3   211  THR211      0.2028
     89  C         16.9240  -23.0330   44.5850 C.2   211  THR211      0.2642
     90  O         16.5660  -23.3980   45.7230 O.2   211  THR211     -0.2714
     91  CB        15.9710  -20.8230   43.7860 C.3   211  THR211      0.1808
     92  OG1       17.3030  -20.3420   43.5650 O.3   211  THR211     -0.2208
     93  CG2       15.5020  -20.4330   45.1730 C.3   211  THR211      0.0379
     94  N         18.1560  -23.2260   44.0960 N.am  212  GLY212     -0.1954
     95  CA        19.2610  -23.7640   44.9100 C.3   212  GLY212      0.1869
     96  C         19.5490  -22.8550   46.1080 C.2   212  GLY212      0.2309
     97  O         19.7840  -23.3250   47.2240 O.2   212  GLY212     -0.2863
     98  N         11.7730  -19.3180   42.2340 N.3   232  ALA232     -0.1245
     99  CA        12.1950  -18.7520   40.9810 C.3   232  ALA232      0.1562
    100  C         10.9950  -18.4800   40.1160 C.2   232  ALA232      0.2260
    101  O          9.9570  -19.1130   40.3130 O.2   232  ALA232     -0.2867
    102  CB        13.1290  -19.7170   40.2820 C.3   232  ALA232      0.0290
    103  N         11.2440  -18.7010   36.1180 N.3   234  ARG234     -0.1245
    104  CA        11.9480  -18.8270   34.8550 C.3   234  ARG234      0.1563
    105  C         11.1680  -18.0650   33.7700 C.2   234  ARG234      0.2260
    106  O          9.9530  -18.2510   33.6040 O.2   234  ARG234     -0.2867
    107  CB        12.1500  -20.2930   34.4860 C.3   234  ARG234      0.0307
    108  CG        12.9500  -21.0930   35.5090 C.3   234  ARG234      0.0489
    109  CD        14.3240  -20.4840   35.7220 C.3   234  ARG234      0.2205
    110  NE        15.2440  -21.2460   36.5790 N.pl3 234  ARG234     -0.0865
    111  CZ        16.0680  -22.2080   36.1600 C.cat 234  ARG234      0.5346
    112  NH1       16.0780  -22.5760   34.8810 N.pl3 234  ARG234      0.1354
    113  NH2       16.8770  -22.8210   37.0200 N.pl3 234  ARG234      0.1354
    114  N         23.6170  -15.2650   35.6650 N.3   316  ASN316     -0.1240
    115  CA        23.6340  -16.6130   36.1860 C.3   316  ASN316      0.1653
    116  C         24.6490  -17.5210   35.4450 C.2   316  ASN316      0.2266
    117  O         25.0110  -18.6080   35.9430 O.2   316  ASN316     -0.2867
    118  CB        22.2320  -17.1910   36.1210 C.3   316  ASN316      0.1155
    119  CG        21.6490  -17.1390   34.7360 C.2   316  ASN316      0.2627
    120  OD1       21.6900  -18.1370   34.0220 O.2   316  ASN316     -0.2716
    121  ND2       21.1010  -15.9850   34.3410 N.am  316  ASN316     -0.0877
    122  N         28.3920  -16.2520   38.0040 N.3   320  TYR320     -0.1241
    123  CA        28.6210  -17.4800   38.7410 C.3   320  TYR320      0.1605
    124  C         29.9960  -18.0620   38.3570 C.2   320  TYR320      0.2264
    125  O         30.7700  -18.4510   39.2390 O.2   320  TYR320     -0.2867
    126  CB        27.4770  -18.4800   38.4670 C.3   320  TYR320      0.0534
    127  CG        27.6850  -19.7860   39.1780 C.ar  320  TYR320     -0.0201
    128  CD1       27.8530  -19.8020   40.5560 C.ar  320  TYR320     -0.0009
    129  CD2       27.7640  -20.9910   38.4920 C.ar  320  TYR320     -0.0009
    130  CE1       28.0770  -20.9590   41.2400 C.ar  320  TYR320      0.0417
    131  CE2       28.0010  -22.1810   39.1810 C.ar  320  TYR320      0.0417
    132  CZ        28.1710  -22.1390   40.5660 C.ar  320  TYR320      0.1957
    133  OH        28.4000  -23.2580   41.3390 O.3   320  TYR320     -0.2866
@<TRIPOS>BOND
     1    66    65    2
     2    65    64    1
     3    73    72    2
     4    64    63    1
     5    64    67    1
     6     1     2    1
     7    72    71    1
     8     3     4    2
     9     3     2    1
    10    67    68    1
    11    67    69    1
    12     2     5    1
    13   106   105    2
    14    71    74    1
    15    71    70    1
    16   105   104    1
    17   120   119    2
    18   121   119   am
    19     5     6    1
    20     5     7    1
    21    74    75    1
    22    56    55    2
    23   107   104    1
    24   107   108    1
    25     8     6    1
    26   119   118    1
    27   104   103    1
    28   112   111    1
    29    55    54    1
    30    75    76    1
    31   116   117    2
    32   116   115    1
    33   108   109    1
    34   114   115    1
    35   109   110    1
    36    76    77    1
    37    59    61   ar
    38    59    58   ar
    39   118   115    1
    40   111   110    2
    41   111   113    1
    42    61    62   ar
    43    54    53    1
    44    54    57    1
    45    79    78    1
    46    77    78    2
    47    58    57    1
    48    58    60   ar
    49    78    80    1
    50    62    60   ar
    51    14    13    1
    52   122   123    1
    53   124   123    1
    54   124   125    2
    55   126   123    1
    56   126   127    1
    57   129   127   ar
    58   129   131   ar
    59    13    10    1
    60    38    37    1
    61   127   128   ar
    62   131   132   ar
    63    37    34    1
    64    12    11    2
    65    49    48    2
    66   100   101    2
    67   100    99    1
    68    48    47    1
    69    10    11    1
    70    10     9    1
    71    51    50    1
    72   102    99    1
    73    11    15   am
    74   128   130   ar
    75   132   130   ar
    76   132   133    1
    77    34    33    1
    78    34    35    1
    79    99    98    1
    80    33    29   am
    81    19    16    1
    82    84    83    2
    83    50    47    1
    84    50    52    1
    85    47    46    1
    86    44    43    1
    87    81    82    1
    88    35    39   am
    89    35    36    2
    90    15    16    1
    91    39    40    1
    92    16    17    1
    93    86    85    1
    94    29    28    1
    95    29    30    2
    96    83    82    1
    97    83    87   am
    98    40    43    1
    99    40    41    1
   100    82    85    1
   101    43    45    1
   102    28    31    1
   103    28    27    1
   104    31    32    1
   105    17    18    2
   106    17    20   am
   107    92    91    1
   108    88    87    1
   109    88    91    1
   110    88    89    1
   111    26    20    1
   112    26    25    1
   113    91    93    1
   114    94    89   am
   115    94    95    1
   116    41    42    2
   117    20    21    1
   118    89    90    2
   119    23    22    2
   120    95    96    1
   121    25    24    1
   122    21    22    1
   123    21    24    1
   124    96    97    2
