@<TRIPOS>MOLECULE
tmp/3lc3C01.pdb
 117 117 0 0 0
SMALL
GASTEIGER

@<TRIPOS>ATOM
      1  N         16.5940   75.9580   27.8020 N.3    84  ASN84      -0.1225
      2  CA        15.5480   76.0540   28.8290 C.3    84  ASN84       0.1785
      3  C         14.4050   75.0340   28.7750 C.2    84  ASN84       0.2597
      4  O         13.2790   75.3670   29.1570 O.2    84  ASN84      -0.2718
      5  CB        14.9880   77.4780   28.7800 C.3    84  ASN84       0.1169
      6  CG        16.0760   78.5190   28.9500 C.2    84  ASN84       0.2627
      7  OD1       17.1370   78.2140   29.4920 O.2    84  ASN84      -0.2716
      8  ND2       15.8270   79.7470   28.4900 N.am   84  ASN84      -0.0877
      9  N         14.6970   73.8070   28.3090 N.am   85  LYS85      -0.1966
     10  CA        13.6930   72.7190   28.1050 C.3    85  LYS85       0.1728
     11  C         13.5580   71.7250   29.2490 C.2    85  LYS85       0.2616
     12  O         12.4780   71.1400   29.4420 O.2    85  LYS85      -0.2715
     13  CB        14.0430   71.8370   26.8810 C.3    85  LYS85       0.0311
     14  CG        13.3650   72.2740   25.6030 C.3    85  LYS85       0.0038
     15  CD        13.8450   73.6530   25.2670 C.3    85  LYS85       0.0206
     16  CE        13.5880   74.0730   23.8170 C.3    85  LYS85       0.1093
     17  NZ        14.1940   75.4520   23.5870 N.3    85  LYS85      -0.1314
     18  N         14.6580   71.4760   29.9540 N.am   86  TYR86      -0.1974
     19  CA        14.7490   70.3730   30.9340 C.3    86  TYR86       0.1639
     20  C         14.5570   68.9660   30.3370 C.2    86  TYR86       0.2290
     21  O         14.4100   67.9810   31.0780 O.2    86  TYR86      -0.2864
     22  CB        13.8420   70.6230   32.1380 C.3    86  TYR86       0.0560
     23  CG        14.3330   71.8250   32.8940 C.ar   86  TYR86      -0.0198
     24  CD1       14.2830   73.0940   32.3050 C.ar   86  TYR86      -0.0009
     25  CD2       14.9260   71.7020   34.1520 C.ar   86  TYR86      -0.0009
     26  CE1       14.7630   74.2120   32.9500 C.ar   86  TYR86       0.0417
     27  CE2       15.4230   72.8280   34.8130 C.ar   86  TYR86       0.0417
     28  CZ        15.3240   74.0790   34.1990 C.ar   86  TYR86       0.1957
     29  OH        15.7900   75.2260   34.7900 O.3    86  TYR86      -0.2866
     30  N          4.8180   75.5950   48.7560 N.3   135  HIS135     -0.1226
     31  CA         5.2630   76.3190   47.5630 C.3   135  HIS135      0.1752
     32  C          5.9080   77.6630   47.9470 C.2   135  HIS135      0.2595
     33  O          5.3130   78.4610   48.6820 O.2   135  HIS135     -0.2718
     34  CB         4.0900   76.5510   46.6020 C.3   135  HIS135      0.0759
     35  CG         4.3860   77.5460   45.5260 C.ar  135  HIS135      0.0818
     36  ND1        3.8160   78.8000   45.4940 N.ar  135  HIS135     -0.2268
     37  CD2        5.2260   77.4880   44.4670 C.ar  135  HIS135      0.1154
     38  CE1        4.2740   79.4620   44.4450 C.ar  135  HIS135      0.1986
     39  NE2        5.1310   78.6860   43.8050 N.ar  135  HIS135     -0.2212
     40  N          7.1220   77.8970   47.4480 N.am  136  LYS136     -0.1980
     41  CA         7.9280   79.0690   47.8270 C.3   136  LYS136      0.1596
     42  C          8.1220   79.1290   49.3460 C.2   136  LYS136      0.2287
     43  O          8.1680   80.2070   49.9400 O.2   136  LYS136     -0.2864
     44  CB         7.2820   80.3570   47.3030 C.3   136  LYS136      0.0298
     45  CG         8.2180   81.5570   47.2110 C.3   136  LYS136      0.0038
     46  CD         7.4400   82.8650   47.2460 C.3   136  LYS136      0.0206
     47  CE         6.7250   83.1270   45.9180 C.3   136  LYS136      0.1093
     48  NZ         5.7220   84.2250   46.0610 N.3   136  LYS136     -0.1314
     49  N          4.0940   74.8960   29.0530 N.3   162  PHE162     -0.1227
     50  CA         5.4230   74.3850   28.7510 C.3   162  PHE162      0.1736
     51  C          5.3950   73.0360   28.0540 C.2   162  PHE162      0.2596
     52  O          4.4440   72.2610   28.1760 O.2   162  PHE162     -0.2718
     53  CB         6.2550   74.2830   30.0240 C.3   162  PHE162      0.0547
     54  CG         6.4880   75.6010   30.6960 C.ar  162  PHE162     -0.0202
     55  CD1        7.2850   76.5550   30.1020 C.ar  162  PHE162     -0.0042
     56  CD2        5.9180   75.8830   31.9220 C.ar  162  PHE162     -0.0042
     57  CE1        7.5170   77.7550   30.7150 C.ar  162  PHE162     -0.0003
     58  CE2        6.1500   77.0990   32.5410 C.ar  162  PHE162     -0.0003
     59  CZ         6.9570   78.0320   31.9350 C.ar  162  PHE162     -0.0000
     60  N          6.4580   72.7700   27.3090 N.am  163  THR163     -0.1953
     61  CA         6.6540   71.5010   26.6290 C.3   163  THR163      0.1897
     62  C          6.8850   70.3590   27.6060 C.2   163  THR163      0.2313
     63  O          7.7290   70.4780   28.4840 O.2   163  THR163     -0.2863
     64  CB         7.9080   71.6290   25.7220 C.3   163  THR163      0.1794
     65  OG1        7.8800   72.8940   25.0190 O.3   163  THR163     -0.2208
     66  CG2        7.9150   70.5730   24.6390 C.3   163  THR163      0.0378
     67  N         10.5190   72.2120   44.9410 N.3   182  GLN182     -0.1245
     68  CA        11.8960   72.6560   44.7500 C.3   182  GLN182      0.1566
     69  C         12.7420   72.1600   45.9190 C.2   182  GLN182      0.2260
     70  O         12.3080   72.1740   47.0630 O.2   182  GLN182     -0.2867
     71  CB        11.9790   74.1810   44.6170 C.3   182  GLN182      0.0367
     72  CG        13.3850   74.6680   44.2180 C.3   182  GLN182      0.0905
     73  CD        13.4640   76.1660   43.9100 C.2   182  GLN182      0.2608
     74  OE1       14.4270   76.6270   43.2850 O.2   182  GLN182     -0.2717
     75  NE2       12.4830   76.9140   44.3480 N.am  182  GLN182     -0.0878
     76  N         10.9030   68.8770   37.4390 N.3   205  TRP205     -0.1227
     77  CA        10.4240   70.2630   37.4720 C.3   205  TRP205      0.1737
     78  C          8.9190   70.3370   37.6410 C.2   205  TRP205      0.2596
     79  O          8.2070   69.3220   37.8030 O.2   205  TRP205     -0.2718
     80  CB        10.8650   71.0300   36.2060 C.3   205  TRP205      0.0564
     81  CG        10.3560   70.4980   34.9230 C.ar  205  TRP205      0.0003
     82  CD1       10.8510   69.4510   34.2210 C.ar  205  TRP205      0.0946
     83  CD2        9.2580   71.0140   34.1490 C.ar  205  TRP205      0.0152
     84  NE1       10.1290   69.2580   33.0670 N.ar  205  TRP205     -0.2442
     85  CE2        9.1390   70.2040   33.0020 C.ar  205  TRP205      0.0810
     86  CE3        8.3420   72.0540   34.3330 C.ar  205  TRP205      0.0012
     87  CZ2        8.1580   70.4130   32.0310 C.ar  205  TRP205      0.0191
     88  CZ3        7.3520   72.2610   33.3650 C.ar  205  TRP205      0.0001
     89  CH2        7.2740   71.4420   32.2340 C.ar  205  TRP205      0.0015
     90  N          8.4480   71.5750   37.6540 N.am  206  GLY206     -0.1942
     91  CA         7.0380   71.8310   37.6720 C.3   206  GLY206      0.2014
     92  C          6.8460   73.3120   37.8960 C.2   206  GLY206      0.2639
     93  O          7.8250   74.0790   38.0030 O.2   206  GLY206     -0.2714
     94  N          5.5850   73.7020   37.9430 N.am  207  GLU207     -0.1963
     95  CA         5.2100   75.0620   38.2680 C.3   207  GLU207      0.1733
     96  C          4.7570   75.0270   39.7300 C.2   207  GLU207      0.2616
     97  O          5.2740   74.2230   40.4950 O.2   207  GLU207     -0.2715
     98  CB         4.1440   75.5680   37.2930 C.3   207  GLU207      0.0429
     99  CG         4.5770   75.4680   35.8360 C.3   207  GLU207      0.1163
    100  CD         3.5110   75.9580   34.8770 C.2   207  GLU207      0.3649
    101  OE1        2.9230   75.1180   34.1570 O.co2 207  GLU207     -0.2457
    102  OE2        3.2510   77.1860   34.8540 O.co2 207  GLU207     -0.2457
    103  N          3.8450   75.8940   40.1500 N.am  208  GLU208     -0.1963
    104  CA         3.6670   76.0860   41.5850 C.3   208  GLU208      0.1733
    105  C          3.2750   74.7660   42.2450 C.2   208  GLU208      0.2616
    106  O          2.3500   74.0670   41.7930 O.2   208  GLU208     -0.2715
    107  CB         2.6890   77.2120   41.9180 C.3   208  GLU208      0.0429
    108  CG         1.4720   77.2510   41.0410 C.3   208  GLU208      0.1163
    109  CD         1.6590   78.0640   39.7670 C.2   208  GLU208      0.3649
    110  OE1        1.4660   79.3070   39.8240 O.co2 208  GLU208     -0.2457
    111  OE2        1.9470   77.4510   38.7080 O.co2 208  GLU208     -0.2457
    112  N          4.0320   74.4060   43.2830 N.am  209  CYS209     -0.1968
    113  CA         3.9210   73.0900   43.8980 C.3   209  CYS209      0.1712
    114  C          2.5620   72.8980   44.5330 C.2   209  CYS209      0.2296
    115  O          2.0650   73.8000   45.2290 O.2   209  CYS209     -0.2864
    116  CB         5.0050   72.8940   44.9550 C.3   209  CYS209      0.0983
    117  SG         6.6610   73.3700   44.4120 S.3   209  CYS209     -0.0798
@<TRIPOS>BOND
     1    17    16    1
     2    16    15    1
     3    66    64    1
     4    65    64    1
     5    15    14    1
     6    14    13    1
     7    64    61    1
     8    61    60    1
     9    61    62    1
    10    13    10    1
    11    60    51   am
    12    62    63    2
    13     1     2    1
    14    51    52    2
    15    51    50    1
    16    10     9    1
    17    10    11    1
    18     9     3   am
    19     8     6   am
    20    50    49    1
    21    50    53    1
    22     3     2    1
    23     3     4    2
    24     5     2    1
    25     5     6    1
    26     6     7    2
    27    11    12    2
    28    11    18   am
    29    18    19    1
    30    53    54    1
    31    55    54   ar
    32    55    57   ar
    33    20    19    1
    34    20    21    2
    35    54    56   ar
    36    57    59   ar
    37    19    22    1
    38    56    58   ar
    39    59    58   ar
    40    87    89   ar
    41    87    85   ar
    42    22    23    1
    43    89    88   ar
    44    24    23   ar
    45    24    26   ar
    46    23    25   ar
    47    26    28   ar
    48    85    84   ar
    49    85    83   ar
    50    84    82   ar
    51    88    86   ar
    52    83    86   ar
    53    83    81   ar
    54    25    27   ar
    55   101   100   ar
    56    28    29    1
    57    28    27   ar
    58    82    81   ar
    59   102   100   ar
    60   100    99    1
    61    81    80    1
    62    99    98    1
    63    80    77    1
    64    98    95    1
    65    76    77    1
    66    77    78    1
    67    78    90   am
    68    78    79    2
    69    90    91    1
    70    91    92    1
    71    92    94   am
    72    92    93    2
    73    94    95    1
    74    95    96    1
    75   111   109   ar
    76    96   103   am
    77    96    97    2
    78   109   110   ar
    79   109   108    1
    80   103   104    1
    81   108   107    1
    82   104   107    1
    83   104   105    1
    84   106   105    2
    85   105   112   am
    86   112   113    1
    87    74    73    2
    88    39    38   ar
    89    39    37   ar
    90   113   114    1
    91   113   116    1
    92    73    72    1
    93    73    75   am
    94    72    71    1
    95   117   116    1
    96    38    36   ar
    97    37    35   ar
    98   114   115    2
    99    71    68    1
   100    68    67    1
   101    68    69    1
   102    36    35   ar
   103    35    34    1
   104    47    48    1
   105    47    46    1
   106    69    70    2
   107    34    31    1
   108    45    46    1
   109    45    44    1
   110    44    41    1
   111    40    41    1
   112    40    32   am
   113    31    32    1
   114    31    30    1
   115    41    42    1
   116    32    33    2
   117    42    43    2
