@<TRIPOS>MOLECULE
tmp/3lc3C00.pdb
 146 146 0 0 0
SMALL
GASTEIGER

@<TRIPOS>ATOM
      1  N         19.9600   69.4270   35.7940 N.3    41  HIS41      -0.1241
      2  CA        19.8580   70.8400   36.1640 C.3    41  HIS41       0.1621
      3  C         20.3750   71.1060   37.5740 C.2    41  HIS41       0.2264
      4  O         20.6610   72.2470   37.9020 O.2    41  HIS41      -0.2867
      5  CB        18.4560   71.3720   36.0180 C.3    41  HIS41       0.0745
      6  CG        17.5460   71.0790   37.1680 C.ar   41  HIS41       0.0817
      7  ND1       16.5590   70.1190   37.0850 N.ar   41  HIS41      -0.2268
      8  CD2       17.3620   71.7120   38.3540 C.ar   41  HIS41       0.1154
      9  CE1       15.8500   70.1300   38.2020 C.ar   41  HIS41       0.1986
     10  NE2       16.3290   71.0700   39.0000 N.ar   41  HIS41      -0.2212
     11  N         14.6580   71.4760   29.9540 N.3    86  TYR86      -0.1241
     12  CA        14.7490   70.3730   30.9340 C.3    86  TYR86       0.1605
     13  C         14.5570   68.9660   30.3370 C.2    86  TYR86       0.2264
     14  O         14.4100   67.9810   31.0780 O.2    86  TYR86      -0.2867
     15  CB        13.8420   70.6230   32.1380 C.3    86  TYR86       0.0534
     16  CG        14.3330   71.8250   32.8940 C.ar   86  TYR86      -0.0201
     17  CD1       14.2830   73.0940   32.3050 C.ar   86  TYR86      -0.0009
     18  CD2       14.9260   71.7020   34.1520 C.ar   86  TYR86      -0.0009
     19  CE1       14.7630   74.2120   32.9500 C.ar   86  TYR86       0.0417
     20  CE2       15.4230   72.8280   34.8130 C.ar   86  TYR86       0.0417
     21  CZ        15.3240   74.0790   34.1990 C.ar   86  TYR86       0.1957
     22  OH        15.7900   75.2260   34.7900 O.3    86  TYR86      -0.2866
     23  N          2.5470   67.0220   46.6080 N.3   179  ASP179     -0.1225
     24  CA         3.4110   67.1440   45.4340 C.3   179  ASP179      0.1805
     25  C          4.8720   67.1330   45.8270 C.2   179  ASP179      0.2598
     26  O          5.2140   67.4180   46.9700 O.2   179  ASP179     -0.2718
     27  CB         3.0950   68.4880   44.7960 C.3   179  ASP179      0.1424
     28  CG         3.5150   68.6020   43.3830 C.2   179  ASP179      0.3668
     29  OD1        4.0940   67.6630   42.7890 O.co2 179  ASP179     -0.2456
     30  OD2        3.2810   69.6650   42.7630 O.co2 179  ASP179     -0.2456
     31  N          5.7310   66.8550   44.8540 N.am  180  SER180     -0.1938
     32  CA         7.1470   67.1570   45.0010 C.3   180  SER180      0.2055
     33  C          7.3320   68.6720   44.8970 C.2   180  SER180      0.2643
     34  O          6.4360   69.3890   44.4320 O.2   180  SER180     -0.2714
     35  CB         7.9390   66.4700   43.9110 C.3   180  SER180      0.2130
     36  OG         7.4830   66.9090   42.6590 O.3   180  SER180     -0.2179
     37  N          8.4830   69.1720   45.3320 N.am  181  CYS181     -0.1953
     38  CA         8.7440   70.6060   45.2290 C.3   181  CYS181      0.1843
     39  C         10.2180   70.9180   45.0290 C.2   181  CYS181      0.2625
     40  O         11.0640   70.0130   44.9380 O.2   181  CYS181     -0.2714
     41  CB         8.1630   71.3400   46.4470 C.3   181  CYS181      0.0997
     42  SG         7.7380   73.0930   46.1520 S.3   181  CYS181     -0.0797
     43  N         10.5190   72.2120   44.9410 N.am  182  GLN182     -0.1977
     44  CA        11.8960   72.6560   44.7500 C.3   182  GLN182      0.1601
     45  C         12.7420   72.1600   45.9190 C.2   182  GLN182      0.2287
     46  O         12.3080   72.1740   47.0630 O.2   182  GLN182     -0.2864
     47  CB        11.9790   74.1810   44.6170 C.3   182  GLN182      0.0394
     48  CG        13.3850   74.6680   44.2180 C.3   182  GLN182      0.0908
     49  CD        13.4640   76.1660   43.9100 C.2   182  GLN182      0.2608
     50  OE1       14.4270   76.6270   43.2850 O.2   182  GLN182     -0.2717
     51  NE2       12.4830   76.9140   44.3480 N.am  182  GLN182     -0.0878
     52  N         14.3710   68.0930   43.6500 N.3   185  SER185     -0.1217
     53  CA        14.8340   67.7650   42.3160 C.3   185  SER185      0.1889
     54  C         16.0190   66.8400   42.3830 C.2   185  SER185      0.2288
     55  O         16.8710   66.9880   43.2460 O.2   185  SER185     -0.2866
     56  CB        15.2350   69.0340   41.5840 C.3   185  SER185      0.2089
     57  OG        14.0760   69.7330   41.1840 O.3   185  SER185     -0.2183
     58  N         12.8550   63.0990   39.9020 N.3   203  ILE203     -0.1231
     59  CA        12.1360   64.3530   40.1620 C.3   203  ILE203      0.1692
     60  C         12.7930   65.5080   39.3700 C.2   203  ILE203      0.2593
     61  O         13.9680   65.7950   39.5560 O.2   203  ILE203     -0.2718
     62  CB        12.1470   64.6500   41.6320 C.3   203  ILE203      0.0266
     63  CG1       11.4330   63.5230   42.4070 C.3   203  ILE203      0.0019
     64  CG2       11.4310   65.9960   41.9730 C.3   203  ILE203      0.0020
     65  CD1       11.8060   63.5000   43.8370 C.3   203  ILE203      0.0001
     66  N         12.0230   66.1880   38.5180 N.am  204  SER204     -0.1938
     67  CA        12.6440   67.1630   37.6280 C.3   204  SER204      0.2055
     68  C         12.1450   68.5970   37.8260 C.2   204  SER204      0.2643
     69  O         12.8980   69.4550   38.2660 O.2   204  SER204     -0.2714
     70  CB        12.4930   66.7280   36.1710 C.3   204  SER204      0.2130
     71  OG        13.0970   67.6470   35.2810 O.3   204  SER204     -0.2179
     72  N         10.9030   68.8770   37.4390 N.am  205  TRP205     -0.1959
     73  CA        10.4240   70.2630   37.4720 C.3   205  TRP205      0.1771
     74  C          8.9190   70.3370   37.6410 C.2   205  TRP205      0.2620
     75  O          8.2070   69.3220   37.8030 O.2   205  TRP205     -0.2715
     76  CB        10.8650   71.0300   36.2060 C.3   205  TRP205      0.0590
     77  CG        10.3560   70.4980   34.9230 C.ar  205  TRP205      0.0006
     78  CD1       10.8510   69.4510   34.2210 C.ar  205  TRP205      0.0946
     79  CD2        9.2580   71.0140   34.1490 C.ar  205  TRP205      0.0152
     80  NE1       10.1290   69.2580   33.0670 N.ar  205  TRP205     -0.2442
     81  CE2        9.1390   70.2040   33.0020 C.ar  205  TRP205      0.0810
     82  CE3        8.3420   72.0540   34.3330 C.ar  205  TRP205      0.0012
     83  CZ2        8.1580   70.4130   32.0310 C.ar  205  TRP205      0.0191
     84  CZ3        7.3520   72.2610   33.3650 C.ar  205  TRP205      0.0001
     85  CH2        7.2740   71.4420   32.2340 C.ar  205  TRP205      0.0015
     86  N          8.4480   71.5750   37.6540 N.am  206  GLY206     -0.1940
     87  CA         7.0380   71.8310   37.6720 C.3   206  GLY206      0.2014
     88  C          6.8460   73.3120   37.8960 C.2   206  GLY206      0.2639
     89  O          7.8250   74.0790   38.0030 O.2   206  GLY206     -0.2714
     90  N          5.5850   73.7020   37.9430 N.am  207  GLU207     -0.1963
     91  CA         5.2100   75.0620   38.2680 C.3   207  GLU207      0.1733
     92  C          4.7570   75.0270   39.7300 C.2   207  GLU207      0.2616
     93  O          5.2740   74.2230   40.4950 O.2   207  GLU207     -0.2715
     94  CB         4.1440   75.5680   37.2930 C.3   207  GLU207      0.0429
     95  CG         4.5770   75.4680   35.8360 C.3   207  GLU207      0.1163
     96  CD         3.5110   75.9580   34.8770 C.2   207  GLU207      0.3649
     97  OE1        2.9230   75.1180   34.1570 O.co2 207  GLU207     -0.2457
     98  OE2        3.2510   77.1860   34.8540 O.co2 207  GLU207     -0.2457
     99  N          3.8450   75.8940   40.1500 N.am  208  GLU208     -0.1963
    100  CA         3.6670   76.0860   41.5850 C.3   208  GLU208      0.1733
    101  C          3.2750   74.7660   42.2450 C.2   208  GLU208      0.2616
    102  O          2.3500   74.0670   41.7930 O.2   208  GLU208     -0.2715
    103  CB         2.6890   77.2120   41.9180 C.3   208  GLU208      0.0429
    104  CG         1.4720   77.2510   41.0410 C.3   208  GLU208      0.1163
    105  CD         1.6590   78.0640   39.7670 C.2   208  GLU208      0.3649
    106  OE1        1.4660   79.3070   39.8240 O.co2 208  GLU208     -0.2457
    107  OE2        1.9470   77.4510   38.7080 O.co2 208  GLU208     -0.2457
    108  N          4.0320   74.4060   43.2830 N.am  209  CYS209     -0.1968
    109  CA         3.9210   73.0900   43.8980 C.3   209  CYS209      0.1712
    110  C          2.5620   72.8980   44.5330 C.2   209  CYS209      0.2296
    111  O          2.0650   73.8000   45.2290 O.2   209  CYS209     -0.2864
    112  CB         5.0050   72.8940   44.9550 C.3   209  CYS209      0.0983
    113  SG         6.6610   73.3700   44.4120 S.3   209  CYS209     -0.0798
    114  N         -2.0660   71.4660   38.3170 N.3   214  LYS214     -0.1231
    115  CA        -0.6640   71.3890   37.9560 C.3   214  LYS214      0.1693
    116  C         -0.1040   70.1030   38.5330 C.2   214  LYS214      0.2592
    117  O         -0.5720   69.6300   39.5740 O.2   214  LYS214     -0.2718
    118  CB         0.1070   72.5850   38.5160 C.3   214  LYS214      0.0285
    119  CG        -0.3360   73.9300   37.9430 C.3   214  LYS214      0.0035
    120  CD         0.0640   74.0660   36.4850 C.3   214  LYS214      0.0206
    121  CE        -0.1210   75.4980   35.9870 C.3   214  LYS214      0.1093
    122  NZ         0.2340   75.6240   34.5290 N.3   214  LYS214     -0.1314
    123  N          0.9110   69.5610   37.8650 N.am  215  TYR215     -0.1962
    124  CA         1.4660   68.2530   38.2290 C.3   215  TYR215      0.1771
    125  C          2.9780   68.2860   38.2880 C.2   215  TYR215      0.2620
    126  O          3.5960   69.1510   37.7040 O.2   215  TYR215     -0.2715
    127  CB         1.0300   67.2050   37.2170 C.3   215  TYR215      0.0574
    128  CG        -0.4550   67.0600   37.1610 C.ar  215  TYR215     -0.0198
    129  CD1       -1.1420   66.3570   38.1510 C.ar  215  TYR215     -0.0009
    130  CD2       -1.1860   67.6700   36.1560 C.ar  215  TYR215     -0.0009
    131  CE1       -2.5430   66.2350   38.1150 C.ar  215  TYR215      0.0417
    132  CE2       -2.5810   67.5640   36.1200 C.ar  215  TYR215      0.0417
    133  CZ        -3.2450   66.8670   37.1040 C.ar  215  TYR215      0.1957
    134  OH        -4.6170   66.7690   37.0200 O.3   215  TYR215     -0.2866
    135  N          3.5740   67.3240   38.9820 N.am  216  GLY216     -0.1940
    136  CA         5.0430   67.2730   39.0080 C.3   216  GLY216      0.2014
    137  C          5.4910   66.6860   37.6900 C.2   216  GLY216      0.2638
    138  O          4.7970   65.8310   37.1380 O.2   216  GLY216     -0.2714
    139  N          6.6490   67.1080   37.1840 N.am  217  ILE217     -0.1977
    140  CA         7.1990   66.5320   35.9690 C.3   217  ILE217      0.1596
    141  C          8.4760   65.7860   36.3330 C.2   217  ILE217      0.2287
    142  O          9.2790   66.2480   37.1520 O.2   217  ILE217     -0.2864
    143  CB         7.4410   67.5800   34.8650 C.3   217  ILE217      0.0276
    144  CG1        6.1710   68.4170   34.6480 C.3   217  ILE217      0.0022
    145  CG2        7.7970   66.9080   33.5590 C.3   217  ILE217      0.0022
    146  CD1        6.1550   69.6030   35.4710 C.3   217  ILE217      0.0001
@<TRIPOS>BOND
     1    11    12    1
     2    13    12    1
     3    13    14    2
     4    12    15    1
     5    83    85   ar
     6    83    81   ar
     7    15    16    1
     8    85    84   ar
     9    17    16   ar
    10    17    19   ar
    11    16    18   ar
    12    19    21   ar
    13    81    80   ar
    14    81    79   ar
    15    80    78   ar
    16    84    82   ar
    17   145   143    1
    18    79    82   ar
    19    79    77   ar
    20    18    20   ar
    21    97    96   ar
    22    21    22    1
    23    21    20   ar
    24    78    77   ar
    25   122   121    1
    26   144   143    1
    27   144   146    1
    28    98    96   ar
    29   143   140    1
    30    96    95    1
    31    77    76    1
    32    71    70    1
    33     1     2    1
    34    95    94    1
    35   140   141    1
    36   140   139    1
    37   121   120    1
    38     5     2    1
    39     5     6    1
    40   132   130   ar
    41   132   133   ar
    42   130   128   ar
    43     2     3    1
    44    70    67    1
    45    76    73    1
    46   141   142    2
    47   120   119    1
    48   134   133    1
    49     7     6   ar
    50     7     9   ar
    51   133   131   ar
    52   138   137    2
    53   128   127    1
    54   128   129   ar
    55     6     8   ar
    56   139   137   am
    57   127   124    1
    58    94    91    1
    59    72    73    1
    60    72    68   am
    61    73    74    1
    62     3     4    2
    63    67    68    1
    64    67    66    1
    65    74    86   am
    66    74    75    2
    67    86    87    1
    68    87    88    1
    69   137   136    1
    70   126   125    2
    71    68    69    2
    72   123   124    1
    73   123   116   am
    74    88    90   am
    75    88    89    2
    76    90    91    1
    77   119   118    1
    78   115   114    1
    79   115   118    1
    80   115   116    1
    81   131   129   ar
    82     9    10   ar
    83   124   125    1
    84    91    92    1
    85   125   135   am
    86     8    10   ar
    87    66    60   am
    88   116   117    2
    89   107   105   ar
    90   135   136    1
    91    60    61    2
    92    60    59    1
    93    92    99   am
    94    92    93    2
    95   105   106   ar
    96   105   104    1
    97    58    59    1
    98    99   100    1
    99    59    62    1
   100   104   103    1
   101    57    56    1
   102    56    53    1
   103   100   103    1
   104   100   101    1
   105    62    64    1
   106    62    63    1
   107   102   101    2
   108   101   108   am
   109    53    54    1
   110    53    52    1
   111    54    55    2
   112    63    65    1
   113    36    35    1
   114    30    28   ar
   115    29    28   ar
   116   108   109    1
   117    50    49    2
   118    28    27    1
   119   109   110    1
   120   109   112    1
   121    49    48    1
   122    49    51   am
   123    35    32    1
   124    48    47    1
   125   113   112    1
   126   113    42    1
   127    34    33    2
   128   110   111    2
   129    47    44    1
   130    44    43    1
   131    44    45    1
   132    27    24    1
   133    31    32    1
   134    31    25   am
   135    33    32    1
   136    33    37   am
   137    40    39    2
   138    43    39   am
   139    39    38    1
   140    38    37    1
   141    38    41    1
   142    24    25    1
   143    24    23    1
   144    25    26    2
   145    45    46    2
   146    42    41    1
