@<TRIPOS>MOLECULE
tmp/3lc4B01.pdb
 175 166 0 0 0
SMALL
GASTEIGER

@<TRIPOS>ATOM
      1  N        -26.0650  -49.7150   27.8720 N.3    76  PHE76      -0.1241
      2  CA       -24.9170  -49.1530   28.5670 C.3    76  PHE76       0.1605
      3  C        -23.8620  -50.1400   29.0060 C.2    76  PHE76       0.2264
      4  O        -23.1530  -49.8540   29.9820 O.2    76  PHE76      -0.2867
      5  CB       -25.3730  -48.3700   29.7960 C.3    76  PHE76       0.0534
      6  CG       -26.0300  -47.0980   29.4570 C.ar   76  PHE76      -0.0203
      7  CD1      -25.2720  -45.9910   29.1080 C.ar   76  PHE76      -0.0042
      8  CD2      -27.4110  -47.0080   29.4390 C.ar   76  PHE76      -0.0042
      9  CE1      -25.8790  -44.8160   28.7640 C.ar   76  PHE76      -0.0003
     10  CE2      -28.0350  -45.8350   29.1100 C.ar   76  PHE76      -0.0003
     11  CZ       -27.2710  -44.7350   28.7660 C.ar   76  PHE76      -0.0000
     12  N        -20.7800  -48.7190   29.9320 N.3    79  HIS79      -0.1241
     13  CA       -20.6290  -48.0310   31.2310 C.3    79  HIS79       0.1621
     14  C        -20.6200  -48.9780   32.4170 C.2    79  HIS79       0.2264
     15  O        -20.3060  -48.5770   33.5520 O.2    79  HIS79      -0.2867
     16  CB       -21.7810  -47.0770   31.4520 C.3    79  HIS79       0.0745
     17  CG       -21.5080  -45.6740   31.0260 C.ar   79  HIS79       0.0817
     18  ND1      -21.5810  -44.5110   31.7130 N.ar   79  HIS79      -0.2268
     19  CD2      -21.1760  -45.3360   29.7320 C.ar   79  HIS79       0.1154
     20  CE1      -21.2740  -43.4990   30.8360 C.ar   79  HIS79       0.1986
     21  NE2      -21.0240  -44.0260   29.6510 N.ar   79  HIS79      -0.2212
     22  N        -23.5830  -44.5550   37.8350 N.3    85  ILE85      -0.1245
     23  CA       -24.9280  -44.9460   37.4340 C.3    85  ILE85       0.1561
     24  C        -25.0540  -46.4440   37.1390 C.2    85  ILE85       0.2260
     25  O        -25.9630  -47.1080   37.6350 O.2    85  ILE85      -0.2867
     26  CB       -25.4180  -44.1080   36.2300 C.3    85  ILE85       0.0252
     27  CG1      -25.1720  -42.6130   36.4840 C.3    85  ILE85       0.0019
     28  CG2      -26.8950  -44.3980   35.9460 C.3    85  ILE85       0.0019
     29  CD1      -25.3050  -41.7330   35.2650 C.3    85  ILE85       0.0001
     30  N        -26.9480  -35.9040   21.1040 N.3   168  LEU168     -0.1231
     31  CA       -26.7680  -37.3110   21.3950 C.3   168  LEU168      0.1693
     32  C        -27.4170  -37.6660   22.7220 C.2   168  LEU168      0.2592
     33  O        -27.9960  -38.7370   22.8510 O.2   168  LEU168     -0.2718
     34  CB       -25.2810  -37.6860   21.4320 C.3   168  LEU168      0.0284
     35  CG       -24.4240  -37.7120   20.1590 C.3   168  LEU168      0.0019
     36  CD1      -23.2860  -36.7390   20.3040 C.3   168  LEU168      0.0001
     37  CD2      -23.8210  -39.0740   19.9410 C.3   168  LEU168      0.0001
     38  N        -27.3120  -36.7730   23.7070 N.am  169  PHE169     -0.1976
     39  CA       -27.9460  -36.9770   25.0080 C.3   169  PHE169      0.1639
     40  C        -29.4430  -37.0740   24.8240 C.2   169  PHE169      0.2290
     41  O        -30.1030  -38.0470   25.2140 O.2   169  PHE169     -0.2864
     42  CB       -27.6850  -35.7910   25.9160 C.3   169  PHE169      0.0560
     43  CG       -26.2610  -35.6150   26.3030 C.ar  169  PHE169     -0.0200
     44  CD1      -25.3460  -36.6430   26.1500 C.ar  169  PHE169     -0.0042
     45  CD2      -25.8440  -34.4060   26.8660 C.ar  169  PHE169     -0.0042
     46  CE1      -24.0380  -36.4660   26.5250 C.ar  169  PHE169     -0.0003
     47  CE2      -24.5460  -34.2200   27.2510 C.ar  169  PHE169     -0.0003
     48  CZ       -23.6320  -35.2530   27.0820 C.ar  169  PHE169     -0.0000
     49  N        -30.6130  -40.0910   22.8480 N.3   172  ASN172     -0.1225
     50  CA       -30.5610  -41.3220   23.6450 C.3   172  ASN172      0.1785
     51  C        -31.6670  -41.3540   24.6720 C.2   172  ASN172      0.2597
     52  O        -32.2350  -42.3990   24.9280 O.2   172  ASN172     -0.2718
     53  CB       -29.2000  -41.5310   24.3290 C.3   172  ASN172      0.1169
     54  CG       -28.1720  -42.1870   23.4120 C.2   172  ASN172      0.2627
     55  OD1      -28.6550  -42.8260   22.3500 O.2   172  ASN172     -0.2716
     56  ND2      -26.9560  -42.1130   23.6520 N.am  172  ASN172     -0.0877
     57  N        -31.9840  -40.2090   25.2560 N.am  173  PHE173     -0.1976
     58  CA       -33.1220  -40.1550   26.1270 C.3   173  PHE173      0.1639
     59  C        -34.3790  -40.5620   25.3630 C.2   173  PHE173      0.2290
     60  O        -35.0150  -41.5640   25.7060 O.2   173  PHE173     -0.2864
     61  CB       -33.2640  -38.7780   26.7340 C.3   173  PHE173      0.0560
     62  CG       -33.8450  -38.8030   28.0890 C.ar  173  PHE173     -0.0200
     63  CD1      -33.7770  -39.9570   28.8540 C.ar  173  PHE173     -0.0042
     64  CD2      -34.4370  -37.6840   28.6230 C.ar  173  PHE173     -0.0042
     65  CE1      -34.3020  -40.0020   30.1300 C.ar  173  PHE173     -0.0003
     66  CE2      -34.9680  -37.7170   29.9210 C.ar  173  PHE173     -0.0003
     67  CZ       -34.9000  -38.8770   30.6690 C.ar  173  PHE173     -0.0000
     68  N        -34.1950  -44.1890   24.2880 N.3   176  LEU176     -0.1245
     69  CA       -34.1250  -45.0180   25.4960 C.3   176  LEU176      0.1561
     70  C        -35.4640  -45.2510   26.1860 C.2   176  LEU176      0.2260
     71  O        -35.6190  -46.2150   26.9180 O.2   176  LEU176     -0.2867
     72  CB       -33.1520  -44.3930   26.4780 C.3   176  LEU176      0.0270
     73  CG       -32.0570  -45.2560   27.0850 C.3   176  LEU176      0.0019
     74  CD1      -31.8860  -46.6370   26.4410 C.3   176  LEU176      0.0001
     75  CD2      -30.7910  -44.4430   27.0110 C.3   176  LEU176      0.0001
     76  N        -23.6450  -43.8380   22.7770 N.3   205  VAL205     -0.1245
     77  CA       -22.9490  -44.0340   24.0380 C.3   205  VAL205      0.1561
     78  C        -21.4380  -44.0780   23.7800 C.2   205  VAL205      0.2260
     79  O        -20.6610  -43.4110   24.4570 O.2   205  VAL205     -0.2867
     80  CB       -23.4430  -45.2920   24.7920 C.3   205  VAL205      0.0252
     81  CG1      -22.8260  -45.3630   26.1820 C.3   205  VAL205      0.0019
     82  CG2      -24.9520  -45.2720   24.9300 C.3   205  VAL205      0.0019
     83  N        -20.0160  -40.4580   22.9780 N.3   208  VAL208     -0.1231
     84  CA       -19.8640  -39.6120   24.1600 C.3   208  VAL208      0.1692
     85  C        -18.7430  -40.0990   25.0480 C.2   208  VAL208      0.2591
     86  O        -18.0950  -39.2910   25.7080 O.2   208  VAL208     -0.2718
     87  CB       -21.1320  -39.5510   25.0170 C.3   208  VAL208      0.0266
     88  CG1      -20.7910  -39.0970   26.4330 C.3   208  VAL208      0.0020
     89  CG2      -22.1630  -38.6250   24.3980 C.3   208  VAL208      0.0020
     90  N        -18.5260  -41.4120   25.0800 N.am  209  LYS209     -0.1980
     91  CA       -17.4360  -41.9830   25.8670 C.3   209  LYS209      0.1596
     92  C        -16.0850  -41.6090   25.2540 C.2   209  LYS209      0.2287
     93  O        -15.2020  -41.1200   25.9540 O.2   209  LYS209     -0.2864
     94  CB       -17.5950  -43.4920   26.0040 C.3   209  LYS209      0.0298
     95  CG       -17.0310  -44.0590   27.2970 C.3   209  LYS209      0.0038
     96  CD       -17.2300  -45.5770   27.3190 C.3   209  LYS209      0.0206
     97  CE       -16.1840  -46.3170   28.1500 C.3   209  LYS209      0.1093
     98  NZ       -16.0750  -47.7270   27.6730 N.3   209  LYS209     -0.1314
     99  N        -18.3390  -39.2660   32.2870 N.3   260  ALA260     -0.1245
    100  CA       -19.4480  -39.3770   31.3410 C.3   260  ALA260      0.1562
    101  C        -20.7650  -39.5000   32.0990 C.2   260  ALA260      0.2260
    102  O        -21.7280  -38.7970   31.7960 O.2   260  ALA260     -0.2867
    103  CB       -19.2560  -40.5580   30.4260 C.3   260  ALA260      0.0290
    104  N        -23.6680  -36.5900   31.0320 N.3   264  PHE264     -0.1227
    105  CA       -25.0000  -36.5830   30.4620 C.3   264  PHE264      0.1736
    106  C        -26.0260  -36.5340   31.5750 C.2   264  PHE264      0.2595
    107  O        -27.0670  -35.9060   31.4240 O.2   264  PHE264     -0.2718
    108  CB       -25.2180  -37.7580   29.5140 C.3   264  PHE264      0.0547
    109  CG       -25.4480  -39.0680   30.1940 C.ar  264  PHE264     -0.0202
    110  CD1      -26.6580  -39.3380   30.8200 C.ar  264  PHE264     -0.0042
    111  CD2      -24.4780  -40.0570   30.1700 C.ar  264  PHE264     -0.0042
    112  CE1      -26.8900  -40.5670   31.4390 C.ar  264  PHE264     -0.0003
    113  CE2      -24.7110  -41.2950   30.7770 C.ar  264  PHE264     -0.0003
    114  CZ       -25.9220  -41.5460   31.4120 C.ar  264  PHE264     -0.0000
    115  N        -25.7010  -37.1910   32.6920 N.am  265  ALA265     -0.1980
    116  CA       -26.5280  -37.2040   33.8970 C.3   265  ALA265      0.1597
    117  C        -26.8840  -35.7930   34.2940 C.2   265  ALA265      0.2287
    118  O        -28.0540  -35.4240   34.2830 O.2   265  ALA265     -0.2864
    119  CB       -25.7990  -37.8700   35.0110 C.3   265  ALA265      0.0319
    120  N        -29.0450  -33.9970   30.6930 N.3   268  GLU268     -0.1231
    121  CA       -30.3620  -34.2200   30.1190 C.3   268  GLU268      0.1699
    122  C        -31.4570  -34.1010   31.1270 C.2   268  GLU268      0.2592
    123  O        -32.4820  -33.5330   30.8090 O.2   268  GLU268     -0.2718
    124  CB       -30.4930  -35.5310   29.3550 C.3   268  GLU268      0.0402
    125  CG       -30.4920  -35.3740   27.8270 C.3   268  GLU268      0.1161
    126  CD       -31.4440  -34.2900   27.2930 C.2   268  GLU268      0.3649
    127  OE1      -32.6930  -34.4850   27.3210 O.co2 268  GLU268     -0.2457
    128  OE2      -30.9240  -33.2470   26.8140 O.co2 268  GLU268     -0.2457
    129  N        -31.2550  -34.6210   32.3300 N.am  269  THR269     -0.1953
    130  CA       -32.2750  -34.5420   33.3760 C.3   269  THR269      0.1897
    131  C        -32.7420  -33.1000   33.6550 C.2   269  THR269      0.2313
    132  O        -33.9280  -32.7990   33.6000 O.2   269  THR269     -0.2863
    133  CB       -31.7380  -35.0750   34.6630 C.3   269  THR269      0.1794
    134  OG1      -30.6220  -34.2620   35.0220 O.3   269  THR269     -0.2208
    135  CG2      -31.2970  -36.5240   34.5160 C.3   269  THR269      0.0378
    136  N        -39.9610  -37.8610   35.5770 N.3   329  LEU329     -0.1231
    137  CA       -38.9250  -38.0810   34.5830 C.3   329  LEU329      0.1693
    138  C        -38.4110  -39.5130   34.6070 C.2   329  LEU329      0.2591
    139  O        -38.3210  -40.1580   33.5710 O.2   329  LEU329     -0.2718
    140  CB       -37.7760  -37.1140   34.8310 C.3   329  LEU329      0.0284
    141  CG       -36.9250  -36.6510   33.6530 C.3   329  LEU329      0.0019
    142  CD1      -37.7530  -35.8250   32.6840 C.3   329  LEU329      0.0001
    143  CD2      -35.7700  -35.8430   34.2140 C.3   329  LEU329      0.0001
    144  N        -38.0820  -40.0090   35.7960 N.am  330  VAL330     -0.1980
    145  CA       -37.5680  -41.3660   35.9490 C.3   330  VAL330      0.1595
    146  C        -38.6660  -42.1770   36.6140 C.2   330  VAL330      0.2287
    147  O        -38.5820  -42.5090   37.7870 O.2   330  VAL330     -0.2864
    148  CB       -36.2570  -41.4070   36.7740 C.3   330  VAL330      0.0276
    149  CG1      -35.6590  -42.8110   36.7500 C.3   330  VAL330      0.0022
    150  CG2      -35.2490  -40.3870   36.2490 C.3   330  VAL330      0.0022
    151  N        -34.2410  -46.0300   38.7640 N.3   334  LEU334     -0.1245
    152  CA       -33.1720  -46.8140   38.1620 C.3   334  LEU334      0.1561
    153  C        -33.1550  -48.1810   38.8330 C.2   334  LEU334      0.2260
    154  O        -33.4120  -48.2650   40.0330 O.2   334  LEU334     -0.2867
    155  CB       -31.8210  -46.0920   38.2730 C.3   334  LEU334      0.0270
    156  CG       -31.1370  -45.6070   36.9750 C.3   334  LEU334      0.0019
    157  CD1      -32.0670  -45.6740   35.7220 C.3   334  LEU334      0.0001
    158  CD2      -30.5110  -44.1920   37.1530 C.3   334  LEU334      0.0001
    159  N        -30.0930  -40.0950   43.8320 N.3   403  CYS403     -0.1235
    160  CA       -29.4480  -39.2880   42.8090 C.3   403  CYS403      0.1677
    161  C        -28.2900  -38.4910   43.3990 C.2   403  CYS403      0.2270
    162  O        -28.4210  -37.8200   44.4230 O.2   403  CYS403     -0.2867
    163  CB       -30.4220  -38.3450   42.1330 C.3   403  CYS403      0.0956
    164  SG       -29.5590  -37.1920   41.0610 S.3   403  CYS403     -0.0801
    165  N        -37.4030  -45.4260   30.0380 N.3   444  PHE444     -0.1241
    166  CA       -36.3090  -44.9570   30.8420 C.3   444  PHE444      0.1605
    167  C        -36.6930  -43.6470   31.5400 C.2   444  PHE444      0.2264
    168  O        -36.5410  -43.5060   32.7690 O.2   444  PHE444     -0.2867
    169  CB       -35.1630  -44.7210   29.8790 C.3   444  PHE444      0.0534
    170  CG       -33.8360  -44.6750   30.5160 C.ar  444  PHE444     -0.0203
    171  CD1      -33.2640  -45.8260   31.0500 C.ar  444  PHE444     -0.0042
    172  CD2      -33.1230  -43.4890   30.5470 C.ar  444  PHE444     -0.0042
    173  CE1      -32.0070  -45.7900   31.6440 C.ar  444  PHE444     -0.0003
    174  CE2      -31.8650  -43.4380   31.1290 C.ar  444  PHE444     -0.0003
    175  CZ       -31.3010  -44.5940   31.6860 C.ar  444  PHE444     -0.0000
@<TRIPOS>BOND
     1    37    35    1
     2    35    36    1
     3    35    34    1
     4    30    31    1
     5    31    34    1
     6    31    32    1
     7    55    54    2
     8    32    33    2
     9    32    38   am
    10    76    77    1
    11    49    50    1
    12    83    84    1
    13    54    56   am
    14    54    53    1
    15    50    53    1
    16    50    51    1
    17    38    39    1
    18    78    77    1
    19    78    79    2
    20    77    80    1
    21    84    87    1
    22    84    85    1
    23    68    69    1
    24    89    87    1
    25    51    52    2
    26    51    57   am
    27    80    82    1
    28    80    81    1
    29    40    39    1
    30    40    41    2
    31    39    42    1
    32    87    88    1
    33    85    90   am
    34    85    86    2
    35    90    91    1
    36    92    91    1
    37    92    93    2
    38    57    58    1
    39    59    60    2
    40    59    58    1
    41    69    70    1
    42    69    72    1
    43    91    94    1
    44    42    43    1
    45    94    95    1
    46    58    61    1
    47    44    43   ar
    48    44    46   ar
    49    70    71    2
    50    43    45   ar
    51    74    73    1
    52    72    73    1
    53    46    48   ar
    54    61    62    1
    55   128   126   ar
    56    45    47   ar
    57    75    73    1
    58    48    47   ar
    59   126   127   ar
    60   126   125    1
    61    95    96    1
    62    96    97    1
    63    98    97    1
    64   125   124    1
    65     1     2    1
    66    62    64   ar
    67    62    63   ar
    68     2     3    1
    69     2     5    1
    70    64    66   ar
    71     9    11   ar
    72     9     7   ar
    73    11    10   ar
    74    63    65   ar
    75     3     4    2
    76     7     6   ar
    77    10     8   ar
    78   124   121    1
    79     8     6   ar
    80     6     5    1
    81   108   109    1
    82   108   105    1
    83    21    19   ar
    84    21    20   ar
    85    19    17   ar
    86   169   170    1
    87   169   166    1
    88    66    67   ar
    89    12    13    1
    90   165   166    1
    91   121   120    1
    92   121   122    1
    93    65    67   ar
    94   111   109   ar
    95   111   113   ar
    96   109   110   ar
    97   103   100    1
    98   105   104    1
    99   105   106    1
   100   170   172   ar
   101   170   171   ar
   102   172   174   ar
   103   113   114   ar
   104   123   122    2
   105   110   112   ar
   106    20    18   ar
   107   166   167    1
   108    17    16    1
   109    17    18   ar
   110   171   173   ar
   111   122   129   am
   112   174   175   ar
   113    13    16    1
   114    13    14    1
   115   100   101    1
   116   100    99    1
   117   114   112   ar
   118   107   106    2
   119   167   168    2
   120   106   115   am
   121   173   175   ar
   122   102   101    2
   123   129   130    1
   124    14    15    2
   125   142   141    1
   126   115   116    1
   127   130   131    1
   128   130   133    1
   129   139   138    2
   130   132   131    2
   131   141   143    1
   132   141   140    1
   133   116   117    1
   134   116   119    1
   135   118   117    2
   136   135   133    1
   137   137   138    1
   138   137   140    1
   139   137   136    1
   140   138   144   am
   141   133   134    1
   142    29    27    1
   143   157   156    1
   144   144   145    1
   145    28    26    1
   146   145   146    1
   147   145   148    1
   148    26    27    1
   149    26    23    1
   150   150   148    1
   151   146   147    2
   152   149   148    1
   153   156   158    1
   154   156   155    1
   155    24    23    1
   156    24    25    2
   157    23    22    1
   158   152   155    1
   159   152   151    1
   160   152   153    1
   161   153   154    2
   162   164   163    1
   163   163   160    1
   164   160   161    1
   165   160   159    1
   166   161   162    2
