@<TRIPOS>MOLECULE
tmp/3lc5A00.pdb
 203 203 0 0 0
SMALL
GASTEIGER

@<TRIPOS>ATOM
      1  N         -6.9900    3.7410    7.5440 N.3    41  HIS41      -0.1241
      2  CA        -7.6890    3.6400    6.2630 C.3    41  HIS41       0.1621
      3  C         -9.0780    4.3160    6.2740 C.2    41  HIS41       0.2264
      4  O         -9.5910    4.6760    5.2130 O.2    41  HIS41      -0.2867
      5  CB        -7.7780    2.1860    5.7880 C.3    41  HIS41       0.0745
      6  CG        -8.8460    1.3880    6.4600 C.ar   41  HIS41       0.0817
      7  ND1       -8.5680    0.3940    7.3730 N.ar   41  HIS41      -0.2268
      8  CD2      -10.1940    1.4250    6.3420 C.ar   41  HIS41       0.1154
      9  CE1       -9.6990   -0.1430    7.7910 C.ar   41  HIS41       0.1986
     10  NE2      -10.7000    0.4660    7.1830 N.ar   41  HIS41      -0.2212
     11  N         -2.0910   -1.6880    1.9960 N.3    85  LYS85      -0.1231
     12  CA        -3.3980   -1.0870    2.2420 C.3    85  LYS85       0.1693
     13  C         -3.7200   -0.9820    3.7400 C.2    85  LYS85       0.2592
     14  O         -4.4480   -0.0800    4.1590 O.2    85  LYS85      -0.2718
     15  CB        -4.5010   -1.8890    1.5210 C.3    85  LYS85       0.0285
     16  CG        -4.1270   -2.4060    0.1220 C.3    85  LYS85       0.0035
     17  CD        -5.2620   -3.3400   -0.3700 C.3    85  LYS85       0.0206
     18  CE        -4.7770   -4.2760   -1.4660 C.3    85  LYS85       0.1093
     19  NZ        -5.8750   -5.1250   -2.0050 N.3    85  LYS85      -0.1314
     20  N         -3.1740   -1.9020    4.5350 N.am   86  TYR86      -0.1976
     21  CA        -3.5620   -2.0550    5.9420 C.3    86  TYR86       0.1639
     22  C         -2.4050   -2.2980    6.9240 C.2    86  TYR86       0.2290
     23  O         -2.6350   -2.7580    8.0430 O.2    86  TYR86      -0.2864
     24  CB        -4.5710   -3.2020    6.0570 C.3    86  TYR86       0.0560
     25  CG        -5.8220   -2.9920    5.2320 C.ar   86  TYR86      -0.0198
     26  CD1       -6.1600   -3.8600    4.1930 C.ar   86  TYR86      -0.0009
     27  CD2       -6.6670   -1.9110    5.4880 C.ar   86  TYR86      -0.0009
     28  CE1       -7.3120   -3.6580    3.4410 C.ar   86  TYR86       0.0417
     29  CE2       -7.8140   -1.7030    4.7430 C.ar   86  TYR86       0.0417
     30  CZ        -8.1310   -2.5750    3.7260 C.ar   86  TYR86       0.1957
     31  OH        -9.2720   -2.3480    2.9970 O.3    86  TYR86      -0.2866
     32  N        -21.4360   -4.2430    9.3600 N.3   132  ARG132     -0.1245
     33  CA       -22.3710   -5.2290    8.8110 C.3   132  ARG132      0.1563
     34  C        -22.5680   -6.4370    9.7200 C.2   132  ARG132      0.2260
     35  O        -21.6300   -6.8950   10.3830 O.2   132  ARG132     -0.2867
     36  CB       -21.9150   -5.7000    7.4350 C.3   132  ARG132      0.0307
     37  CG       -22.0770   -4.6540    6.3550 C.3   132  ARG132      0.0489
     38  CD       -21.8340   -5.2570    4.9830 C.3   132  ARG132      0.2205
     39  NE       -21.9780   -4.2700    3.9130 N.pl3 132  ARG132     -0.0865
     40  CZ       -21.8050   -4.5310    2.6190 C.cat 132  ARG132      0.5346
     41  NH1      -21.4830   -5.7570    2.2180 N.pl3 132  ARG132      0.1354
     42  NH2      -21.9530   -3.5630    1.7190 N.pl3 132  ARG132      0.1354
     43  N        -22.8030  -11.0640    5.7980 N.3   135  HIS135     -0.1226
     44  CA       -21.6990  -10.9410    4.8320 C.3   135  HIS135      0.1752
     45  C        -21.9660   -9.8850    3.7540 C.2   135  HIS135      0.2595
     46  O        -21.2210   -8.9080    3.6290 O.2   135  HIS135     -0.2718
     47  CB       -21.4180  -12.2890    4.1600 C.3   135  HIS135      0.0759
     48  CG       -20.2640  -12.2560    3.2050 C.ar  135  HIS135      0.0818
     49  ND1      -19.0830  -11.6050    3.4920 N.ar  135  HIS135     -0.2268
     50  CD2      -20.1030  -12.8000    1.9750 C.ar  135  HIS135      0.1154
     51  CE1      -18.2480  -11.7420    2.4770 C.ar  135  HIS135      0.1986
     52  NE2      -18.8410  -12.4660    1.5440 N.ar  135  HIS135     -0.2212
     53  N        -23.1080   -9.7880    3.2480 N.am  136  LYS136     -0.1980
     54  CA       -23.5350   -8.6770    2.3970 C.3   136  LYS136      0.1596
     55  C        -25.0320   -8.4310    2.5770 C.2   136  LYS136      0.2287
     56  O        -25.8610   -9.0680    1.9260 O.2   136  LYS136     -0.2864
     57  CB       -23.1960   -8.9550    0.9280 C.3   136  LYS136      0.0298
     58  CG       -23.5350   -7.8060   -0.0190 C.3   136  LYS136      0.0038
     59  CD       -22.8960   -7.9840   -1.3940 C.3   136  LYS136      0.0206
     60  CE       -23.4820   -9.1640   -2.1620 C.3   136  LYS136      0.1093
     61  NZ       -24.9480   -9.0290   -2.3880 N.3   136  LYS136     -0.1314
     62  N         -2.2830  -13.1980    1.0800 N.3   162  PHE162     -0.1241
     63  CA        -1.8770  -11.8230    1.3560 C.3   162  PHE162      0.1605
     64  C         -0.8440  -11.7800    2.4720 C.2   162  PHE162      0.2264
     65  O         -0.5750  -12.7900    3.1300 O.2   162  PHE162     -0.2867
     66  CB        -3.0980  -10.9740    1.7040 C.3   162  PHE162      0.0534
     67  CG        -4.2220  -11.1570    0.7430 C.ar  162  PHE162     -0.0203
     68  CD1       -4.0830  -10.7480   -0.5750 C.ar  162  PHE162     -0.0042
     69  CD2       -5.3940  -11.7890    1.1290 C.ar  162  PHE162     -0.0042
     70  CE1       -5.1080  -10.9360   -1.4870 C.ar  162  PHE162     -0.0003
     71  CE2       -6.4250  -11.9820    0.2200 C.ar  162  PHE162     -0.0003
     72  CZ        -6.2800  -11.5580   -1.0890 C.ar  162  PHE162     -0.0000
     73  N        -17.4890  -13.1030   13.2120 N.3   179  ASP179     -0.1225
     74  CA       -16.3370  -12.2800   12.8660 C.3   179  ASP179      0.1805
     75  C        -16.6650  -10.7960   12.9650 C.2   179  ASP179      0.2598
     76  O        -17.8340  -10.4180   13.0690 O.2   179  ASP179     -0.2718
     77  CB       -15.8920  -12.6160   11.4350 C.3   179  ASP179      0.1424
     78  CG       -14.4430  -12.2850   11.1730 C.2   179  ASP179      0.3668
     79  OD1      -13.7810  -11.7300   12.0660 O.co2 179  ASP179     -0.2456
     80  OD2      -13.9560  -12.5820   10.0660 O.co2 179  ASP179     -0.2456
     81  N        -15.6270   -9.9610   12.9480 N.am  180  SER180     -0.1938
     82  CA       -15.8020   -8.5350   12.6940 C.3   180  SER180      0.2055
     83  C        -16.0850   -8.3710   11.2020 C.2   180  SER180      0.2643
     84  O        -15.9620   -9.3380   10.4400 O.2   180  SER180     -0.2714
     85  CB       -14.5740   -7.7170   13.1340 C.3   180  SER180      0.2130
     86  OG       -13.3420   -8.3070   12.7520 O.3   180  SER180     -0.2179
     87  N        -16.4850   -7.1750   10.7790 N.am  181  CYS181     -0.1953
     88  CA       -16.8170   -6.9720    9.3660 C.3   181  CYS181      0.1843
     89  C        -16.7240   -5.5210    8.8910 C.2   181  CYS181      0.2625
     90  O        -16.3610   -4.6260    9.6510 O.2   181  CYS181     -0.2714
     91  CB       -18.2120   -7.5370    9.0760 C.3   181  CYS181      0.0997
     92  SG       -18.4380   -8.0930    7.3720 S.3   181  CYS181     -0.0797
     93  N        -17.0460   -5.3080    7.6170 N.am  182  GLN182     -0.1963
     94  CA       -16.9730   -3.9850    6.9990 C.3   182  GLN182      0.1733
     95  C        -17.8420   -3.0050    7.7820 C.2   182  GLN182      0.2616
     96  O        -18.9960   -3.3070    8.0930 O.2   182  GLN182     -0.2715
     97  CB       -17.4170   -4.0440    5.5290 C.3   182  GLN182      0.0408
     98  CG       -17.1530   -2.7600    4.7500 C.3   182  GLN182      0.0908
     99  CD       -17.8970   -2.6750    3.4210 C.2   182  GLN182      0.2608
    100  OE1      -17.2880   -2.4790    2.3730 O.2   182  GLN182     -0.2717
    101  NE2      -19.2190   -2.8020    3.4670 N.am  182  GLN182     -0.0878
    102  N        -17.2740   -1.8420    8.1050 N.am  183  GLY183     -0.1955
    103  CA       -17.9360   -0.8540    8.9500 C.3   183  GLY183      0.1869
    104  C        -17.4620   -0.8780   10.3940 C.2   183  GLY183      0.2309
    105  O        -17.5670    0.1300   11.0980 O.2   183  GLY183     -0.2863
    106  N        -14.2960   -1.4110   11.1530 N.3   185  SER185     -0.1217
    107  CA       -12.9140   -0.8960   11.0730 C.3   185  SER185      0.1889
    108  C        -12.6170    0.2800   11.9900 C.2   185  SER185      0.2288
    109  O        -13.3630    1.2600   12.0140 O.2   185  SER185     -0.2866
    110  CB       -12.6150   -0.4370    9.6520 C.3   185  SER185      0.2089
    111  OG       -12.5820   -1.5270    8.7630 O.3   185  SER185     -0.2183
    112  N         -9.4370   -2.9900   14.9370 N.3   203  ILE203     -0.1231
    113  CA       -10.0610   -3.7450   13.8400 C.3   203  ILE203      0.1692
    114  C         -9.5830   -3.1090   12.5290 C.2   203  ILE203      0.2593
    115  O         -9.6810   -1.8940   12.3630 O.2   203  ILE203     -0.2718
    116  CB       -11.6070   -3.7040   13.9250 C.3   203  ILE203      0.0266
    117  CG1      -12.0990   -4.3360   15.2290 C.3   203  ILE203      0.0019
    118  CG2      -12.2420   -4.4460   12.7580 C.3   203  ILE203      0.0020
    119  CD1      -13.4810   -3.8690   15.6460 C.3   203  ILE203      0.0001
    120  N         -9.0670   -3.9240   11.6080 N.am  204  SER204     -0.1938
    121  CA        -8.3670   -3.4080   10.4240 C.3   204  SER204      0.2055
    122  C         -8.8730   -3.9620    9.0810 C.2   204  SER204      0.2643
    123  O         -9.3730   -3.2020    8.2490 O.2   204  SER204     -0.2714
    124  CB        -6.8590   -3.6460   10.5710 C.3   204  SER204      0.2130
    125  OG        -6.1270   -2.9160    9.6050 O.3   204  SER204     -0.2179
    126  N         -8.7260   -5.2680    8.8550 N.am  205  TRP205     -0.1959
    127  CA        -9.1820   -5.8830    7.5940 C.3   205  TRP205      0.1771
    128  C         -9.4100   -7.3870    7.7030 C.2   205  TRP205      0.2620
    129  O         -9.2810   -7.9710    8.7770 O.2   205  TRP205     -0.2715
    130  CB        -8.1870   -5.5930    6.4570 C.3   205  TRP205      0.0590
    131  CG        -6.8340   -6.2480    6.6220 C.ar  205  TRP205      0.0006
    132  CD1       -5.8330   -5.8600    7.4710 C.ar  205  TRP205      0.0946
    133  CD2       -6.3320   -7.3890    5.9060 C.ar  205  TRP205      0.0152
    134  NE1       -4.7460   -6.6860    7.3280 N.ar  205  TRP205     -0.2442
    135  CE2       -5.0250   -7.6360    6.3800 C.ar  205  TRP205      0.0810
    136  CE3       -6.8640   -8.2300    4.9190 C.ar  205  TRP205      0.0012
    137  CZ2       -4.2390   -8.6870    5.8970 C.ar  205  TRP205      0.0191
    138  CZ3       -6.0850   -9.2750    4.4450 C.ar  205  TRP205      0.0001
    139  CH2       -4.7850   -9.4940    4.9360 C.ar  205  TRP205      0.0015
    140  N         -9.7580   -8.0010    6.5770 N.am  206  GLY206     -0.1940
    141  CA        -9.9150   -9.4420    6.4960 C.3   206  GLY206      0.2014
    142  C        -10.4260   -9.8430    5.1300 C.2   206  GLY206      0.2639
    143  O        -11.0170   -9.0280    4.4230 O.2   206  GLY206     -0.2714
    144  N        -10.1850  -11.0970    4.7520 N.am  207  GLU207     -0.1963
    145  CA       -10.6320  -11.5980    3.4570 C.3   207  GLU207      0.1733
    146  C        -12.0340  -12.1710    3.6200 C.2   207  GLU207      0.2616
    147  O        -12.2130  -13.2700    4.1530 O.2   207  GLU207     -0.2715
    148  CB        -9.6670  -12.6490    2.9020 C.3   207  GLU207      0.0429
    149  CG       -10.0070  -13.0610    1.4730 C.3   207  GLU207      0.1163
    150  CD        -9.1570  -14.1990    0.9350 C.2   207  GLU207      0.3649
    151  OE1       -8.3810  -14.7990    1.7060 O.co2 207  GLU207     -0.2457
    152  OE2       -9.2720  -14.4850   -0.2760 O.co2 207  GLU207     -0.2457
    153  N        -13.0260  -11.4020    3.1760 N.am  208  GLU208     -0.1963
    154  CA       -14.4410  -11.7500    3.3420 C.3   208  GLU208      0.1733
    155  C        -14.7930  -11.7390    4.8480 C.2   208  GLU208      0.2616
    156  O        -13.9700  -11.3100    5.6680 O.2   208  GLU208     -0.2715
    157  CB       -14.7680  -13.0690    2.6040 C.3   208  GLU208      0.0429
    158  CG       -14.3570  -13.0140    1.0990 C.3   208  GLU208      0.1163
    159  CD       -14.4730  -14.3470    0.3290 C.2   208  GLU208      0.3649
    160  OE1      -15.5880  -14.7040   -0.1070 O.co2 208  GLU208     -0.2457
    161  OE2      -13.4320  -15.0120    0.1100 O.co2 208  GLU208     -0.2457
    162  N        -16.0070  -12.1500    5.2110 N.am  209  CYS209     -0.1968
    163  CA       -16.4630  -12.0590    6.6070 C.3   209  CYS209      0.1712
    164  C        -17.0310  -13.3870    7.1090 C.2   209  CYS209      0.2296
    165  O        -17.8330  -14.0300    6.4210 O.2   209  CYS209     -0.2864
    166  CB       -17.5120  -10.9480    6.7650 C.3   209  CYS209      0.0983
    167  SG       -16.8220   -9.2910    7.0020 S.3   209  CYS209     -0.0798
    168  N         -9.4510  -15.4120    8.8520 N.3   215  TYR215     -0.1227
    169  CA        -9.4550  -14.7710   10.1630 C.3   215  TYR215      0.1736
    170  C         -9.4330  -13.2510   10.0420 C.2   215  TYR215      0.2596
    171  O         -8.9730  -12.7060    9.0410 O.2   215  TYR215     -0.2718
    172  CB        -8.2460  -15.2460   10.9680 C.3   215  TYR215      0.0548
    173  CG        -8.1670  -16.7450   11.0680 C.ar  215  TYR215     -0.0200
    174  CD1       -9.0470  -17.4440   11.8780 C.ar  215  TYR215     -0.0009
    175  CD2       -7.2300  -17.4690   10.3310 C.ar  215  TYR215     -0.0009
    176  CE1       -8.9930  -18.8210   11.9700 C.ar  215  TYR215      0.0417
    177  CE2       -7.1680  -18.8530   10.4140 C.ar  215  TYR215      0.0417
    178  CZ        -8.0530  -19.5220   11.2370 C.ar  215  TYR215      0.1957
    179  OH        -8.0100  -20.8920   11.3330 O.3   215  TYR215     -0.2866
    180  N         -9.9400  -12.5720   11.0640 N.am  216  GLY216     -0.1942
    181  CA        -9.8450  -11.1230   11.1300 C.3   216  GLY216      0.2014
    182  C         -8.4080  -10.7310   11.3780 C.2   216  GLY216      0.2639
    183  O         -7.6860  -11.4520   12.0670 O.2   216  GLY216     -0.2714
    184  N         -7.9870   -9.6060   10.8020 N.am  217  ILE217     -0.1963
    185  CA        -6.6190   -9.1090   10.9760 C.3   217  ILE217      0.1727
    186  C         -6.6450   -7.7510   11.6940 C.2   217  ILE217      0.2616
    187  O         -7.2030   -6.7780   11.1850 O.2   217  ILE217     -0.2715
    188  CB        -5.8550   -9.0220    9.6290 C.3   217  ILE217      0.0290
    189  CG1       -5.7550  -10.4090    8.9810 C.3   217  ILE217      0.0022
    190  CG2       -4.4480   -8.4580    9.8370 C.3   217  ILE217      0.0023
    191  CD1       -6.8610  -10.7110    8.0150 C.3   217  ILE217      0.0001
    192  N         -6.0400   -7.6980   12.8780 N.am  218  TYR218     -0.1974
    193  CA        -6.1160   -6.5190   13.7360 C.3   218  TYR218      0.1639
    194  C         -4.7430   -5.8760   13.8670 C.2   218  TYR218      0.2290
    195  O         -3.7240   -6.5750   13.8510 O.2   218  TYR218     -0.2864
    196  CB        -6.6580   -6.9150   15.1160 C.3   218  TYR218      0.0560
    197  CG        -8.0090   -7.5850   15.0380 C.ar  218  TYR218     -0.0198
    198  CD1       -8.1320   -8.8880   14.5760 C.ar  218  TYR218     -0.0009
    199  CD2       -9.1610   -6.9120   15.3920 C.ar  218  TYR218     -0.0009
    200  CE1       -9.3650   -9.5000   14.4780 C.ar  218  TYR218      0.0417
    201  CE2      -10.3980   -7.5170   15.2930 C.ar  218  TYR218      0.0417
    202  CZ       -10.4960   -8.8090   14.8380 C.ar  218  TYR218      0.1957
    203  OH       -11.7260   -9.4140   14.7390 O.3   218  TYR218     -0.2866
@<TRIPOS>BOND
     1    61    60    1
     2    60    59    1
     3    19    18    1
     4    70    72   ar
     5    70    68   ar
     6    18    17    1
     7    59    58    1
     8    72    71   ar
     9    68    67   ar
    10    17    16    1
    11   152   150   ar
    12   160   159   ar
    13    58    57    1
    14   161   159   ar
    15    16    15    1
    16    71    69   ar
    17   159   158    1
    18    67    69   ar
    19    67    66    1
    20    57    54    1
    21   150   149    1
    22   150   151   ar
    23    62    63    1
    24   158   157    1
    25    63    66    1
    26    63    64    1
    27   149   148    1
    28    15    12    1
    29    52    50   ar
    30    52    51   ar
    31    42    40    1
    32    56    55    2
    33    50    48   ar
    34    11    12    1
    35    41    40    1
    36    12    13    1
    37   100    99    2
    38    54    55    1
    39    54    53    1
    40    64    65    2
    41    51    49   ar
    42   157   154    1
    43    40    39    2
    44   148   145    1
    45    31    30    1
    46   153   154    1
    47   153   146   am
    48    48    49   ar
    49    48    47    1
    50    53    45   am
    51   154   155    1
    52    99   101   am
    53    99    98    1
    54    28    30   ar
    55    28    26   ar
    56   145   146    1
    57   145   144    1
    58   146   147    2
    59    46    45    2
    60    30    29   ar
    61    13    14    2
    62    13    20   am
    63    45    44    1
    64    39    38    1
    65    47    44    1
    66    26    25   ar
    67   143   142    2
    68   138   136   ar
    69   138   139   ar
    70    20    21    1
    71    29    27   ar
    72    98    97    1
    73   144   142   am
    74    44    43    1
    75   155   162   am
    76   155   156    2
    77   136   133   ar
    78   139   137   ar
    79    38    37    1
    80   142   141    1
    81   162   163    1
    82     4     3    2
    83    25    27   ar
    84    25    24    1
    85    97    94    1
    86     5     2    1
    87     5     6    1
    88   137   135   ar
    89   133   135   ar
    90   133   131   ar
    91    21    24    1
    92    21    22    1
    93     2     3    1
    94     2     1    1
    95     8     6   ar
    96     8    10   ar
    97    37    36    1
    98   135   134   ar
    99   165   164    2
   100   130   131    1
   101   130   127    1
   102     6     7   ar
   103   141   140    1
   104   140   128   am
   105   163   166    1
   106   163   164    1
   107   131   132   ar
   108   166   167    1
   109    22    23    2
   110    94    93    1
   111    94    95    1
   112   167    92    1
   113    10     9   ar
   114   134   132   ar
   115    92    91    1
   116     7     9   ar
   117    36    33    1
   118   127   128    1
   119   127   126    1
   120    93    89   am
   121   128   129    2
   122    95    96    2
   123    95   102   am
   124   191   189    1
   125   102   103    1
   126   123   122    2
   127   111   110    1
   128    33    32    1
   129    33    34    1
   130   168   169    1
   131   126   122   am
   132    89    88    1
   133    89    90    2
   134   103   104    1
   135   189   188    1
   136   171   170    2
   137    91    88    1
   138   122   121    1
   139    88    87    1
   140   125   124    1
   141   188   190    1
   142   188   185    1
   143   110   107    1
   144    34    35    2
   145   170   169    1
   146   170   180   am
   147    80    78   ar
   148   169   172    1
   149   175   177   ar
   150   175   173   ar
   151   104   105    2
   152   177   178   ar
   153   121   124    1
   154   121   120    1
   155    84    83    2
   156    87    83   am
   157   184   185    1
   158   184   182   am
   159   172   173    1
   160   185   186    1
   161   180   181    1
   162   173   174   ar
   163   107   106    1
   164   107   108    1
   165   181   182    1
   166    78    77    1
   167    78    79   ar
   168   187   186    2
   169    83    82    1
   170   178   179    1
   171   178   176   ar
   172   182   183    2
   173    77    74    1
   174   120   114   am
   175   186   192   am
   176   174   176   ar
   177   108   109    2
   178   115   114    2
   179   114   113    1
   180    82    81    1
   181    82    85    1
   182    86    85    1
   183   118   116    1
   184    74    75    1
   185    74    73    1
   186   192   193    1
   187    81    75   am
   188    75    76    2
   189   193   194    1
   190   193   196    1
   191   113   116    1
   192   113   112    1
   193   195   194    2
   194   116   117    1
   195   200   198   ar
   196   200   202   ar
   197   198   197   ar
   198   203   202    1
   199   202   201   ar
   200   197   196    1
   201   197   199   ar
   202   117   119    1
   203   201   199   ar
