@<TRIPOS>MOLECULE
tmp/3lc6A00.pdb
 192 189 0 0 0
SMALL
GASTEIGER

@<TRIPOS>ATOM
      1  N        -21.4300  -13.8640   62.3140 N.3   308  ALA308     -0.1231
      2  CA       -22.3630  -12.7940   62.0330 C.3   308  ALA308      0.1679
      3  C        -23.5250  -12.7880   63.0080 C.2   308  ALA308      0.2434
      4  O        -23.8560  -13.8130   63.5980 O.2   308  ALA308     -0.2733
      5  CB       -22.8630  -12.8870   60.6230 C.3   308  ALA308      0.0304
      6  N        -24.1190  -11.6090   63.2020 N.am  309  PRO309     -0.2718
      7  CA       -25.3090  -11.3770   63.9960 C.3   309  PRO309      0.1535
      8  C        -26.5730  -12.0210   63.4190 C.2   309  PRO309      0.2599
      9  O        -26.5740  -12.4430   62.2760 O.2   309  PRO309     -0.2715
     10  CB       -25.4070   -9.8500   63.9890 C.3   309  PRO309      0.0310
     11  CG       -24.0220   -9.4060   63.9580 C.3   309  PRO309      0.0237
     12  CD       -23.3390  -10.3610   63.0340 C.3   309  PRO309      0.0939
     13  N        -27.6300  -12.1000   64.2180 N.am  310  GLY310     -0.1941
     14  CA       -28.8620  -12.7540   63.7930 C.3   310  GLY310      0.2014
     15  C        -28.9030  -14.2280   64.1430 C.2   310  GLY310      0.2639
     16  O        -28.2320  -14.6540   65.0760 O.2   310  GLY310     -0.2714
     17  N        -29.6720  -15.0090   63.3850 N.am  311  ILE311     -0.1963
     18  CA       -29.8060  -16.4550   63.6120 C.3   311  ILE311      0.1727
     19  C        -28.8600  -17.2920   62.7450 C.2   311  ILE311      0.2616
     20  O        -28.6840  -17.0130   61.5690 O.2   311  ILE311     -0.2715
     21  CB       -31.2620  -16.9360   63.3940 C.3   311  ILE311      0.0290
     22  CG1      -32.1370  -16.5840   64.5930 C.3   311  ILE311      0.0022
     23  CG2      -31.3280  -18.4340   63.1960 C.3   311  ILE311      0.0023
     24  CD1      -33.5860  -16.8460   64.3740 C.3   311  ILE311      0.0001
     25  N        -28.2640  -18.3220   63.3450 N.am  312  ARG312     -0.1963
     26  CA       -27.4230  -19.2830   62.6370 C.3   312  ARG312      0.1729
     27  C        -28.1910  -20.0870   61.5840 C.2   312  ARG312      0.2617
     28  O        -29.2790  -20.6080   61.8310 O.2   312  ARG312     -0.2715
     29  CB       -26.7700  -20.2450   63.6270 C.3   312  ARG312      0.0348
     30  CG       -25.8010  -19.5940   64.5850 C.3   312  ARG312      0.0492
     31  CD       -25.5220  -20.4780   65.7850 C.3   312  ARG312      0.2205
     32  NE       -24.2980  -21.2570   65.6350 N.pl3 312  ARG312     -0.0865
     33  CZ       -23.9400  -22.2640   66.4280 C.cat 312  ARG312      0.5346
     34  NH1      -24.7110  -22.6430   67.4400 N.pl3 312  ARG312      0.1354
     35  NH2      -22.8040  -22.8990   66.2080 N.pl3 312  ARG312      0.1354
     36  N        -27.5960  -20.2050   60.4090 N.am  313  GLY313     -0.1940
     37  CA       -28.2300  -20.8960   59.3040 C.3   313  GLY313      0.2014
     38  C        -28.3380  -22.3940   59.4300 C.2   313  GLY313      0.2639
     39  O        -27.5420  -23.0480   60.1180 O.2   313  GLY313     -0.2714
     40  N        -29.3540  -22.9320   58.7600 N.am  314  MET314     -0.1963
     41  CA       -29.5030  -24.3720   58.5890 C.3   314  MET314      0.1736
     42  C        -28.4840  -24.8950   57.5840 C.2   314  MET314      0.2616
     43  O        -28.0960  -26.0580   57.6500 O.2   314  MET314     -0.2715
     44  CB       -30.9250  -24.7190   58.1490 C.3   314  MET314      0.0427
     45  CG       -31.8220  -25.1440   59.2890 C.3   314  MET314      0.0599
     46  SD       -33.5780  -24.9600   58.9900 S.3   314  MET314     -0.1393
     47  CE       -33.8190  -23.3570   59.7390 C.3   314  MET314      0.0692
     48  N        -28.0400  -24.0310   56.6700 N.am  315  VAL315     -0.1963
     49  CA       -27.0370  -24.4120   55.6790 C.3   315  VAL315      0.1727
     50  C        -25.7500  -23.5770   55.7360 C.2   315  VAL315      0.2616
     51  O        -24.6840  -24.1030   56.0020 O.2   315  VAL315     -0.2715
     52  CB       -27.5890  -24.3590   54.2320 C.3   315  VAL315      0.0290
     53  CG1      -27.0870  -25.5630   53.4400 C.3   315  VAL315      0.0023
     54  CG2      -29.1280  -24.2770   54.1980 C.3   315  VAL315      0.0023
     55  N        -25.8570  -22.2790   55.4850 N.am  316  MET316     -0.1977
     56  CA       -24.6840  -21.4110   55.3280 C.3   316  MET316      0.1605
     57  C        -23.9480  -21.0650   56.6360 C.2   316  MET316      0.2287
     58  O        -24.5420  -21.0380   57.7130 O.2   316  MET316     -0.2864
     59  CB       -25.0700  -20.1250   54.5670 C.3   316  MET316      0.0413
     60  CG       -26.0050  -20.3360   53.3700 C.3   316  MET316      0.0598
     61  SD       -25.1900  -20.9200   51.9000 S.3   316  MET316     -0.1393
     62  CE       -23.8000  -19.8220   51.8670 C.3   316  MET316      0.0692
     63  N        -21.8150  -18.0260   58.1890 N.3   318  VAL318     -0.1245
     64  CA       -21.6130  -16.5960   57.9170 C.3   318  VAL318      0.1561
     65  C        -20.7080  -15.8820   58.9140 C.2   318  VAL318      0.2260
     66  O        -20.9610  -15.8950   60.1160 O.2   318  VAL318     -0.2867
     67  CB       -22.9360  -15.8510   57.9010 C.3   318  VAL318      0.0252
     68  CG1      -23.5660  -15.9010   59.2710 C.3   318  VAL318      0.0019
     69  CG2      -22.7160  -14.4290   57.4690 C.3   318  VAL318      0.0019
     70  N        -19.9900   -9.4960   54.4200 N.3   327  VAL327     -0.1245
     71  CA       -20.1730  -10.7950   55.0610 C.3   327  VAL327      0.1561
     72  C        -19.5960  -11.8800   54.1720 C.2   327  VAL327      0.2260
     73  O        -19.5710  -11.7340   52.9610 O.2   327  VAL327     -0.2867
     74  CB       -21.6780  -11.1160   55.2810 C.3   327  VAL327      0.0252
     75  CG1      -22.0800  -10.9900   56.7420 C.3   327  VAL327      0.0019
     76  CG2      -22.5300  -10.2300   54.4210 C.3   327  VAL327      0.0019
     77  N        -20.0550  -15.8940   53.1800 N.3   329  LYS329     -0.1245
     78  CA       -20.9890  -17.0200   53.3100 C.3   329  LYS329      0.1561
     79  C        -20.4060  -18.3630   52.8620 C.2   329  LYS329      0.2260
     80  O        -20.3630  -18.6750   51.6700 O.2   329  LYS329     -0.2867
     81  CB       -22.2860  -16.7520   52.5360 C.3   329  LYS329      0.0271
     82  CG       -23.2740  -15.8250   53.2150 C.3   329  LYS329      0.0035
     83  CD       -24.0170  -14.9610   52.1920 C.3   329  LYS329      0.0227
     84  CE       -25.4570  -15.3580   52.0050 C.3   329  LYS329      0.1352
     85  NZ       -25.5610  -16.2850   50.8580 N.4   329  LYS329     -0.0277
     86  N        -27.4580  -18.9590   44.1150 N.3   350  TYR350     -0.1241
     87  CA       -26.5560  -17.8470   44.2600 C.3   350  TYR350      0.1605
     88  C        -26.1140  -17.3080   42.9190 C.2   350  TYR350      0.2264
     89  O        -25.8760  -16.0970   42.7800 O.2   350  TYR350     -0.2867
     90  CB       -25.3680  -18.2690   45.0890 C.3   350  TYR350      0.0534
     91  CG       -25.5780  -17.9550   46.5200 C.ar  350  TYR350     -0.0201
     92  CD1      -25.4010  -16.6610   46.9830 C.ar  350  TYR350     -0.0010
     93  CD2      -25.9660  -18.9380   47.4150 C.ar  350  TYR350     -0.0010
     94  CE1      -25.5930  -16.3550   48.2930 C.ar  350  TYR350      0.0392
     95  CE2      -26.1600  -18.6400   48.7400 C.ar  350  TYR350      0.0392
     96  CZ       -25.9770  -17.3490   49.1690 C.ar  350  TYR350      0.1670
     97  OH       -26.1890  -17.0570   50.4890 O.3   350  TYR350     -0.3845
     98  N        -21.1580  -10.6980   50.4820 N.3   409  GLU409     -0.1231
     99  CA       -22.1800   -9.7100   50.1130 C.3   409  GLU409      0.1699
    100  C        -22.1860   -8.5680   51.1250 C.2   409  GLU409      0.2592
    101  O        -21.6260   -8.7150   52.2120 O.2   409  GLU409     -0.2718
    102  CB       -23.5420  -10.3860   49.8880 C.3   409  GLU409      0.0402
    103  CG       -24.6310  -10.0520   50.8600 C.3   409  GLU409      0.1161
    104  CD       -24.9610  -11.2120   51.7380 C.2   409  GLU409      0.3649
    105  OE1      -24.5750  -12.3370   51.4090 O.co2 409  GLU409     -0.2457
    106  OE2      -25.6320  -11.0030   52.7540 O.co2 409  GLU409     -0.2457
    107  N        -22.7640   -7.4250   50.7580 N.am  410  ARG410     -0.1966
    108  CA       -22.7730   -6.2800   51.6690 C.3   410  ARG410      0.1729
    109  C        -23.3080   -6.7150   53.0330 C.2   410  ARG410      0.2616
    110  O        -24.4000   -7.2400   53.1440 O.2   410  ARG410     -0.2715
    111  CB       -23.5720   -5.0990   51.0880 C.3   410  ARG410      0.0348
    112  CG       -23.5470   -3.8460   51.9800 C.3   410  ARG410      0.0492
    113  CD       -23.7100   -2.5250   51.2250 C.3   410  ARG410      0.2205
    114  NE       -22.5190   -2.1650   50.4680 N.pl3 410  ARG410     -0.0865
    115  CZ       -21.5800   -1.3410   50.9100 C.cat 410  ARG410      0.5346
    116  NH1      -21.7030   -0.7870   52.1120 N.pl3 410  ARG410      0.1354
    117  NH2      -20.5190   -1.0850   50.1520 N.pl3 410  ARG410      0.1354
    118  N        -22.5220   -6.5390   54.0810 N.am  411  ARG411     -0.1963
    119  CA       -23.0530   -6.7770   55.4100 C.3   411  ARG411      0.1729
    120  C        -24.3510   -5.9970   55.4670 C.2   411  ARG411      0.2616
    121  O        -24.5510   -5.0400   54.7230 O.2   411  ARG411     -0.2715
    122  CB       -22.0750   -6.2960   56.4910 C.3   411  ARG411      0.0348
    123  CG       -22.6000   -6.3840   57.9100 C.3   411  ARG411      0.0492
    124  CD       -21.4770   -6.6370   58.8670 C.3   411  ARG411      0.2205
    125  NE       -21.8660   -6.3450   60.2380 N.pl3 411  ARG411     -0.0865
    126  CZ       -21.0250   -6.3650   61.2610 C.cat 411  ARG411      0.5346
    127  NH1      -19.7560   -6.6770   61.0630 N.pl3 411  ARG411      0.1354
    128  NH2      -21.4540   -6.0770   62.4770 N.pl3 411  ARG411      0.1354
    129  N        -25.2530   -6.4400   56.3160 N.am  412  MET412     -0.1977
    130  CA       -26.4810   -5.7330   56.5290 C.3   412  MET412      0.1605
    131  C        -26.7580   -5.8360   58.0220 C.2   412  MET412      0.2287
    132  O        -25.8430   -6.0950   58.7990 O.2   412  MET412     -0.2864
    133  CB       -27.5970   -6.3510   55.6780 C.3   412  MET412      0.0413
    134  CG       -27.2250   -6.5180   54.2130 C.3   412  MET412      0.0598
    135  SD       -28.5980   -6.9120   53.1670 S.3   412  MET412     -0.1393
    136  CE       -29.4460   -5.3590   53.2980 C.3   412  MET412      0.0692
    137  N        -29.4930   -7.9190   60.2460 N.3   414  PRO414     -0.2116
    138  CA       -30.6100   -8.8710   60.1220 C.3   414  PRO414      0.1372
    139  C        -31.9500   -8.2970   60.6040 C.2   414  PRO414      0.2244
    140  O        -32.0150   -7.6410   61.6490 O.2   414  PRO414     -0.2868
    141  CB       -30.1450  -10.0530   60.9540 C.3   414  PRO414      0.0268
    142  CG       -28.6840  -10.0240   60.7910 C.3   414  PRO414      0.0207
    143  CD       -28.2960   -8.5820   60.8020 C.3   414  PRO414      0.0892
    144  N        -35.7460  -12.9840   59.3170 N.3   454  LYS454     -0.1231
    145  CA       -34.2950  -12.7700   59.4270 C.3   454  LYS454      0.1693
    146  C        -33.4770  -13.0050   58.1690 C.2   454  LYS454      0.2592
    147  O        -32.2600  -12.9140   58.1910 O.2   454  LYS454     -0.2718
    148  CB       -33.7390  -13.7160   60.4850 C.3   454  LYS454      0.0285
    149  CG       -33.6580  -15.1640   60.0500 C.3   454  LYS454      0.0035
    150  CD       -35.0490  -15.7730   59.9600 C.3   454  LYS454      0.0206
    151  CE       -34.9400  -17.2080   59.5420 C.3   454  LYS454      0.1093
    152  NZ       -34.8170  -18.0750   60.7400 N.3   454  LYS454     -0.1314
    153  N        -34.1420  -13.3520   57.0850 N.am  455  ASN455     -0.1974
    154  CA       -33.4560  -13.7050   55.8610 C.3   455  ASN455      0.1688
    155  C        -33.2830  -12.4830   54.9810 C.2   455  ASN455      0.2292
    156  O        -32.6080  -12.5320   53.9520 O.2   455  ASN455     -0.2864
    157  CB       -34.2110  -14.8290   55.1420 C.3   455  ASN455      0.1181
    158  CG       -34.0940  -16.1690   55.8620 C.2   455  ASN455      0.2629
    159  OD1      -33.1570  -16.3930   56.6160 O.2   455  ASN455     -0.2716
    160  ND2      -35.0400  -17.0580   55.6290 N.am  455  ASN455     -0.0877
    161  N        -31.6160  -12.2380   51.4000 N.3   467  TYR467     -0.1227
    162  CA       -30.2500  -12.7550   51.1970 C.3   467  TYR467      0.1736
    163  C        -30.0750  -14.2760   51.4110 C.2   467  TYR467      0.2595
    164  O        -28.9530  -14.7680   51.5520 O.2   467  TYR467     -0.2718
    165  CB       -29.2360  -11.9550   52.0320 C.3   467  TYR467      0.0548
    166  CG       -29.4450  -12.0610   53.5200 C.ar  467  TYR467     -0.0200
    167  CD1      -29.5340  -13.3040   54.1410 C.ar  467  TYR467     -0.0009
    168  CD2      -29.5340  -10.9310   54.3080 C.ar  467  TYR467     -0.0009
    169  CE1      -29.7240  -13.4200   55.4850 C.ar  467  TYR467      0.0417
    170  CE2      -29.7190  -11.0410   55.6710 C.ar  467  TYR467      0.0417
    171  CZ       -29.8140  -12.2950   56.2470 C.ar  467  TYR467      0.1957
    172  OH       -29.9960  -12.4350   57.5950 O.3   467  TYR467     -0.2866
    173  N        -31.1880  -15.0360   51.3800 N.am  468  ASP468     -0.1960
    174  CA       -31.2680  -16.4520   51.6960 C.3   468  ASP468      0.1840
    175  C        -31.5810  -17.1640   50.4100 C.2   468  ASP468      0.2622
    176  O        -32.7370  -17.2160   50.0100 O.2   468  ASP468     -0.2715
    177  CB       -32.4660  -16.6500   52.6070 C.3   468  ASP468      0.1450
    178  CG       -32.3430  -17.8590   53.5140 C.2   468  ASP468      0.3671
    179  OD1      -31.7550  -18.9030   53.1090 O.co2 468  ASP468     -0.2456
    180  OD2      -32.8740  -17.7550   54.6480 O.co2 468  ASP468     -0.2456
    181  N        -30.6000  -17.6910   49.7880 N.am  469  TYR469     -0.1974
    182  CA       -30.7890  -18.1670   48.4210 C.3   469  TYR469      0.1639
    183  C        -30.8420  -19.6770   48.1430 C.2   469  TYR469      0.2290
    184  O        -30.5440  -20.0760   47.0380 O.2   469  TYR469     -0.2864
    185  CB       -29.7790  -17.5230   47.4750 C.3   469  TYR469      0.0560
    186  CG       -29.5800  -16.0350   47.6380 C.ar  469  TYR469     -0.0198
    187  CD1      -30.6560  -15.1480   47.6810 C.ar  469  TYR469     -0.0009
    188  CD2      -28.2990  -15.5090   47.7130 C.ar  469  TYR469     -0.0009
    189  CE1      -30.4390  -13.7740   47.8240 C.ar  469  TYR469      0.0417
    190  CE2      -28.0730  -14.1570   47.8480 C.ar  469  TYR469      0.0417
    191  CZ       -29.1380  -13.2960   47.9000 C.ar  469  TYR469      0.1957
    192  OH       -28.8890  -11.9500   48.0350 O.3   469  TYR469     -0.2866
@<TRIPOS>BOND
     1    89    88    2
     2    88    87    1
     3    86    87    1
     4    87    90    1
     5    90    91    1
     6    91    92   ar
     7    91    93   ar
     8    92    94   ar
     9   184   183    2
    10    93    95   ar
    11   185   186    1
    12   185   182    1
    13   186   187   ar
    14   186   188   ar
    15   187   189   ar
    16   188   190   ar
    17   189   191   ar
    18   190   191   ar
    19   191   192    1
    20   183   182    1
    21    94    96   ar
    22   182   181    1
    23    95    96   ar
    24    96    97    1
    25   181   175   am
    26   102    99    1
    27   102   103    1
    28   176   175    2
    29    99    98    1
    30    99   100    1
    31   117   115    1
    32   175   174    1
    33   114   115    2
    34   114   113    1
    35    97    85    1
    36   107   100   am
    37   107   108    1
    38    85    84    1
    39   103   104    1
    40   115   116    1
    41   111   108    1
    42   111   112    1
    43   100   101    2
    44   162   161    1
    45   162   163    1
    46   162   165    1
    47   113   112    1
    48   173   163   am
    49   173   174    1
    50   105   104   ar
    51   163   164    2
    52   108   109    1
    53    80    79    2
    54   174   177    1
    55   104   106   ar
    56    62    61    1
    57    61    60    1
    58    84    83    1
    59   165   166    1
    60    83    82    1
    61    81    82    1
    62    81    78    1
    63   177   178    1
    64    79    78    1
    65    73    72    2
    66   109   110    2
    67   109   118   am
    68   179   178   ar
    69   135   136    1
    70   135   134    1
    71    77    78    1
    72    60    59    1
    73    53    52    1
    74   178   180   ar
    75   166   167   ar
    76   166   168   ar
    77   156   155    2
    78   118   119    1
    79   167   169   ar
    80    72    71    1
    81    54    52    1
    82   134   133    1
    83    52    49    1
    84   168   170   ar
    85    70    71    1
    86    76    74    1
    87    59    56    1
    88   121   120    2
    89   155   154    1
    90    71    74    1
    91   157   154    1
    92   157   158    1
    93    74    75    1
    94    56    55    1
    95    56    57    1
    96   119   120    1
    97   119   122    1
    98   120   129   am
    99   169   171   ar
   100    55    50   am
   101   160   158   am
   102   170   171   ar
   103   133   130    1
   104    49    50    1
   105    49    48    1
   106    50    51    2
   107   154   153    1
   108   158   159    2
   109   171   172    1
   110   129   130    1
   111   122   123    1
   112   130   131    1
   113    57    58    2
   114    48    42   am
   115   153   146   am
   116    69    67    1
   117    42    43    2
   118    42    41    1
   119    67    64    1
   120    67    68    1
   121   123   124    1
   122    64    63    1
   123    64    65    1
   124   131   132    2
   125    44    41    1
   126    44    45    1
   127   146   147    2
   128   146   145    1
   129    41    40    1
   130    40    38   am
   131   124   125    1
   132    65    66    2
   133    46    45    1
   134    46    47    1
   135    37    38    1
   136    37    36    1
   137   144   145    1
   138   145   148    1
   139    38    39    2
   140   151   150    1
   141   151   152    1
   142   150   149    1
   143   149   148    1
   144   138   137    1
   145   138   139    1
   146   138   141    1
   147   125   126    2
   148   137   143    1
   149    36    27   am
   150   139   140    2
   151     5     2    1
   152   142   143    1
   153   142   141    1
   154   127   126    1
   155   126   128    1
   156    20    19    2
   157    27    28    2
   158    27    26    1
   159     2     1    1
   160     2     3    1
   161     9     8    2
   162    26    25    1
   163    26    29    1
   164    19    25   am
   165    19    18    1
   166     3     6   am
   167     3     4    2
   168    12     6    1
   169    12    11    1
   170    23    21    1
   171     6     7    1
   172    17    18    1
   173    17    15   am
   174    21    18    1
   175    21    22    1
   176     8     7    1
   177     8    13   am
   178    29    30    1
   179    14    15    1
   180    14    13    1
   181    11    10    1
   182    10     7    1
   183    15    16    2
   184    24    22    1
   185    30    31    1
   186    32    31    1
   187    32    33    2
   188    35    33    1
   189    33    34    1
