@<TRIPOS>MOLECULE
tmp/3lcaA00.pdb
 117 109 0 0 0
SMALL
GASTEIGER

@<TRIPOS>ATOM
      1  N         37.1260   54.1860   83.5310 N.3     8  LYS8       -0.1245
      2  CA        36.6410   54.4670   82.1790 C.3     8  LYS8        0.1561
      3  C         35.2370   53.8990   81.9670 C.2     8  LYS8        0.2260
      4  O         34.3620   54.5840   81.4420 O.2     8  LYS8       -0.2867
      5  CB        37.6100   53.8870   81.1400 C.3     8  LYS8        0.0271
      6  CG        37.0890   53.8660   79.7060 C.3     8  LYS8        0.0035
      7  CD        37.9100   52.9180   78.8310 C.3     8  LYS8        0.0206
      8  CE        37.5590   51.4570   79.0790 C.3     8  LYS8        0.1093
      9  NZ        36.6140   50.9050   78.0700 N.3     8  LYS8       -0.1314
     10  N         31.9080   55.6490   81.0760 N.3    12  ASN12      -0.1240
     11  CA        31.0280   55.1690   80.0000 C.3    12  ASN12       0.1653
     12  C         29.5610   55.1200   80.4230 C.2    12  ASN12       0.2266
     13  O         28.6780   55.4780   79.6450 O.2    12  ASN12      -0.2867
     14  CB        31.4710   53.7830   79.4990 C.3    12  ASN12       0.1155
     15  CG        32.7260   53.8360   78.6260 C.2    12  ASN12       0.2627
     16  OD1       33.3550   54.8820   78.4760 O.2    12  ASN12      -0.2716
     17  ND2       33.0830   52.6970   78.0390 N.am   12  ASN12      -0.0877
     18  N         28.2950   58.6520   80.4700 N.3    15  PHE15      -0.1227
     19  CA        28.1550   59.0900   79.0790 C.3    15  PHE15       0.1736
     20  C         26.8250   58.6340   78.4740 C.2    15  PHE15       0.2596
     21  O         26.1310   59.4190   77.8240 O.2    15  PHE15      -0.2718
     22  CB        29.3240   58.5700   78.2240 C.3    15  PHE15       0.0547
     23  CG        29.1710   58.8510   76.7490 C.ar   15  PHE15      -0.0202
     24  CD1       29.6490   60.0360   76.2010 C.ar   15  PHE15      -0.0042
     25  CD2       28.5430   57.9300   75.9090 C.ar   15  PHE15      -0.0042
     26  CE1       29.5040   60.3040   74.8420 C.ar   15  PHE15      -0.0003
     27  CE2       28.3890   58.1920   74.5470 C.ar   15  PHE15      -0.0003
     28  CZ        28.8720   59.3800   74.0140 C.ar   15  PHE15      -0.0000
     29  N         26.4930   57.3610   78.6930 N.am   16  THR16      -0.1953
     30  CA        25.2840   56.7310   78.1550 C.3    16  THR16       0.1897
     31  C         24.0210   57.4260   78.6670 C.2    16  THR16       0.2313
     32  O         23.0450   57.5830   77.9240 O.2    16  THR16      -0.2863
     33  CB        25.2360   55.2130   78.5030 C.3    16  THR16       0.1794
     34  OG1       26.5120   54.6130   78.2390 O.3    16  THR16      -0.2208
     35  CG2       24.1690   54.4900   77.6830 C.3    16  THR16       0.0378
     36  N         36.9320   59.8320   83.2130 N.3    27  TYR27      -0.1241
     37  CA        37.9710   59.6400   82.2000 C.3    27  TYR27       0.1605
     38  C         39.2830   60.3220   82.6010 C.2    27  TYR27       0.2264
     39  O         40.3620   59.7560   82.4110 O.2    27  TYR27      -0.2867
     40  CB        37.5100   60.1520   80.8370 C.3    27  TYR27       0.0534
     41  CG        36.2950   59.4510   80.2660 C.ar   27  TYR27      -0.0201
     42  CD1       36.1600   58.0630   80.3410 C.ar   27  TYR27      -0.0009
     43  CD2       35.2980   60.1750   79.6160 C.ar   27  TYR27      -0.0009
     44  CE1       35.0540   57.4220   79.8090 C.ar   27  TYR27       0.0417
     45  CE2       34.1850   59.5420   79.0810 C.ar   27  TYR27       0.0417
     46  CZ        34.0720   58.1670   79.1790 C.ar   27  TYR27       0.1957
     47  OH        32.9730   57.5400   78.6470 O.3    27  TYR27      -0.2866
     48  N         42.2940   55.7740   74.4180 N.3    39  VAL39      -0.1245
     49  CA        40.8360   55.6520   74.5410 C.3    39  VAL39       0.1561
     50  C         40.2390   56.6440   75.5440 C.2    39  VAL39       0.2260
     51  O         39.1450   57.1640   75.3190 O.2    39  VAL39      -0.2867
     52  CB        40.4130   54.1920   74.8920 C.3    39  VAL39       0.0252
     53  CG1       38.9920   54.1270   75.4370 C.3    39  VAL39       0.0019
     54  CG2       40.5600   53.2860   73.6740 C.3    39  VAL39       0.0019
     55  N         40.1360   59.9490   73.8570 N.3    42  SER42      -0.1202
     56  CA        39.1500   59.7880   72.7940 C.3    42  SER42       0.2020
     57  C         37.7180   59.8270   73.3410 C.2    42  SER42       0.2618
     58  O         36.8340   60.4450   72.7400 O.2    42  SER42      -0.2717
     59  CB        39.4090   58.4840   72.0340 C.3    42  SER42       0.2103
     60  OG        38.3490   58.1920   71.1370 O.3    42  SER42      -0.2182
     61  N         37.5030   59.1660   74.4780 N.am   43  ASN43      -0.1974
     62  CA        36.2120   59.1820   75.1650 C.3    43  ASN43       0.1688
     63  C         35.8020   60.5750   75.6530 C.2    43  ASN43       0.2292
     64  O         34.6210   60.9290   75.6130 O.2    43  ASN43      -0.2864
     65  CB        36.2120   58.1900   76.3350 C.3    43  ASN43       0.1181
     66  CG        36.0880   56.7470   75.8810 C.2    43  ASN43       0.2629
     67  OD1       36.0470   56.4540   74.6820 O.2    43  ASN43      -0.2716
     68  ND2       36.0140   55.8340   76.8450 N.am   43  ASN43      -0.0877
     69  N         34.3850   62.5950   72.7700 N.3    46  ALA46      -0.1245
     70  CA        32.9890   62.2140   72.5200 C.3    46  ALA46       0.1562
     71  C         32.0130   63.0000   73.4010 C.2    46  ALA46       0.2260
     72  O         30.8940   63.3020   72.9830 O.2    46  ALA46      -0.2867
     73  CB        32.7940   60.7120   72.7260 C.3    46  ALA46       0.0290
     74  N         31.9660   66.7170   71.9570 N.3    49  ILE49      -0.1231
     75  CA        31.2260   66.8500   70.6980 C.3    49  ILE49       0.1692
     76  C         29.7110   66.7750   70.9380 C.2    49  ILE49       0.2592
     77  O         28.9230   67.3560   70.1870 O.2    49  ILE49      -0.2718
     78  CB        31.7160   65.8470   69.6030 C.3    49  ILE49       0.0266
     79  CG1       31.4540   66.4190   68.2000 C.3    49  ILE49       0.0019
     80  CG2       31.1010   64.4580   69.7900 C.3    49  ILE49       0.0020
     81  CD1       32.3720   65.8820   67.1130 C.3    49  ILE49       0.0001
     82  N         29.3240   66.0740   72.0010 N.am   50  SER50      -0.1952
     83  CA        27.9230   65.9210   72.3790 C.3    50  SER50       0.1924
     84  C         27.3700   67.1810   73.0470 C.2    50  SER50       0.2314
     85  O         26.1560   67.3860   73.0830 O.2    50  SER50      -0.2863
     86  CB        27.7560   64.7160   73.3040 C.3    50  SER50       0.2116
     87  OG        28.1170   63.5150   72.6430 O.3    50  SER50      -0.2180
     88  N         44.2340   56.0300   65.3440 N.3    71  HIS71      -0.1241
     89  CA        43.0000   55.8550   66.1160 C.3    71  HIS71       0.1621
     90  C         41.7900   56.3840   65.3410 C.2    71  HIS71       0.2264
     91  O         41.6410   57.5910   65.1410 O.2    71  HIS71      -0.2867
     92  CB        43.1100   56.5280   67.4830 C.3    71  HIS71       0.0745
     93  CG        42.0910   56.0520   68.4670 C.ar   71  HIS71       0.0817
     94  ND1       40.7990   56.5290   68.4900 N.ar   71  HIS71      -0.2268
     95  CD2       42.1700   55.1290   69.4550 C.ar   71  HIS71       0.1154
     96  CE1       40.1260   55.9240   69.4530 C.ar   71  HIS71       0.1986
     97  NE2       40.9360   55.0690   70.0530 N.ar   71  HIS71      -0.2212
     98  N         38.3500   56.5320   65.6660 N.3    73  LYS73      -0.1245
     99  CA        37.3290   57.4010   66.2500 C.3    73  LYS73       0.1561
    100  C         37.8590   58.8030   66.5190 C.2    73  LYS73       0.2260
    101  O         37.1380   59.7830   66.3430 O.2    73  LYS73      -0.2867
    102  CB        36.7640   56.7890   67.5340 C.3    73  LYS73       0.0271
    103  CG        35.5080   55.9520   67.3190 C.3    73  LYS73       0.0035
    104  CD        35.1950   55.1140   68.5470 C.3    73  LYS73       0.0206
    105  CE        33.7060   54.8380   68.6820 C.3    73  LYS73       0.1093
    106  NZ        33.1480   54.0700   67.5360 N.3    73  LYS73      -0.1314
    107  N         36.4210   62.0440   64.6880 N.3    77  ARG77      -0.1245
    108  CA        35.9860   63.1610   65.5250 C.3    77  ARG77       0.1563
    109  C         36.7490   64.4530   65.2470 C.2    77  ARG77       0.2260
    110  O         36.1470   65.5200   65.1600 O.2    77  ARG77      -0.2867
    111  CB        36.0710   62.8040   67.0100 C.3    77  ARG77       0.0307
    112  CG        34.7800   62.2340   67.5570 C.3    77  ARG77       0.0489
    113  CD        34.9890   61.5120   68.8760 C.3    77  ARG77       0.2205
    114  NE        34.0560   60.3940   68.9730 N.pl3  77  ARG77      -0.0865
    115  CZ        34.2360   59.3180   69.7280 C.cat  77  ARG77       0.5346
    116  NH1       35.3210   59.1910   70.4900 N.pl3  77  ARG77       0.1354
    117  NH2       33.3160   58.3650   69.7220 N.pl3  77  ARG77       0.1354
@<TRIPOS>BOND
     1   107   108    1
     2    91    90    2
     3   110   109    2
     4   109   108    1
     5    90    89    1
     6    88    89    1
     7   108   111    1
     8    98    99    1
     9    89    92    1
    10    99   100    1
    11    99   102    1
    12   101   100    2
    13   111   112    1
    14    81    79    1
    15   103   102    1
    16   103   104    1
    17    92    93    1
    18   106   105    1
    19   112   113    1
    20    79    78    1
    21    93    94   ar
    22    93    95   ar
    23    94    96   ar
    24   104   105    1
    25   113   114    1
    26   114   115    2
    27    96    97   ar
    28    95    97   ar
    29    78    80    1
    30    78    75    1
    31   117   115    1
    32   115   116    1
    33    77    76    2
    34    75    76    1
    35    75    74    1
    36    76    82   am
    37    60    59    1
    38    82    83    1
    39    59    56    1
    40    83    84    1
    41    83    86    1
    42    70    73    1
    43    70    69    1
    44    70    71    1
    45    87    86    1
    46    58    57    2
    47    56    57    1
    48    56    55    1
    49    72    71    2
    50    84    85    2
    51    57    61   am
    52    54    52    1
    53    28    27   ar
    54    28    26   ar
    55    48    49    1
    56    61    62    1
    57    49    52    1
    58    49    50    1
    59    27    25   ar
    60    67    66    2
    61    26    24   ar
    62    52    53    1
    63    62    63    1
    64    62    65    1
    65    51    50    2
    66    64    63    2
    67    66    65    1
    68    66    68   am
    69    25    23   ar
    70    24    23   ar
    71    23    22    1
    72    35    33    1
    73    21    20    2
    74    32    31    2
    75    17    15   am
    76     9     8    1
    77    30    33    1
    78    30    31    1
    79    30    29    1
    80    22    19    1
    81    34    33    1
    82    20    29   am
    83    20    19    1
    84    16    15    2
    85    15    14    1
    86    47    46    1
    87     7     8    1
    88     7     6    1
    89    19    18    1
    90    45    46   ar
    91    45    43   ar
    92    46    44   ar
    93    14    11    1
    94    43    41   ar
    95    13    12    2
    96     6     5    1
    97    44    42   ar
    98    11    12    1
    99    11    10    1
   100    41    42   ar
   101    41    40    1
   102    40    37    1
   103     5     2    1
   104     4     3    2
   105     3     2    1
   106     2     1    1
   107    37    38    1
   108    37    36    1
   109    39    38    2
