@<TRIPOS>MOLECULE
tmp/3lccA00.pdb
 225 226 0 0 0
SMALL
GASTEIGER

@<TRIPOS>ATOM
      1  N         -0.3540   35.4470   11.1180 N.3    24  TRP24      -0.1241
      2  CA        -1.4160   34.7180   10.4520 C.3    24  TRP24       0.1605
      3  C         -2.6010   35.6320   10.0910 C.2    24  TRP24       0.2264
      4  O         -3.2340   35.4570    9.0470 O.2    24  TRP24      -0.2867
      5  CB        -1.8590   33.5520   11.3320 C.3    24  TRP24       0.0550
      6  CG        -0.7640   32.5540   11.5160 C.ar   24  TRP24       0.0003
      7  CD1        0.0630   32.4350   12.5810 C.ar   24  TRP24       0.0946
      8  CD2       -0.3650   31.5520   10.5810 C.ar   24  TRP24       0.0152
      9  NE1        0.9420   31.3930   12.3920 N.ar   24  TRP24      -0.2442
     10  CE2        0.7100   30.8450   11.1590 C.ar   24  TRP24       0.0810
     11  CE3       -0.8070   31.1830    9.3120 C.ar   24  TRP24       0.0012
     12  CZ2        1.3340   29.7880   10.5110 C.ar   24  TRP24       0.0191
     13  CZ3       -0.2020   30.1270    8.6760 C.ar   24  TRP24       0.0001
     14  CH2        0.8670   29.4410    9.2750 C.ar   24  TRP24       0.0015
     15  N         -4.5510   36.0140    6.3600 N.3    28  TRP28      -0.1241
     16  CA        -5.9920   35.9250    6.1500 C.3    28  TRP28       0.1605
     17  C         -6.5520   37.2150    5.5540 C.2    28  TRP28       0.2264
     18  O         -7.3880   37.1660    4.6580 O.2    28  TRP28      -0.2867
     19  CB        -6.7080   35.5440    7.4520 C.3    28  TRP28       0.0550
     20  CG        -6.6470   34.0650    7.7020 C.ar   28  TRP28       0.0003
     21  CD1       -5.8460   33.4130    8.5890 C.ar   28  TRP28       0.0946
     22  CD2       -7.4030   33.0610    7.0230 C.ar   28  TRP28       0.0152
     23  NE1       -6.0630   32.0570    8.5140 N.ar   28  TRP28      -0.2442
     24  CE2       -7.0170   31.8160    7.5560 C.ar   28  TRP28       0.0810
     25  CE3       -8.3820   33.0960    6.0220 C.ar   28  TRP28       0.0012
     26  CZ2       -7.5780   30.6100    7.1290 C.ar   28  TRP28       0.0191
     27  CZ3       -8.9390   31.8870    5.5920 C.ar   28  TRP28       0.0001
     28  CH2       -8.5190   30.6640    6.1290 C.ar   28  TRP28       0.0015
     29  N         -2.5100   26.9850    2.1980 N.3    35  TRP35      -0.1227
     30  CA        -2.8630   25.7180    2.8650 C.3    35  TRP35       0.1737
     31  C         -4.3430   25.3520    2.7210 C.2    35  TRP35       0.2595
     32  O         -4.7240   24.2050    2.9580 O.2    35  TRP35      -0.2718
     33  CB        -2.5920   25.8290    4.3730 C.3    35  TRP35       0.0564
     34  CG        -3.4010   26.9130    4.9920 C.ar   35  TRP35       0.0003
     35  CD1       -4.6990   26.8300    5.4060 C.ar   35  TRP35       0.0946
     36  CD2       -2.9940   28.2800    5.2200 C.ar   35  TRP35       0.0152
     37  NE1       -5.1210   28.0460    5.8820 N.ar   35  TRP35      -0.2442
     38  CE2       -4.0970   28.9530    5.7790 C.ar   35  TRP35       0.0810
     39  CE3       -1.8040   28.9910    5.0150 C.ar   35  TRP35       0.0012
     40  CZ2       -4.0450   30.2940    6.1490 C.ar   35  TRP35       0.0191
     41  CZ3       -1.7610   30.3340    5.3590 C.ar   35  TRP35       0.0001
     42  CH2       -2.8700   30.9690    5.9330 C.ar   35  TRP35       0.0015
     43  N         -5.1790   26.3400    2.4190 N.am   36  ASP36      -0.1960
     44  CA        -6.6350   26.1640    2.5000 C.3    36  ASP36       0.1840
     45  C         -7.1850   25.4070    1.2950 C.2    36  ASP36       0.2621
     46  O         -7.0510   25.8430    0.1400 O.2    36  ASP36      -0.2715
     47  CB        -7.3050   27.5260    2.6440 C.3    36  ASP36       0.1450
     48  CG        -8.7970   27.4220    2.9730 C.2    36  ASP36       0.3671
     49  OD1       -9.5570   27.0050    2.0880 O.co2  36  ASP36      -0.2456
     50  OD2       -9.1980   27.8130    4.0940 O.co2  36  ASP36      -0.2456
     51  N         -7.8340   24.2790    1.5660 N.am   37  GLN37      -0.1977
     52  CA        -8.3150   23.3960    0.5040 C.3    37  GLN37       0.1601
     53  C         -9.5920   23.8780   -0.1760 C.2    37  GLN37       0.2287
     54  O        -10.0060   23.3000   -1.1810 O.2    37  GLN37      -0.2864
     55  CB        -8.5520   21.9950    1.0550 C.3    37  GLN37       0.0394
     56  CG        -7.2870   21.2870    1.5390 C.3    37  GLN37       0.0908
     57  CD        -7.6020   20.0560    2.3660 C.2    37  GLN37       0.2608
     58  OE1       -8.0600   19.0300    1.8440 O.2    37  GLN37      -0.2717
     59  NE2       -7.3490   20.1450    3.6570 N.am   37  GLN37      -0.0878
     60  N        -10.8660   21.4590   16.9530 N.3    60  VAL60      -0.1231
     61  CA       -10.0240   21.5790   15.7760 C.3    60  VAL60       0.1678
     62  C         -9.1040   22.7920   15.9920 C.2    60  VAL60       0.2434
     63  O         -9.5210   23.9420   15.7820 O.2    60  VAL60      -0.2733
     64  CB       -10.8590   21.7420   14.5010 C.3    60  VAL60       0.0265
     65  CG1       -9.9430   21.8730   13.2780 C.3    60  VAL60       0.0020
     66  CG2      -11.8500   20.5550   14.3290 C.3    60  VAL60       0.0020
     67  N         -7.8680   22.5390   16.4590 N.am   61  PRO61      -0.2718
     68  CA        -6.9360   23.6280   16.7120 C.3    61  PRO61       0.1535
     69  C         -6.4310   24.2530   15.4030 C.2    61  PRO61       0.2599
     70  O         -6.1940   23.5340   14.4200 O.2    61  PRO61      -0.2715
     71  CB        -5.8040   22.9390   17.4890 C.3    61  PRO61       0.0310
     72  CG        -5.8370   21.5390   17.0170 C.3    61  PRO61       0.0237
     73  CD        -7.2820   21.2260   16.8060 C.3    61  PRO61       0.0939
     74  N         -6.2710   25.5810   15.3820 N.am   62  GLY62      -0.1941
     75  CA        -5.8200   26.2580   14.1770 C.3    62  GLY62       0.2014
     76  C         -6.7280   25.9330   13.0030 C.2    62  GLY62       0.2639
     77  O         -6.2720   25.5050   11.9400 O.2    62  GLY62      -0.2714
     78  N         -8.0270   26.1280   13.2020 N.am   63  CYS63      -0.1953
     79  CA        -9.0210   25.6590   12.2630 C.3    63  CYS63       0.1843
     80  C         -9.0630   26.4090   10.9410 C.2    63  CYS63       0.2626
     81  O         -9.6430   25.9170    9.9720 O.2    63  CYS63      -0.2714
     82  CB       -10.4260   25.6820   12.9000 C.3    63  CYS63       0.0997
     83  SG       -11.1370   27.3050   13.2480 S.3    63  CYS63      -0.0797
     84  N         -8.5240   27.6210   10.9090 N.am   64  GLY64      -0.1940
     85  CA        -8.5130   28.3990    9.6820 C.3    64  GLY64       0.2014
     86  C         -9.9150   28.6630    9.1660 C.2    64  GLY64       0.2639
     87  O        -10.7910   29.1150    9.9100 O.2    64  GLY64      -0.2714
     88  N        -10.1420   28.3480    7.8900 N.am   65  GLY65      -0.1954
     89  CA       -11.4360   28.5940    7.2460 C.3    65  GLY65       0.1869
     90  C        -12.5900   27.7240    7.7200 C.2    65  GLY65       0.2309
     91  O        -13.7230   27.9510    7.3370 O.2    65  GLY65      -0.2863
     92  N        -13.5250   24.4980    7.4460 N.3    67  HIS67      -0.1226
     93  CA       -14.2510   23.5270    6.6270 C.3    67  HIS67       0.1752
     94  C        -14.4510   22.2110    7.3840 C.2    67  HIS67       0.2596
     95  O        -15.5410   21.6330    7.3710 O.2    67  HIS67      -0.2718
     96  CB       -13.5040   23.2260    5.3220 C.3    67  HIS67       0.0759
     97  CG       -13.0020   24.4400    4.6070 C.ar   67  HIS67       0.0818
     98  ND1      -13.8430   25.3420    3.9950 N.ar   67  HIS67      -0.2268
     99  CD2      -11.7420   24.8860    4.3870 C.ar   67  HIS67       0.1154
    100  CE1      -13.1240   26.2950    3.4260 C.ar   67  HIS67       0.1986
    101  NE2      -11.8440   26.0450    3.6500 N.ar   67  HIS67      -0.2212
    102  N        -13.3900   21.7380    8.0330 N.am   68  ASP68      -0.1974
    103  CA       -13.4470   20.4620    8.7520 C.3    68  ASP68       0.1709
    104  C        -14.2880   20.5090   10.0220 C.2    68  ASP68       0.2293
    105  O        -14.9060   19.5080   10.3940 O.2    68  ASP68      -0.2864
    106  CB       -12.0390   19.9600    9.0500 C.3    68  ASP68       0.1436
    107  CG       -11.3350   19.4670    7.8080 C.2    68  ASP68       0.3671
    108  OD1      -12.0370   19.0800    6.8410 O.co2  68  ASP68      -0.2456
    109  OD2      -10.0910   19.4280    7.8030 O.co2  68  ASP68      -0.2456
    110  N        -10.8370   26.5160   16.7790 N.3    82  LEU82      -0.1231
    111  CA       -10.0010   27.5080   17.4520 C.3    82  LEU82       0.1693
    112  C         -9.0410   28.1420   16.4510 C.2    82  LEU82       0.2592
    113  O         -8.2660   27.4500   15.7830 O.2    82  LEU82      -0.2718
    114  CB        -9.1960   26.8750   18.6140 C.3    82  LEU82       0.0284
    115  CG        -9.3120   27.6160   19.9480 C.3    82  LEU82       0.0019
    116  CD1      -10.7140   27.4700   20.5000 C.3    82  LEU82       0.0001
    117  CD2       -8.2860   27.1150   20.9960 C.3    82  LEU82       0.0001
    118  N         -9.0930   29.4600   16.3490 N.am   83  ASP83      -0.1960
    119  CA        -8.1020   30.1750   15.5780 C.3    83  ASP83       0.1840
    120  C         -7.8370   31.5330   16.2080 C.2    83  ASP83       0.2622
    121  O         -8.7460   32.1530   16.7380 O.2    83  ASP83      -0.2715
    122  CB        -8.5590   30.3240   14.1290 C.3    83  ASP83       0.1450
    123  CG        -7.3870   30.4500   13.1660 C.2    83  ASP83       0.3671
    124  OD1       -6.7420   31.5310   13.1510 O.co2  83  ASP83      -0.2456
    125  OD2       -7.1080   29.4650   12.4510 O.co2  83  ASP83      -0.2456
    126  N         -6.5860   31.9810   16.1560 N.am   84  ILE84      -0.1963
    127  CA        -6.2200   33.3100   16.6490 C.3    84  ILE84       0.1727
    128  C         -6.4940   34.4590   15.6750 C.2    84  ILE84       0.2616
    129  O         -6.4040   35.6190   16.0710 O.2    84  ILE84      -0.2715
    130  CB        -4.7250   33.3850   17.0860 C.3    84  ILE84       0.0290
    131  CG1       -3.7620   33.0550   15.9280 C.3    84  ILE84       0.0022
    132  CG2       -4.4950   32.4920   18.3000 C.3    84  ILE84       0.0023
    133  CD1       -3.4150   34.2380   15.0460 C.3    84  ILE84       0.0001
    134  N         -6.8040   34.1560   14.4190 N.am   85  SER85      -0.1950
    135  CA        -7.0260   35.1880   13.3970 C.3    85  SER85       0.1924
    136  C         -8.4960   35.5840   13.3050 C.2    85  SER85       0.2314
    137  O         -9.3490   34.7720   12.9340 O.2    85  SER85      -0.2863
    138  CB        -6.5380   34.7120   12.0190 C.3    85  SER85       0.2116
    139  OG        -7.0360   35.5470   10.9740 O.3    85  SER85      -0.2180
    140  N         -9.2340   32.0520   20.0530 N.3   110  GLU110     -0.1231
    141  CA        -8.4310   31.6990   21.2130 C.3   110  GLU110      0.1699
    142  C         -7.1390   31.0140   20.7870 C.2   110  GLU110      0.2592
    143  O         -7.0450   30.4690   19.6990 O.2   110  GLU110     -0.2718
    144  CB        -9.2120   30.7230   22.0990 C.3   110  GLU110      0.0402
    145  CG       -10.2520   31.3730   22.9890 C.3   110  GLU110      0.1161
    146  CD        -9.6520   32.1160   24.1500 C.2   110  GLU110      0.3649
    147  OE1       -8.4220   32.0630   24.3410 O.co2 110  GLU110     -0.2457
    148  OE2      -10.4190   32.7490   24.8850 O.co2 110  GLU110     -0.2457
    149  N         -6.1640   31.0290   21.6880 N.am  111  ASP111     -0.1960
    150  CA        -4.8330   30.4840   21.4570 C.3   111  ASP111      0.1840
    151  C         -4.7930   29.0720   22.0380 C.2   111  ASP111      0.2622
    152  O         -4.9890   28.8880   23.2320 O.2   111  ASP111     -0.2715
    153  CB        -3.7990   31.3960   22.1330 C.3   111  ASP111      0.1450
    154  CG        -2.4900   30.6950   22.4450 C.2   111  ASP111      0.3671
    155  OD1       -2.0480   29.8550   21.6460 O.co2 111  ASP111     -0.2456
    156  OD2       -1.8880   31.0170   23.4970 O.co2 111  ASP111     -0.2456
    157  N         -4.5340   28.0900   21.1830 N.am  112  VAL112     -0.1963
    158  CA        -4.4620   26.6810   21.6040 C.3   112  VAL112      0.1727
    159  C         -3.5200   26.4250   22.7920 C.2   112  VAL112      0.2616
    160  O         -3.7980   25.5850   23.6580 O.2   112  VAL112     -0.2715
    161  CB        -4.0460   25.7730   20.4230 C.3   112  VAL112      0.0290
    162  CG1       -3.9350   24.2970   20.8730 C.3   112  VAL112      0.0023
    163  CG2       -5.0630   25.8830   19.2530 C.3   112  VAL112      0.0023
    164  N         -2.4100   27.1510   22.8460 N.am  113  PHE113     -0.1974
    165  CA        -1.4130   26.9400   23.8860 C.3   113  PHE113      0.1639
    166  C         -1.8330   27.3830   25.2800 C.2   113  PHE113      0.2290
    167  O         -1.2610   26.9040   26.2640 O.2   113  PHE113     -0.2864
    168  CB        -0.0860   27.6020   23.5020 C.3   113  PHE113      0.0560
    169  CG         0.5800   26.9700   22.3140 C.ar  113  PHE113     -0.0200
    170  CD1        1.4130   25.8800   22.4720 C.ar  113  PHE113     -0.0042
    171  CD2        0.3830   27.4800   21.0440 C.ar  113  PHE113     -0.0042
    172  CE1        2.0400   25.2960   21.3700 C.ar  113  PHE113     -0.0003
    173  CE2        0.9930   26.9040   19.9410 C.ar  113  PHE113     -0.0003
    174  CZ         1.8190   25.8170   20.0940 C.ar  113  PHE113     -0.0000
    175  N         -4.6050   19.0030   11.9510 N.3   127  TYR127     -0.1227
    176  CA        -4.1450   18.9070   10.5730 C.3   127  TYR127      0.1736
    177  C         -3.7330   20.2810   10.1180 C.2   127  TYR127      0.2595
    178  O         -4.5240   21.2340   10.1770 O.2   127  TYR127     -0.2718
    179  CB        -5.2570   18.3680    9.6700 C.3   127  TYR127      0.0548
    180  CG        -4.8930   18.1190    8.2080 C.ar  127  TYR127     -0.0200
    181  CD1       -3.6590   17.5670    7.8420 C.ar  127  TYR127     -0.0009
    182  CD2       -5.8230   18.3680    7.1960 C.ar  127  TYR127     -0.0009
    183  CE1       -3.3450   17.3090    6.5150 C.ar  127  TYR127      0.0417
    184  CE2       -5.5210   18.1210    5.8640 C.ar  127  TYR127      0.0417
    185  CZ        -4.2840   17.5770    5.5270 C.ar  127  TYR127      0.1957
    186  OH        -4.0020   17.3020    4.2090 O.3   127  TYR127     -0.2866
    187  N         -2.4840   20.3810    9.6820 N.am  128  VAL128     -0.1966
    188  CA        -1.8870   21.6550    9.2760 C.3   128  VAL128      0.1727
    189  C         -1.9050   22.6610   10.4290 C.2   128  VAL128      0.2616
    190  O         -2.0350   23.8670   10.2270 O.2   128  VAL128     -0.2715
    191  CB        -2.5600   22.2460    8.0000 C.3   128  VAL128      0.0290
    192  CG1       -1.6500   23.3060    7.3620 C.3   128  VAL128      0.0023
    193  CG2       -2.8690   21.1560    6.9890 C.3   128  VAL128      0.0023
    194  N         -1.7990   22.1740   11.6540 N.am  129  PHE129     -0.1974
    195  CA        -1.5200   23.0540   12.7620 C.3   129  PHE129      0.1639
    196  C         -0.1840   22.7310   13.4010 C.2   129  PHE129      0.2290
    197  O          0.6400   23.6230   13.5960 O.2   129  PHE129     -0.2864
    198  CB        -2.6370   23.0670   13.7870 C.3   129  PHE129      0.0560
    199  CG        -2.3750   24.0210   14.8890 C.ar  129  PHE129     -0.0200
    200  CD1       -2.2500   25.3780   14.6090 C.ar  129  PHE129     -0.0042
    201  CD2       -2.1650   23.5730   16.1850 C.ar  129  PHE129     -0.0042
    202  CE1       -1.9620   26.2790   15.6060 C.ar  129  PHE129     -0.0003
    203  CE2       -1.8860   24.4700   17.2050 C.ar  129  PHE129     -0.0003
    204  CZ        -1.7830   25.8360   16.9100 C.ar  129  PHE129     -0.0000
    205  N          2.4210   24.2890   11.4680 N.3   132  ALA132     -0.1231
    206  CA         2.2930   25.7440   11.3090 C.3   132  ALA132      0.1694
    207  C          3.0770   26.4840   12.3670 C.2   132  ALA132      0.2591
    208  O          3.6190   27.5680   12.1390 O.2   132  ALA132     -0.2718
    209  CB         0.8240   26.1350   11.4020 C.3   132  ALA132      0.0304
    210  N          3.1140   25.8880   13.5510 N.am  133  ILE133     -0.1980
    211  CA         3.7620   26.4910   14.7030 C.3   133  ILE133      0.1595
    212  C          5.2610   26.4150   14.5480 C.2   133  ILE133      0.2287
    213  O          5.7840   25.5620   13.8400 O.2   133  ILE133     -0.2864
    214  CB         3.3270   25.7990   16.0220 C.3   133  ILE133      0.0276
    215  CG1        3.8350   24.3490   16.0830 C.3   133  ILE133      0.0022
    216  CG2        1.8280   25.8990   16.1770 C.3   133  ILE133      0.0022
    217  CD1        3.3560   23.5560   17.3210 C.3   133  ILE133      0.0001
    218  N          7.8230   25.2490   19.5350 N.3   137  MET137     -0.1245
    219  CA         6.5510   25.1790   20.2300 C.3   137  MET137      0.1570
    220  C          6.0570   23.7110   20.3290 C.2   137  MET137      0.2261
    221  O          4.9990   23.4760   20.8940 O.2   137  MET137     -0.2867
    222  CB         5.4870   26.0130   19.5110 C.3   137  MET137      0.0387
    223  CG         5.8630   27.4690   19.1500 C.3   137  MET137      0.0595
    224  SD         5.6420   28.6220   20.4990 S.3   137  MET137     -0.1393
    225  CE         3.8630   28.8890   20.3960 C.3   137  MET137      0.0692
@<TRIPOS>BOND
     1    54    53    2
     2    53    52    1
     3    46    45    2
     4    52    55    1
     5    52    51    1
     6    55    56    1
     7    45    51   am
     8    45    44    1
     9    56    57    1
    10    58    57    2
    11    49    48   ar
    12    29    30    1
    13    57    59   am
    14    43    44    1
    15    43    31   am
    16    44    47    1
    17    47    48    1
    18    31    30    1
    19    31    32    2
    20    30    33    1
    21    48    50   ar
    22   100   101   ar
    23   100    98   ar
    24   101    99   ar
    25    98    97   ar
    26   186   185    1
    27    33    34    1
    28    99    97   ar
    29    97    96    1
    30    18    17    2
    31    34    36   ar
    32    34    35   ar
    33    39    36   ar
    34    39    41   ar
    35    36    38   ar
    36    96    93    1
    37    41    42   ar
    38    35    37   ar
    39   185   184   ar
    40   185   183   ar
    41    17    16    1
    42    27    25   ar
    43    27    28   ar
    44    38    37   ar
    45    38    40   ar
    46   184   182   ar
    47    42    40   ar
    48    25    22   ar
    49    28    26   ar
    50    16    15    1
    51    16    19    1
    52   183   181   ar
    53    93    94    1
    54    93    92    1
    55   108   107   ar
    56   193   191    1
    57    22    24   ar
    58    22    20   ar
    59    26    24   ar
    60   182   180   ar
    61    89    90    1
    62    89    88    1
    63    91    90    2
    64   192   191    1
    65    95    94    2
    66    94   102   am
    67    19    20    1
    68    24    23   ar
    69    20    21   ar
    70   109   107   ar
    71   107   106    1
    72   181   180   ar
    73    88    86   am
    74   191   188    1
    75   102   103    1
    76   180   179    1
    77    23    21   ar
    78    13    14   ar
    79    13    11   ar
    80   103   106    1
    81   103   104    1
    82     4     3    2
    83    86    85    1
    84    86    87    2
    85    14    12   ar
    86   188   187    1
    87   188   189    1
    88    11     8   ar
    89   179   176    1
    90   187   177   am
    91    85    84    1
    92    81    80    2
    93   104   105    2
    94     3     2    1
    95   177   178    2
    96   177   176    1
    97   190   189    2
    98   189   194   am
    99     2     1    1
   100     2     5    1
   101    12    10   ar
   102   176   175    1
   103     8    10   ar
   104     8     6   ar
   105    84    80   am
   106    80    79    1
   107   139   138    1
   108    10     9   ar
   109   206   209    1
   110   206   205    1
   111   206   207    1
   112     5     6    1
   113     6     7   ar
   114   194   195    1
   115    77    76    2
   116   138   135    1
   117   208   207    2
   118    79    82    1
   119    79    78    1
   120   207   210   am
   121     9     7   ar
   122   125   123   ar
   123   195   196    1
   124   195   198    1
   125    82    83    1
   126   137   136    2
   127    76    78   am
   128    76    75    1
   129   124   123   ar
   130   123   122    1
   131    65    64    1
   132   136   135    1
   133   135   134    1
   134   196   197    2
   135   210   211    1
   136   198   199    1
   137   213   212    2
   138   122   119    1
   139    75    74    1
   140    66    64    1
   141   134   128   am
   142    70    69    2
   143    64    61    1
   144   212   211    1
   145   200   199   ar
   146   200   202   ar
   147   211   214    1
   148   199   201   ar
   149   133   131    1
   150    74    69   am
   151    69    68    1
   152   119   120    1
   153   119   118    1
   154   202   204   ar
   155   128   129    2
   156   128   127    1
   157    61    62    1
   158    61    60    1
   159    63    62    2
   160   113   112    2
   161   131   130    1
   162    62    67   am
   163   214   215    1
   164   214   216    1
   165   215   217    1
   166   126   120   am
   167   126   127    1
   168   201   203   ar
   169   120   121    2
   170   118   112   am
   171   112   111    1
   172    67    68    1
   173    67    73    1
   174   127   130    1
   175    68    71    1
   176   110   111    1
   177    73    72    1
   178   204   203   ar
   179    72    71    1
   180   130   132    1
   181   111   114    1
   182   114   115    1
   183   223   222    1
   184   223   224    1
   185   163   161    1
   186   222   219    1
   187   218   219    1
   188   143   142    2
   189   173   174   ar
   190   173   171   ar
   191   115   116    1
   192   115   117    1
   193   140   141    1
   194   174   172   ar
   195   219   220    1
   196   220   221    2
   197   225   224    1
   198   161   162    1
   199   161   158    1
   200   142   141    1
   201   142   149   am
   202   171   169   ar
   203   157   158    1
   204   157   151   am
   205   141   144    1
   206   172   170   ar
   207   150   149    1
   208   150   151    1
   209   150   153    1
   210   158   159    1
   211   155   154   ar
   212   151   152    2
   213   144   145    1
   214   153   154    1
   215   169   170   ar
   216   169   168    1
   217   154   156   ar
   218   159   164   am
   219   159   160    2
   220   164   165    1
   221   145   146    1
   222   168   165    1
   223   165   166    1
   224   146   147   ar
   225   146   148   ar
   226   166   167    2
