@<TRIPOS>MOLECULE
tmp/3lcdA00.pdb
 162 153 0 0 0
SMALL
GASTEIGER

@<TRIPOS>ATOM
      1  N        -25.0090    4.0650  -28.7000 N.3    29  LYS29      -0.1245
      2  CA       -26.3180    3.6960  -28.1830 C.3    29  LYS29       0.1561
      3  C        -26.5080    4.2610  -26.7810 C.2    29  LYS29       0.2260
      4  O        -25.5360    4.5740  -26.0970 O.2    29  LYS29      -0.2867
      5  CB       -26.4810    2.1700  -28.1990 C.3    29  LYS29       0.0271
      6  CG       -25.6190    1.4220  -27.1910 C.3    29  LYS29       0.0035
      7  CD       -25.6500   -0.0810  -27.4410 C.3    29  LYS29       0.0206
      8  CE       -25.1390   -0.8630  -26.2190 C.3    29  LYS29       0.1093
      9  NZ       -23.6880   -0.6370  -25.9000 N.3    29  LYS29      -0.1314
     10  N        -27.0630    4.1590  -22.9620 N.3    31  LEU31      -0.1231
     11  CA       -26.7510    3.2530  -21.8620 C.3    31  LEU31       0.1693
     12  C        -27.8040    3.3490  -20.7480 C.2    31  LEU31       0.2592
     13  O        -28.1840    2.3450  -20.1650 O.2    31  LEU31      -0.2718
     14  CB       -25.3560    3.5600  -21.3050 C.3    31  LEU31       0.0284
     15  CG       -24.1530    3.3140  -22.2310 C.3    31  LEU31       0.0019
     16  CD1      -22.8750    3.7500  -21.5530 C.3    31  LEU31       0.0001
     17  CD2      -24.0520    1.8430  -22.6730 C.3    31  LEU31       0.0001
     18  N        -28.2560    4.5670  -20.4570 N.am   32  GLY32      -0.1957
     19  CA       -29.3140    4.8080  -19.4700 C.3    32  GLY32       0.1869
     20  C        -29.9180    6.1960  -19.6230 C.2    32  GLY32       0.2309
     21  O        -29.2500    7.0980  -20.1080 O.2    32  GLY32      -0.2863
     22  N        -27.2680    8.9760  -20.6100 N.3    39  VAL39      -0.1245
     23  CA       -25.8700    8.6240  -20.7790 C.3    39  VAL39       0.1561
     24  C        -25.7620    7.7080  -21.9960 C.2    39  VAL39       0.2260
     25  O        -26.4460    6.6880  -22.0890 O.2    39  VAL39      -0.2867
     26  CB       -25.2860    7.9410  -19.5320 C.3    39  VAL39       0.0252
     27  CG1      -23.8360    7.5590  -19.7740 C.3    39  VAL39       0.0019
     28  CG2      -25.4070    8.8580  -18.3270 C.3    39  VAL39       0.0019
     29  N        -18.1710    6.8660  -22.0150 N.3    57  ALA57      -0.1245
     30  CA       -19.5710    7.1370  -21.6820 C.3    57  ALA57       0.1562
     31  C        -19.7230    8.6380  -21.5230 C.2    57  ALA57       0.2260
     32  O        -18.8510    9.2820  -20.9520 O.2    57  ALA57      -0.2867
     33  CB       -19.9770    6.4160  -20.3780 C.3    57  ALA57       0.0290
     34  N        -15.9090    5.6030  -11.1470 N.3    90  VAL90      -0.1245
     35  CA       -16.0450    5.8540  -12.5630 C.3    90  VAL90       0.1561
     36  C        -15.5020    7.2520  -12.7720 C.2    90  VAL90       0.2260
     37  O        -16.1990    8.2280  -12.6090 O.2    90  VAL90      -0.2867
     38  CB       -17.5050    5.7350  -13.0360 C.3    90  VAL90       0.0252
     39  CG1      -17.6510    6.2510  -14.4550 C.3    90  VAL90       0.0019
     40  CG2      -17.9720    4.2950  -12.9180 C.3    90  VAL90       0.0019
     41  N        -16.8870   10.1260  -19.1940 N.3   106  THR106     -0.1203
     42  CA       -16.3490    9.2880  -18.1180 C.3   106  THR106      0.1994
     43  C        -15.9500    7.9180  -18.6560 C.2   106  THR106      0.2618
     44  O        -16.2800    7.5760  -19.7930 O.2   106  THR106     -0.2717
     45  CB       -17.3640    9.1090  -16.9930 C.3   106  THR106      0.1784
     46  OG1      -18.5580    8.5320  -17.5280 O.3   106  THR106     -0.2211
     47  CG2      -17.6980   10.4290  -16.3510 C.3   106  THR106      0.0376
     48  N        -15.2240    7.1550  -17.8460 N.am  107  GLU107     -0.1965
     49  CA       -14.7750    5.8170  -18.2300 C.3   107  GLU107      0.1733
     50  C        -15.9710    5.0000  -18.6190 C.2   107  GLU107      0.2616
     51  O        -16.9920    5.0730  -17.9360 O.2   107  GLU107     -0.2715
     52  CB       -14.1230    5.0910  -17.0540 C.3   107  GLU107      0.0429
     53  CG       -12.7290    5.5550  -16.7170 C.3   107  GLU107      0.1163
     54  CD       -12.2450    4.9880  -15.3960 C.2   107  GLU107      0.3649
     55  OE1      -13.0560    4.9360  -14.4450 O.co2 107  GLU107     -0.2457
     56  OE2      -11.0480    4.6150  -15.3060 O.co2 107  GLU107     -0.2457
     57  N        -15.8460    4.2360  -19.7050 N.am  108  TYR108     -0.1960
     58  CA       -16.8480    3.2270  -20.0720 C.3   108  TYR108      0.1771
     59  C        -16.5040    1.8990  -19.3940 C.2   108  TYR108      0.2620
     60  O        -15.3890    1.4060  -19.5440 O.2   108  TYR108     -0.2715
     61  CB       -16.9220    3.0320  -21.5930 C.3   108  TYR108      0.0574
     62  CG       -17.8730    1.9340  -22.0130 C.ar  108  TYR108     -0.0198
     63  CD1      -19.2480    2.1140  -21.9520 C.ar  108  TYR108     -0.0009
     64  CD2      -17.4030    0.7080  -22.4560 C.ar  108  TYR108     -0.0009
     65  CE1      -20.1300    1.0920  -22.3200 C.ar  108  TYR108      0.0417
     66  CE2      -18.2710   -0.3090  -22.8430 C.ar  108  TYR108      0.0417
     67  CZ       -19.6310   -0.1140  -22.7710 C.ar  108  TYR108      0.1957
     68  OH       -20.4890   -1.1310  -23.1330 O.3   108  TYR108     -0.2866
     69  N        -17.4680    1.3360  -18.6630 N.am  109  CYS109     -0.1954
     70  CA       -17.3190    0.0630  -17.9400 C.3   109  CYS109      0.1843
     71  C        -18.1260   -1.0330  -18.6470 C.2   109  CYS109      0.2626
     72  O        -19.3510   -1.0690  -18.5460 O.2   109  CYS109     -0.2714
     73  CB       -17.8200    0.2260  -16.5070 C.3   109  CYS109      0.0997
     74  SG       -17.0480    1.5890  -15.5580 S.3   109  CYS109     -0.0797
     75  N        -17.4450   -1.9370  -19.3450 N.am  110  CYS110     -0.1954
     76  CA       -18.1040   -2.7880  -20.3500 C.3   110  CYS110      0.1843
     77  C        -19.1560   -3.7850  -19.8490 C.2   110  CYS110      0.2625
     78  O        -20.0010   -4.2100  -20.6210 O.2   110  CYS110     -0.2714
     79  CB       -17.0550   -3.5370  -21.1750 C.3   110  CYS110      0.0997
     80  SG       -15.9760   -4.5510  -20.1810 S.3   110  CYS110     -0.0797
     81  N        -19.1120   -4.1730  -18.5840 N.am  111  TYR111     -0.1960
     82  CA       -20.0370   -5.1930  -18.0830 C.3   111  TYR111      0.1771
     83  C        -21.2930   -4.6010  -17.4360 C.2   111  TYR111      0.2620
     84  O        -22.1620   -5.3400  -16.9680 O.2   111  TYR111     -0.2715
     85  CB       -19.3200   -6.1530  -17.1220 C.3   111  TYR111      0.0574
     86  CG       -18.1660   -6.8900  -17.7710 C.ar  111  TYR111     -0.0198
     87  CD1      -16.8510   -6.6440  -17.3850 C.ar  111  TYR111     -0.0009
     88  CD2      -18.3850   -7.8100  -18.7880 C.ar  111  TYR111     -0.0009
     89  CE1      -15.7850   -7.3030  -17.9890 C.ar  111  TYR111      0.0417
     90  CE2      -17.3240   -8.4780  -19.4020 C.ar  111  TYR111      0.0417
     91  CZ       -16.0280   -8.2210  -18.9920 C.ar  111  TYR111      0.1957
     92  OH       -14.9760   -8.8810  -19.5870 O.3   111  TYR111     -0.2866
     93  N        -21.3990   -3.2760  -17.4330 N.am  112  GLY112     -0.1940
     94  CA       -22.6170   -2.5990  -16.9990 C.3   112  GLY112      0.2014
     95  C        -22.7280   -2.5640  -15.4920 C.2   112  GLY112      0.2638
     96  O        -21.7250   -2.6980  -14.7970 O.2   112  GLY112     -0.2714
     97  N        -23.9550   -2.4030  -14.9940 N.am  113  ASP113     -0.1971
     98  CA       -24.2000   -2.2640  -13.5590 C.3   113  ASP113      0.1709
     99  C        -24.1680   -3.5820  -12.8050 C.2   113  ASP113      0.2293
    100  O        -24.5130   -4.6290  -13.3430 O.2   113  ASP113     -0.2864
    101  CB       -25.5260   -1.5550  -13.2810 C.3   113  ASP113      0.1436
    102  CG       -26.7210   -2.3690  -13.7120 C.2   113  ASP113      0.3671
    103  OD1      -26.8980   -2.5650  -14.9450 O.co2 113  ASP113     -0.2456
    104  OD2      -27.4890   -2.7960  -12.8180 O.co2 113  ASP113     -0.2456
    105  N        -27.8180   -5.7360  -12.2060 N.3   116  ASN116     -0.1240
    106  CA       -28.2120   -6.5850  -13.3220 C.3   116  ASN116      0.1653
    107  C        -27.2650   -7.7620  -13.4860 C.2   116  ASN116      0.2266
    108  O        -27.6920   -8.8630  -13.8200 O.2   116  ASN116     -0.2867
    109  CB       -28.2730   -5.7890  -14.6280 C.3   116  ASN116      0.1155
    110  CG       -29.5460   -4.9850  -14.7570 C.2   116  ASN116      0.2627
    111  OD1      -30.6400   -5.5380  -14.8950 O.2   116  ASN116     -0.2716
    112  ND2      -29.4110   -3.6710  -14.7270 N.am  116  ASN116     -0.0877
    113  N        -28.5180  -11.6330  -13.4770 N.3   120  ARG120     -0.1245
    114  CA       -28.2760  -12.5670  -14.5970 C.3   120  ARG120      0.1563
    115  C        -27.6610  -13.8670  -14.1050 C.2   120  ARG120      0.2260
    116  O        -28.0170  -14.9310  -14.5780 O.2   120  ARG120     -0.2867
    117  CB       -27.3340  -11.9830  -15.6680 C.3   120  ARG120      0.0307
    118  CG       -27.8030  -10.7070  -16.3770 C.3   120  ARG120      0.0489
    119  CD       -28.9550  -10.9080  -17.3770 C.3   120  ARG120      0.2205
    120  NE       -30.2750  -10.6990  -16.7700 N.pl3 120  ARG120     -0.0865
    121  CZ       -30.7490   -9.5270  -16.3370 C.cat 120  ARG120      0.5346
    122  NH1      -30.0200   -8.4110  -16.4140 N.pl3 120  ARG120      0.1354
    123  NH2      -31.9650   -9.4700  -15.8020 N.pl3 120  ARG120      0.1354
    124  N        -27.3530   -0.7750   -8.2740 N.3   161  ARG161     -0.1231
    125  CA       -27.6950   -0.2350   -9.5920 C.3   161  ARG161      0.1694
    126  C        -26.7410    0.8590  -10.0920 C.2   161  ARG161      0.2592
    127  O        -26.7150    1.1430  -11.2890 O.2   161  ARG161     -0.2718
    128  CB       -29.1390    0.3120   -9.6030 C.3   161  ARG161      0.0321
    129  CG       -29.3070    1.6180   -8.8550 C.3   161  ARG161      0.0489
    130  CD       -30.7140    2.2150   -8.8940 C.3   161  ARG161      0.2205
    131  NE       -30.7560    3.2680   -7.8830 N.pl3 161  ARG161     -0.0865
    132  CZ       -31.0300    3.0780   -6.5950 C.cat 161  ARG161      0.5346
    133  NH1      -31.3720    1.8850   -6.1320 N.pl3 161  ARG161      0.1354
    134  NH2      -30.9750    4.0960   -5.7560 N.pl3 161  ARG161      0.1354
    135  N        -25.9950    1.4780   -9.1740 N.am  162  ASN162     -0.1974
    136  CA       -25.0390    2.5590   -9.4800 C.3   162  ASN162      0.1688
    137  C        -23.5730    2.1150   -9.3690 C.2   162  ASN162      0.2292
    138  O        -22.6500    2.9300   -9.5290 O.2   162  ASN162     -0.2864
    139  CB       -25.2750    3.7560   -8.5520 C.3   162  ASN162      0.1181
    140  CG       -26.4870    4.5680   -8.9410 C.2   162  ASN162      0.2629
    141  OD1      -26.8470    4.6350  -10.1040 O.2   162  ASN162     -0.2716
    142  ND2      -27.1220    5.1980   -7.9610 N.am  162  ASN162     -0.0877
    143  N        -20.7900   -0.1690  -11.1940 N.3   164  LEU164     -0.1245
    144  CA       -20.5610   -0.6090  -12.5720 C.3   164  LEU164      0.1561
    145  C        -19.3580   -1.5360  -12.5700 C.2   164  LEU164      0.2260
    146  O        -18.4870   -1.4000  -11.7090 O.2   164  LEU164     -0.2867
    147  CB       -20.2730    0.6050  -13.4670 C.3   164  LEU164      0.0270
    148  CG       -21.3630    1.1460  -14.3830 C.3   164  LEU164      0.0019
    149  CD1      -22.7490    0.9910  -13.7710 C.3   164  LEU164      0.0001
    150  CD2      -21.0620    2.6070  -14.7690 C.3   164  LEU164      0.0001
    151  N        -20.3800    4.7090   -9.5640 N.3   174  GLY174     -0.1210
    152  CA       -20.7350    5.6690  -10.6090 C.3   174  GLY174      0.1956
    153  C        -21.9210    6.5040  -10.1750 C.2   174  GLY174      0.2611
    154  O        -22.3550    6.4250   -9.0090 O.2   174  GLY174     -0.2717
    155  N        -22.4120    7.3180  -11.1130 N.am  175  ASP175     -0.1973
    156  CA       -23.6070    8.1510  -10.9330 C.3   175  ASP175      0.1709
    157  C        -23.5020    9.1370   -9.7640 C.2   175  ASP175      0.2293
    158  O        -23.9630    8.8610   -8.6660 O.2   175  ASP175     -0.2864
    159  CB       -24.8580    7.2710  -10.7810 C.3   175  ASP175      0.1436
    160  CG       -26.1560    8.0610  -10.8830 C.2   175  ASP175      0.3671
    161  OD1      -26.1180    9.2820  -11.1730 O.co2 175  ASP175     -0.2456
    162  OD2      -27.2270    7.4500  -10.6730 O.co2 175  ASP175     -0.2456
@<TRIPOS>BOND
     1     1     2    1
     2     5     2    1
     3     5     6    1
     4     2     3    1
     5     7     6    1
     6     7     8    1
     7     3     4    2
     8     8     9    1
     9    68    67    1
    10    10    11    1
    11    66    67   ar
    12    66    64   ar
    13    67    65   ar
    14    17    15    1
    15    64    62   ar
    16    65    63   ar
    17    15    16    1
    18    15    14    1
    19    25    24    2
    20    29    30    1
    21    62    63   ar
    22    62    61    1
    23    24    23    1
    24    11    14    1
    25    11    12    1
    26    30    31    1
    27    30    33    1
    28    61    58    1
    29    31    32    2
    30    79    76    1
    31    79    80    1
    32    23    22    1
    33    23    26    1
    34    12    18   am
    35    12    13    2
    36    78    77    2
    37    18    19    1
    38    76    77    1
    39    76    75    1
    40    21    20    2
    41    58    57    1
    42    58    59    1
    43    77    81   am
    44    44    43    2
    45    27    26    1
    46    57    50   am
    47    20    19    1
    48    92    91    1
    49    60    59    2
    50    26    28    1
    51    90    91   ar
    52    90    88   ar
    53    59    69   am
    54    75    71   am
    55    41    42    1
    56    91    89   ar
    57    88    86   ar
    58    69    70    1
    59    43    42    1
    60    43    48   am
    61    71    72    2
    62    71    70    1
    63    50    49    1
    64    50    51    2
    65    81    82    1
    66    49    48    1
    67    49    52    1
    68    42    45    1
    69    82    83    1
    70    82    85    1
    71    89    87   ar
    72    70    73    1
    73    86    87   ar
    74    86    85    1
    75    46    45    1
    76    83    93   am
    77    83    84    2
    78    93    94    1
    79   119   120    1
    80   119   118    1
    81    52    53    1
    82    94    95    1
    83    45    47    1
    84   120   121    2
    85    53    54    1
    86    73    74    1
    87   122   121    1
    88   118   117    1
    89   121   123    1
    90   117   114    1
    91    95    97   am
    92    95    96    2
    93    54    56   ar
    94    54    55   ar
    95    97    98    1
    96   103   102   ar
    97   111   110    2
    98   150   148    1
    99   110   112   am
   100   110   109    1
   101   109   106    1
   102   114   115    1
   103   114   113    1
   104   116   115    2
   105    39    38    1
   106   148   149    1
   107   148   147    1
   108   108   107    2
   109   102   101    1
   110   102   104   ar
   111    98   101    1
   112    98    99    1
   113   107   106    1
   114   147   144    1
   115   100    99    2
   116   106   105    1
   117    38    40    1
   118    38    35    1
   119    36    37    2
   120    36    35    1
   121   144   145    1
   122   144   143    1
   123   145   146    2
   124    35    34    1
   125   127   126    2
   126   161   160   ar
   127   155   156    1
   128   155   153   am
   129   156   159    1
   130   156   157    1
   131   160   159    1
   132   160   162   ar
   133   152   153    1
   134   152   151    1
   135   153   154    2
   136   141   140    2
   137   126   125    1
   138   126   135   am
   139   157   158    2
   140   128   125    1
   141   128   129    1
   142   125   124    1
   143   138   137    2
   144   136   137    1
   145   136   135    1
   146   136   139    1
   147   140   139    1
   148   140   142   am
   149   130   129    1
   150   130   131    1
   151   131   132    2
   152   132   133    1
   153   132   134    1
