@<TRIPOS>MOLECULE
tmp/3lceB00.pdb
 121 115 0 0 0
SMALL
GASTEIGER

@<TRIPOS>ATOM
      1  N        -24.3100   19.8980  -19.4940 N.3    46  ALA46      -0.1231
      2  CA       -23.0480   20.4930  -19.9710 C.3    46  ALA46       0.1694
      3  C        -21.8850   19.6180  -19.4920 C.2    46  ALA46       0.2592
      4  O        -21.9450   18.3750  -19.6250 O.2    46  ALA46      -0.2718
      5  CB       -22.9500   21.9770  -19.4810 C.3    46  ALA46       0.0304
      6  N        -20.8440   20.1950  -18.9090 N.am   47  SER47      -0.1952
      7  CA       -19.6770   19.3560  -18.5790 C.3    47  SER47       0.1924
      8  C        -19.8250   18.3420  -17.4360 C.2    47  SER47       0.2314
      9  O        -18.9480   17.4960  -17.2450 O.2    47  SER47      -0.2863
     10  CB       -18.3980   20.1790  -18.4400 C.3    47  SER47       0.2116
     11  OG       -17.9950   20.6340  -19.7290 O.3    47  SER47      -0.2180
     12  N        -10.0960   27.0290  -25.7160 N.3    78  MET78      -0.1245
     13  CA        -9.5380   27.5230  -24.4580 C.3    78  MET78       0.1570
     14  C         -8.1020   27.1470  -24.4000 C.2    78  MET78       0.2261
     15  O         -7.7430   26.0370  -24.7290 O.2    78  MET78      -0.2867
     16  CB       -10.2490   26.9880  -23.2160 C.3    78  MET78       0.0387
     17  CG       -11.7440   26.9780  -23.3190 C.3    78  MET78       0.0595
     18  SD       -12.5160   27.2720  -21.7100 S.3    78  MET78      -0.1393
     19  CE       -11.3420   26.5260  -20.5790 C.3    78  MET78       0.0692
     20  N         -6.3150   26.4780  -21.8890 N.3    80  GLN80      -0.1231
     21  CA        -5.9320   25.3810  -21.0020 C.3    80  GLN80       0.1698
     22  C         -6.1300   24.0430  -21.6680 C.2    80  GLN80       0.2592
     23  O         -5.6720   23.0510  -21.1400 O.2    80  GLN80      -0.2718
     24  CB        -6.7020   25.3880  -19.6890 C.3    80  GLN80       0.0381
     25  CG        -8.1730   25.4180  -19.8670 C.3    80  GLN80       0.0905
     26  CD        -8.8550   26.0080  -18.6390 C.2    80  GLN80       0.2608
     27  OE1       -9.9350   26.6160  -18.7380 O.2    80  GLN80      -0.2717
     28  NE2       -8.2100   25.8460  -17.4670 N.am   80  GLN80      -0.0878
     29  N         -6.7920   24.0110  -22.8350 N.am   81  TRP81      -0.1976
     30  CA        -6.9950   22.7300  -23.5230 C.3    81  TRP81       0.1640
     31  C         -5.9060   22.4760  -24.5420 C.2    81  TRP81       0.2290
     32  O         -5.8690   21.4270  -25.1570 O.2    81  TRP81      -0.2864
     33  CB        -8.3540   22.7090  -24.2630 C.3    81  TRP81       0.0576
     34  CG        -9.5310   22.9250  -23.3920 C.ar   81  TRP81       0.0006
     35  CD1       -9.5590   22.8630  -22.0160 C.ar   81  TRP81       0.0946
     36  CD2      -10.8600   23.2870  -23.8120 C.ar   81  TRP81       0.0152
     37  NE1      -10.8270   23.1300  -21.5740 N.ar   81  TRP81      -0.2442
     38  CE2      -11.6430   23.4110  -22.6400 C.ar   81  TRP81       0.0810
     39  CE3      -11.4540   23.5300  -25.0640 C.ar   81  TRP81       0.0012
     40  CZ2      -13.0090   23.7470  -22.6740 C.ar   81  TRP81       0.0191
     41  CZ3      -12.8200   23.8840  -25.1120 C.ar   81  TRP81       0.0001
     42  CH2      -13.5760   23.9920  -23.9150 C.ar   81  TRP81       0.0015
     43  N        -10.0280   19.8730  -16.4270 N.3    93  VAL93      -0.1231
     44  CA       -10.0020   21.1750  -17.1000 C.3    93  VAL93       0.1692
     45  C        -11.2110   21.2530  -18.0640 C.2    93  VAL93       0.2592
     46  O        -11.3580   22.2320  -18.8000 O.2    93  VAL93      -0.2718
     47  CB        -8.6450   21.4590  -17.8350 C.3    93  VAL93       0.0266
     48  CG1       -7.4250   21.3440  -16.8610 C.3    93  VAL93       0.0020
     49  CG2       -8.4430   20.5570  -19.0930 C.3    93  VAL93       0.0020
     50  N        -12.0960   20.2360  -18.0200 N.am   94  SER94      -0.1952
     51  CA       -13.2990   20.2160  -18.8400 C.3    94  SER94       0.1924
     52  C        -13.0110   20.4220  -20.3330 C.2    94  SER94       0.2314
     53  O        -13.6370   21.2450  -21.0000 O.2    94  SER94      -0.2863
     54  CB       -14.3520   21.2740  -18.4010 C.3    94  SER94       0.2116
     55  OG       -14.7850   21.1100  -17.0520 O.3    94  SER94      -0.2180
     56  N        -13.7190   19.9860  -23.5450 N.3    96  VAL96      -0.1245
     57  CA       -14.7760   19.6020  -24.4640 C.3    96  VAL96       0.1561
     58  C        -14.3480   18.7810  -25.7170 C.2    96  VAL96       0.2260
     59  O        -14.9030   17.7250  -25.9810 O.2    96  VAL96      -0.2867
     60  CB       -15.5560   20.8420  -24.8680 C.3    96  VAL96       0.0252
     61  CG1      -16.6860   20.4720  -25.8630 C.3    96  VAL96       0.0019
     62  CG2      -16.1410   21.5260  -23.5920 C.3    96  VAL96       0.0019
     63  N        -24.5290   19.5520  -24.5940 N.3   134  LEU134     -0.1245
     64  CA       -24.0300   20.9540  -24.5480 C.3   134  LEU134      0.1561
     65  C        -25.0580   21.8990  -25.0830 C.2   134  LEU134      0.2260
     66  O        -25.2430   23.0050  -24.5840 O.2   134  LEU134     -0.2867
     67  CB       -22.7900   21.0760  -25.4390 C.3   134  LEU134      0.0270
     68  CG       -21.5570   20.3060  -24.9510 C.3   134  LEU134      0.0019
     69  CD1      -20.5420   20.0980  -26.0850 C.3   134  LEU134      0.0001
     70  CD2      -20.9700   21.0960  -23.8080 C.3   134  LEU134      0.0001
     71  N        -17.7590   20.4670  -12.2900 N.3   185  THR185     -0.1203
     72  CA       -18.5550   21.6330  -12.6270 C.3   185  THR185      0.1994
     73  C        -19.1310   21.4300  -14.0490 C.2   185  THR185      0.2618
     74  O        -18.6760   20.5490  -14.8130 O.2   185  THR185     -0.2717
     75  CB       -17.6420   22.9120  -12.6570 C.3   185  THR185      0.1784
     76  OG1      -16.5310   22.6620  -13.5220 O.3   185  THR185     -0.2211
     77  CG2      -17.0640   23.2410  -11.2870 C.3   185  THR185      0.0376
     78  N        -20.1250   22.2330  -14.3950 N.am  186  GLY186     -0.1942
     79  CA       -20.6610   22.2480  -15.7590 C.3   186  GLY186      0.2014
     80  C        -21.0690   23.6990  -15.9740 C.2   186  GLY186      0.2639
     81  O        -21.3670   24.3990  -15.0340 O.2   186  GLY186     -0.2714
     82  N        -21.0620   24.1520  -17.2230 N.am  187  PHE187     -0.1959
     83  CA       -21.5410   25.5000  -17.5540 C.3   187  PHE187      0.1771
     84  C        -21.9720   25.4380  -19.0350 C.2   187  PHE187      0.2620
     85  O        -21.1620   25.1580  -19.8640 O.2   187  PHE187     -0.2715
     86  CB       -20.4080   26.4940  -17.2800 C.3   187  PHE187      0.0574
     87  CG       -20.5850   27.8750  -17.8940 C.ar  187  PHE187     -0.0200
     88  CD1      -21.7130   28.6510  -17.6360 C.ar  187  PHE187     -0.0042
     89  CD2      -19.5680   28.4190  -18.6820 C.ar  187  PHE187     -0.0042
     90  CE1      -21.8750   29.9360  -18.1610 C.ar  187  PHE187     -0.0003
     91  CE2      -19.7110   29.7260  -19.2440 C.ar  187  PHE187     -0.0003
     92  CZ       -20.8830   30.4920  -18.9730 C.ar  187  PHE187     -0.0000
     93  N        -23.2500   25.6460  -19.3560 N.am  188  SER188     -0.1936
     94  CA       -23.6840   25.4980  -20.7610 C.3   188  SER188      0.2055
     95  C        -23.4540   26.7710  -21.5830 C.2   188  SER188      0.2643
     96  O        -23.5160   26.7290  -22.8090 O.2   188  SER188     -0.2714
     97  CB       -25.1820   25.1550  -20.8380 C.3   188  SER188      0.2130
     98  OG       -25.9410   26.2320  -20.2570 O.3   188  SER188     -0.2179
     99  N        -23.2330   27.9020  -20.9360 N.am  189  GLY189     -0.1954
    100  CA       -23.0600   29.1800  -21.6680 C.3   189  GLY189      0.1869
    101  C        -23.9610   30.1840  -20.9630 C.2   189  GLY189      0.2309
    102  O        -24.6220   29.8330  -19.9780 O.2   189  GLY189     -0.2863
    103  N        -20.0580   32.7930  -12.5680 N.3   226  LEU226     -0.1245
    104  CA       -19.6050   31.4130  -12.5160 C.3   226  LEU226      0.1561
    105  C        -19.2160   30.8940  -11.1310 C.2   226  LEU226      0.2260
    106  O        -19.6000   29.8060  -10.7630 O.2   226  LEU226     -0.2867
    107  CB       -18.4240   31.1670  -13.4470 C.3   226  LEU226      0.0270
    108  CG       -18.6050   30.5440  -14.8270 C.3   226  LEU226      0.0019
    109  CD1      -17.2470   30.3760  -15.5020 C.3   226  LEU226      0.0001
    110  CD2      -19.4050   29.2510  -14.8080 C.3   226  LEU226      0.0001
    111  N        -21.3690   28.9410   -8.4200 N.3   229  ARG229     -0.1245
    112  CA       -21.7860   27.5360   -8.5420 C.3   229  ARG229      0.1563
    113  C        -21.0440   26.6900   -7.5540 C.2   229  ARG229      0.2260
    114  O        -21.5360   25.6260   -7.1330 O.2   229  ARG229     -0.2867
    115  CB       -21.5750   27.0000   -9.9610 C.3   229  ARG229      0.0307
    116  CG       -20.1170   26.6340  -10.2760 C.3   229  ARG229      0.0489
    117  CD       -19.9620   26.4300  -11.8020 C.3   229  ARG229      0.2205
    118  NE       -18.5370   26.4540  -12.1750 N.pl3 229  ARG229     -0.0865
    119  CZ       -18.0520   26.2400  -13.3980 C.cat 229  ARG229      0.5346
    120  NH1      -18.8780   25.9040  -14.3980 N.pl3 229  ARG229      0.1354
    121  NH2      -16.7240   26.3290  -13.6110 N.pl3 229  ARG229      0.1354
@<TRIPOS>BOND
     1    69    68    1
     2    59    58    2
     3    61    60    1
     4    58    57    1
     5    12    13    1
     6    67    68    1
     7    67    64    1
     8    32    31    2
     9    41    39   ar
    10    41    42   ar
    11    65    66    2
    12    65    64    1
    13    39    36   ar
    14    68    70    1
    15    60    57    1
    16    60    62    1
    17    15    14    2
    18    63    64    1
    19    31    30    1
    20    57    56    1
    21    13    14    1
    22    13    16    1
    23    33    30    1
    24    33    34    1
    25    42    40   ar
    26    36    34   ar
    27    36    38   ar
    28    30    29    1
    29    34    35   ar
    30    17    16    1
    31    17    18    1
    32    29    22   am
    33    96    95    2
    34    40    38   ar
    35    38    37   ar
    36    35    37   ar
    37    20    21    1
    38    18    19    1
    39    22    23    2
    40    22    21    1
    41   100   101    1
    42   100    99    1
    43    95    99   am
    44    95    94    1
    45    21    24    1
    46    53    52    2
    47   101   102    2
    48    97    94    1
    49    97    98    1
    50    94    93    1
    51    52    51    1
    52     2     1    1
    53     2     3    1
    54     2     5    1
    55    25    24    1
    56    25    26    1
    57    85    84    2
    58    11    10    1
    59     4     3    2
    60     3     6   am
    61    93    84   am
    62    91    92   ar
    63    91    89   ar
    64    49    47    1
    65    84    83    1
    66    92    90   ar
    67     6     7    1
    68    51    54    1
    69    51    50    1
    70    46    45    2
    71    27    26    2
    72    89    87   ar
    73    26    28   am
    74     7    10    1
    75     7     8    1
    76    54    55    1
    77    90    88   ar
    78    45    50   am
    79    45    44    1
    80    87    88   ar
    81    87    86    1
    82    47    44    1
    83    47    48    1
    84    83    86    1
    85    83    82    1
    86     8     9    2
    87    82    80   am
    88    44    43    1
    89    80    79    1
    90    80    81    2
    91    79    78    1
    92   109   108    1
    93   108   110    1
    94   108   107    1
    95    74    73    2
    96   120   119    1
    97    78    73   am
    98    73    72    1
    99   121   119    1
   100    76    75    1
   101   107   104    1
   102   119   118    2
   103    75    72    1
   104    75    77    1
   105    72    71    1
   106   103   104    1
   107   104   105    1
   108   118   117    1
   109   117   116    1
   110   105   106    2
   111   116   115    1
   112   115   112    1
   113   112   111    1
   114   112   113    1
   115   113   114    2
