@<TRIPOS>MOLECULE
tmp/3lcmC01.pdb
 86 85 0 0 0
SMALL
GASTEIGER

@<TRIPOS>ATOM
      1  N         24.6660  -41.2290   36.5760 N.3    85  TRP85      -0.1227
      2  CA        24.1080  -42.4870   37.0660 C.3    85  TRP85       0.1737
      3  C         22.9050  -42.9490   36.2370 C.2    85  TRP85       0.2596
      4  O         21.8270  -43.2320   36.7680 O.2    85  TRP85      -0.2718
      5  CB        23.7870  -42.3910   38.5620 C.3    85  TRP85       0.0564
      6  CG        25.0380  -42.2940   39.3880 C.ar   85  TRP85       0.0003
      7  CD1       25.4940  -41.2030   40.0690 C.ar   85  TRP85       0.0946
      8  CD2       26.0140  -43.3260   39.5810 C.ar   85  TRP85       0.0152
      9  NE1       26.6850  -41.4980   40.6910 N.ar   85  TRP85      -0.2442
     10  CE2       27.0270  -42.7940   40.4060 C.ar   85  TRP85       0.0810
     11  CE3       26.1240  -44.6540   39.1430 C.ar   85  TRP85       0.0012
     12  CZ2       28.1370  -43.5400   40.8000 C.ar   85  TRP85       0.0191
     13  CZ3       27.2250  -45.3950   39.5380 C.ar   85  TRP85       0.0001
     14  CH2       28.2180  -44.8350   40.3580 C.ar   85  TRP85       0.0015
     15  N         23.1190  -43.0120   34.9240 N.am   86  SER86      -0.1952
     16  CA        22.1440  -43.5300   33.9620 C.3    86  SER86       0.1924
     17  C         20.9860  -42.5860   33.6400 C.2    86  SER86       0.2314
     18  O         20.1190  -42.9270   32.8390 O.2    86  SER86      -0.2863
     19  CB        21.6010  -44.8940   34.4110 C.3    86  SER86       0.2116
     20  OG        22.6280  -45.8700   34.4460 O.3    86  SER86      -0.2180
     21  N         29.9780  -41.3800   28.7640 N.3   129  ASN129     -0.1225
     22  CA        31.1940  -42.0740   28.3490 C.3   129  ASN129      0.1785
     23  C         31.0110  -43.5680   28.1010 C.2   129  ASN129      0.2598
     24  O         31.9830  -44.3200   28.0820 O.2   129  ASN129     -0.2718
     25  CB        32.3350  -41.8500   29.3430 C.3   129  ASN129      0.1169
     26  CG        33.7000  -42.1110   28.7200 C.2   129  ASN129      0.2627
     27  OD1       33.9050  -41.8530   27.5290 O.2   129  ASN129     -0.2716
     28  ND2       34.6380  -42.6310   29.5140 N.am  129  ASN129     -0.0877
     29  N         29.7670  -43.9950   27.9160 N.am  130  THR130     -0.1939
     30  CA        29.4740  -45.3900   27.6260 C.3   130  THR130      0.2013
     31  C         29.5950  -45.6410   26.1300 C.2   130  THR130      0.2484
     32  O         29.0330  -44.8990   25.3260 O.2   130  THR130     -0.2729
     33  CB        28.0670  -45.7770   28.1100 C.3   130  THR130      0.1807
     34  OG1       28.0070  -45.6490   29.5380 O.3   130  THR130     -0.2208
     35  CG2       27.7280  -47.2120   27.7090 C.3   130  THR130      0.0379
     36  N         30.3460  -46.6860   25.7540 N.am  131  PRO131     -0.2726
     37  CA        30.5530  -47.0330   24.3440 C.3   131  PRO131      0.1402
     38  C         29.2520  -47.3860   23.6180 C.2   131  PRO131      0.2269
     39  O         28.3400  -47.9930   24.1850 O.2   131  PRO131     -0.2865
     40  CB        31.4830  -48.2500   24.4060 C.3   131  PRO131      0.0296
     41  CG        31.4130  -48.7450   25.8110 C.3   131  PRO131      0.0237
     42  CD        31.0870  -47.5740   26.6680 C.3   131  PRO131      0.0939
     43  N         27.8170  -50.9290   23.8100 N.3   134  ALA134     -0.1245
     44  CA        27.2600  -51.3760   25.0860 C.3   134  ALA134      0.1562
     45  C         25.9130  -50.7290   25.4100 C.2   134  ALA134      0.2260
     46  O         25.3010  -51.0360   26.4320 O.2   134  ALA134     -0.2867
     47  CB        28.2460  -51.1070   26.2030 C.3   134  ALA134      0.0290
     48  N         22.3730  -52.3830   26.2090 N.3   137  PHE137     -0.1227
     49  CA        22.3350  -53.1340   27.4580 C.3   137  PHE137      0.1736
     50  C         22.2820  -52.2790   28.7200 C.2   137  PHE137      0.2595
     51  O         22.6450  -52.7480   29.7970 O.2   137  PHE137     -0.2718
     52  CB        23.5300  -54.0870   27.5100 C.3   137  PHE137      0.0547
     53  CG        23.6950  -54.8840   26.2610 C.ar  137  PHE137     -0.0202
     54  CD1       22.8730  -55.9670   26.0100 C.ar  137  PHE137     -0.0042
     55  CD2       24.6420  -54.5280   25.3180 C.ar  137  PHE137     -0.0042
     56  CE1       23.0020  -56.6930   24.8540 C.ar  137  PHE137     -0.0003
     57  CE2       24.7820  -55.2550   24.1570 C.ar  137  PHE137     -0.0003
     58  CZ        23.9580  -56.3400   23.9240 C.ar  137  PHE137     -0.0000
     59  N         21.8240  -51.0350   28.5850 N.am  138  VAL138     -0.1980
     60  CA        21.6520  -50.1420   29.7350 C.3   138  VAL138      0.1595
     61  C         20.2530  -49.5440   29.7390 C.2   138  VAL138      0.2287
     62  O         19.6680  -49.3110   28.6830 O.2   138  VAL138     -0.2864
     63  CB        22.7060  -48.9930   29.7670 C.3   138  VAL138      0.0276
     64  CG1       24.0880  -49.5270   30.1370 C.3   138  VAL138      0.0022
     65  CG2       22.7540  -48.2650   28.4370 C.3   138  VAL138      0.0022
     66  N         19.4150  -43.7540   30.3430 N.3   141  TYR141     -0.1241
     67  CA        20.3560  -42.9490   29.5780 C.3   141  TYR141      0.1605
     68  C         19.6160  -41.9530   28.6830 C.2   141  TYR141      0.2264
     69  O         20.0400  -41.6800   27.5520 O.2   141  TYR141     -0.2867
     70  CB        21.2640  -43.8410   28.7380 C.3   141  TYR141      0.0534
     71  CG        22.5170  -44.3060   29.4470 C.ar  141  TYR141     -0.0201
     72  CD1       23.7650  -43.8490   29.0520 C.ar  141  TYR141     -0.0009
     73  CD2       22.4520  -45.1950   30.5070 C.ar  141  TYR141     -0.0009
     74  CE1       24.9140  -44.2700   29.6860 C.ar  141  TYR141      0.0417
     75  CE2       23.5980  -45.6220   31.1480 C.ar  141  TYR141      0.0417
     76  CZ        24.8260  -45.1550   30.7330 C.ar  141  TYR141      0.1957
     77  OH        25.9770  -45.5720   31.3620 O.3   141  TYR141     -0.2866
     78  N         34.1760  -38.7670   26.6560 N.3   167  GLU167     -0.1245
     79  CA        35.4300  -38.4250   27.3010 C.3   167  GLU167      0.1567
     80  C         36.6070  -39.2030   26.7110 C.2   167  GLU167      0.2260
     81  O         37.7420  -38.7230   26.7130 O.2   167  GLU167     -0.2867
     82  CB        35.3130  -38.6420   28.8140 C.3   167  GLU167      0.0388
     83  CG        34.3920  -37.6320   29.4970 C.3   167  GLU167      0.1160
     84  CD        33.8460  -38.1240   30.8250 C.2   167  GLU167      0.3649
     85  OE1       33.2610  -39.2290   30.8550 O.co2 167  GLU167     -0.2457
     86  OE2       33.9840  -37.3940   31.8330 O.co2 167  GLU167     -0.2457
@<TRIPOS>BOND
     1    38    39    2
     2    38    37    1
     3    43    44    1
     4    58    57   ar
     5    58    56   ar
     6    57    55   ar
     7    37    40    1
     8    37    36    1
     9    40    41    1
    10    56    54   ar
    11    44    45    1
    12    44    47    1
    13    55    53   ar
    14    32    31    2
    15    45    46    2
    16    36    31   am
    17    36    42    1
    18    41    42    1
    19    54    53   ar
    20    31    30    1
    21    48    49    1
    22    53    52    1
    23    78    79    1
    24    80    81    2
    25    80    79    1
    26    79    82    1
    27    49    52    1
    28    49    50    1
    29    27    26    2
    30    69    68    2
    31    30    29    1
    32    30    33    1
    33    35    33    1
    34    29    23   am
    35    24    23    2
    36    23    22    1
    37    33    34    1
    38    22    21    1
    39    22    25    1
    40    65    63    1
    41    59    50   am
    42    59    60    1
    43    68    67    1
    44    62    61    2
    45    26    25    1
    46    26    28   am
    47    50    51    2
    48    70    71    1
    49    70    67    1
    50    82    83    1
    51    72    71   ar
    52    72    74   ar
    53    71    73   ar
    54    83    84    1
    55    67    66    1
    56    74    76   ar
    57    60    61    1
    58    60    63    1
    59    63    64    1
    60    73    75   ar
    61    76    75   ar
    62    76    77    1
    63    84    85   ar
    64    84    86   ar
    65    18    17    2
    66    17    16    1
    67    16    19    1
    68    16    15    1
    69    19    20    1
    70    15     3   am
    71     3     4    2
    72     3     2    1
    73     1     2    1
    74     2     5    1
    75     5     6    1
    76    11    13   ar
    77    11     8   ar
    78     6     8   ar
    79     6     7   ar
    80    13    14   ar
    81     8    10   ar
    82     7     9   ar
    83    14    12   ar
    84    10     9   ar
    85    10    12   ar
