@<TRIPOS>MOLECULE
tmp/3lcmA00.pdb
 205 203 0 0 0
SMALL
GASTEIGER

@<TRIPOS>ATOM
      1  N         23.2480   -2.2600   19.5720 N.3     9  HIS9       -0.1241
      2  CA        24.6230   -1.8580   19.2830 C.3     9  HIS9        0.1621
      3  C         25.2970   -2.8810   18.3740 C.2     9  HIS9        0.2264
      4  O         25.1910   -4.0850   18.6030 O.2     9  HIS9       -0.2867
      5  CB        25.4490   -1.6410   20.5580 C.3     9  HIS9        0.0745
      6  CG        26.6880   -0.8270   20.3290 C.ar    9  HIS9        0.0817
      7  ND1       27.8010   -1.3290   19.6870 N.ar    9  HIS9       -0.2268
      8  CD2       26.9740    0.4670   20.6150 C.ar    9  HIS9        0.1154
      9  CE1       28.7240   -0.3870   19.6040 C.ar    9  HIS9        0.1986
     10  NE2       28.2480    0.7120   20.1610 N.ar    9  HIS9       -0.2212
     11  N         28.4670   -3.5490   17.8910 N.3    11  ASN11      -0.1240
     12  CA        29.7180   -4.1220   18.4060 C.3    11  ASN11       0.1653
     13  C         29.5580   -4.9320   19.6860 C.2    11  ASN11       0.2266
     14  O         29.2580   -4.3790   20.7520 O.2    11  ASN11      -0.2867
     15  CB        30.7550   -3.0200   18.6380 C.3    11  ASN11       0.1155
     16  CG        32.1010   -3.5630   19.0970 C.2    11  ASN11       0.2627
     17  OD1       32.3830   -4.7560   18.9730 O.2    11  ASN11      -0.2716
     18  ND2       32.9410   -2.6820   19.6200 N.am   11  ASN11      -0.0877
     19  N         31.7060   -6.1300   21.5340 N.3    13  THR13      -0.1203
     20  CA        32.6750   -5.7440   22.5560 C.3    13  THR13       0.1994
     21  C         32.5390   -4.2580   22.9340 C.2    13  THR13       0.2619
     22  O         33.4900   -3.6270   23.3910 O.2    13  THR13      -0.2717
     23  CB        34.1290   -6.1060   22.1450 C.3    13  THR13       0.1784
     24  OG1       34.5080   -5.3820   20.9700 O.3    13  THR13      -0.2211
     25  CG2       34.2400   -7.5910   21.8620 C.3    13  THR13       0.0376
     26  N         31.3350   -3.7140   22.7530 N.am   14  SER14      -0.1937
     27  CA        31.0820   -2.3070   23.0510 C.3    14  SER14       0.2055
     28  C         30.8120   -2.0970   24.5430 C.2    14  SER14       0.2643
     29  O         30.6490   -3.0550   25.3000 O.2    14  SER14      -0.2714
     30  CB        29.9220   -1.7620   22.2020 C.3    14  SER14       0.2130
     31  OG        28.6880   -2.3860   22.5210 O.3    14  SER14      -0.2179
     32  N         30.7950   -0.8390   24.9650 N.am   15  PHE15      -0.1959
     33  CA        30.4430   -0.4970   26.3360 C.3    15  PHE15       0.1771
     34  C         28.9580   -0.8160   26.5630 C.2    15  PHE15       0.2619
     35  O         28.5650   -1.2380   27.6530 O.2    15  PHE15      -0.2715
     36  CB        30.7400    0.9810   26.5960 C.3    15  PHE15       0.0574
     37  CG        30.4850    1.4140   28.0050 C.ar   15  PHE15      -0.0200
     38  CD1       31.3150    0.9890   29.0360 C.ar   15  PHE15      -0.0042
     39  CD2       29.4240    2.2640   28.3010 C.ar   15  PHE15      -0.0042
     40  CE1       31.0870    1.3860   30.3350 C.ar   15  PHE15      -0.0003
     41  CE2       29.1920    2.6710   29.6020 C.ar   15  PHE15      -0.0003
     42  CZ        30.0270    2.2270   30.6230 C.ar   15  PHE15      -0.0000
     43  N         28.1220   -0.6010   25.5380 N.am   16  ASN16      -0.1972
     44  CA        26.7020   -0.9740   25.5900 C.3    16  ASN16       0.1688
     45  C         26.5340   -2.4570   25.8260 C.2    16  ASN16       0.2292
     46  O         25.6900   -2.8680   26.5230 O.2    16  ASN16      -0.2864
     47  CB        25.9320   -0.5200   24.3510 C.3    16  ASN16       0.1181
     48  CG        25.4150    0.8820   24.4590 C.2    16  ASN16       0.2629
     49  OD1       24.2890    1.0940   24.6510 O.2    16  ASN16      -0.2716
     50  ND2       26.2800    1.8230   24.3500 N.am   16  ASN16      -0.0877
     51  N         28.5010   -4.2930   27.5210 N.3    18  GLU18      -0.1245
     52  CA        28.8010   -4.4810   28.9370 C.3    18  GLU18       0.1567
     53  C         27.6360   -4.0040   29.8120 C.2    18  GLU18       0.2260
     54  O         27.3720   -4.5740   30.8690 O.2    18  GLU18      -0.2867
     55  CB        30.1140   -3.7780   29.3110 C.3    18  GLU18       0.0388
     56  CG        30.5230   -3.9230   30.7810 C.3    18  GLU18       0.1160
     57  CD        30.8010   -5.3600   31.1820 C.2    18  GLU18       0.3649
     58  OE1       31.1570   -6.1630   30.2990 O.co2  18  GLU18      -0.2457
     59  OE2       30.6720   -5.6860   32.3820 O.co2  18  GLU18      -0.2457
     60  N         23.1880    3.4800   22.4110 N.3    82  PRO82      -0.2102
     61  CA        23.9690    4.7190   22.3300 C.3    82  PRO82       0.1504
     62  C         23.1870    5.7910   21.5920 C.2    82  PRO82       0.2576
     63  O         22.4020    5.4670   20.7010 O.2    82  PRO82      -0.2718
     64  CB        25.1780    4.3160   21.4840 C.3    82  PRO82       0.0282
     65  CG        24.6700    3.2130   20.6020 C.3    82  PRO82       0.0208
     66  CD        23.6140    2.4850   21.4040 C.3    82  PRO82       0.0893
     67  N         23.3920    7.0490   21.9620 N.am   83  ILE83      -0.1966
     68  CA        22.8090    8.1630   21.2280 C.3    83  ILE83       0.1727
     69  C         23.5700    8.3700   19.9240 C.2    83  ILE83       0.2616
     70  O         24.7830    8.5930   19.9350 O.2    83  ILE83      -0.2715
     71  CB        22.8560    9.4730   22.0460 C.3    83  ILE83       0.0290
     72  CG1       21.9100    9.3930   23.2480 C.3    83  ILE83       0.0022
     73  CG2       22.5110   10.6780   21.1650 C.3    83  ILE83       0.0023
     74  CD1       20.4710    9.0190   22.8950 C.3    83  ILE83       0.0001
     75  N         22.8650    8.2660   18.8040 N.am   84  TRP84      -0.1960
     76  CA        23.4330    8.6130   17.5040 C.3    84  TRP84       0.1771
     77  C         22.6160    9.7560   16.9290 C.2    84  TRP84       0.2620
     78  O         21.4150    9.6140   16.6940 O.2    84  TRP84      -0.2715
     79  CB        23.3970    7.4310   16.5320 C.3    84  TRP84       0.0590
     80  CG        24.3160    6.2830   16.8830 C.ar   84  TRP84       0.0006
     81  CD1       25.2850    6.2610   17.8580 C.ar   84  TRP84       0.0946
     82  CD2       24.3710    5.0070   16.2370 C.ar   84  TRP84       0.0152
     83  NE1       25.9180    5.0440   17.8650 N.ar   84  TRP84      -0.2442
     84  CE2       25.3840    4.2570   16.8770 C.ar   84  TRP84       0.0810
     85  CE3       23.6560    4.4190   15.1840 C.ar   84  TRP84       0.0012
     86  CZ2       25.6970    2.9410   16.5000 C.ar   84  TRP84       0.0191
     87  CZ3       23.9690    3.1120   14.8080 C.ar   84  TRP84       0.0001
     88  CH2       24.9800    2.3900   15.4660 C.ar   84  TRP84       0.0015
     89  N         23.2620   10.8950   16.7120 N.am   85  TRP85      -0.1960
     90  CA        22.5660   12.0640   16.1910 C.3    85  TRP85       0.1771
     91  C         21.3120   12.3800   17.0110 C.2    85  TRP85       0.2620
     92  O         20.2040   12.4440   16.4730 O.2    85  TRP85      -0.2715
     93  CB        22.2570   11.8870   14.6980 C.3    85  TRP85       0.0590
     94  CG        23.5090   11.8320   13.8820 C.ar   85  TRP85       0.0006
     95  CD1       24.0270   10.7420   13.2290 C.ar   85  TRP85       0.0946
     96  CD2       24.4300   12.9080   13.6580 C.ar   85  TRP85       0.0152
     97  NE1       25.2080   11.0820   12.6070 N.ar   85  TRP85      -0.2442
     98  CE2       25.4750   12.4050   12.8500 C.ar   85  TRP85       0.0810
     99  CE3       24.4690   14.2520   14.0560 C.ar   85  TRP85       0.0012
    100  CZ2       26.5500   13.2020   12.4340 C.ar   85  TRP85       0.0191
    101  CZ3       25.5450   15.0420   13.6390 C.ar   85  TRP85       0.0001
    102  CH2       26.5650   14.5120   12.8370 C.ar   85  TRP85       0.0015
    103  N         21.5140   12.5500   18.3210 N.am   86  SER86      -0.1950
    104  CA        20.4790   12.9890   19.2620 C.3    86  SER86       0.1924
    105  C         19.3770   11.9780   19.5800 C.2    86  SER86       0.2314
    106  O         18.4310   12.3160   20.2860 O.2    86  SER86      -0.2863
    107  CB        19.8280   14.2850   18.7770 C.3    86  SER86       0.2116
    108  OG        20.7990   15.2860   18.5810 O.3    86  SER86      -0.2180
    109  N         23.6330    6.0280   26.3390 N.3   127  THR127     -0.1203
    110  CA        24.9880    6.5180   26.5170 C.3   127  THR127      0.1994
    111  C         25.2680    7.6120   25.4830 C.2   127  THR127      0.2618
    112  O         24.8420    7.5110   24.3320 O.2   127  THR127     -0.2717
    113  CB        26.0160    5.3820   26.3680 C.3   127  THR127      0.1784
    114  OG1       25.8530    4.7380   25.0950 O.3   127  THR127     -0.2211
    115  CG2       25.8260    4.3510   27.4680 C.3   127  THR127      0.0376
    116  N         25.9720    8.6630   25.8860 N.am  128  HIS128     -0.1961
    117  CA        26.4280    9.6560   24.9100 C.3   128  HIS128      0.1787
    118  C         27.6380   10.4580   25.4000 C.2   128  HIS128      0.2620
    119  O         28.1230   10.2540   26.5070 O.2   128  HIS128     -0.2715
    120  CB        25.2830   10.5810   24.5000 C.3   128  HIS128      0.0785
    121  CG        24.6470   11.2960   25.6480 C.ar  128  HIS128      0.0821
    122  ND1       25.1860   12.4380   26.2000 N.ar  128  HIS128     -0.2267
    123  CD2       23.5240   11.0280   26.3530 C.ar  128  HIS128      0.1154
    124  CE1       24.4190   12.8460   27.1950 C.ar  128  HIS128      0.1986
    125  NE2       23.4050   12.0070   27.3100 N.ar  128  HIS128     -0.2212
    126  N         28.1030   11.3500   24.5470 N.am  129  ASN129     -0.1958
    127  CA        29.2920   12.1630   24.8190 C.3   129  ASN129      0.1819
    128  C         29.0050   13.5980   25.2480 C.2   129  ASN129      0.2621
    129  O         29.8970   14.3920   25.3610 O.2   129  ASN129     -0.2715
    130  CB        30.2410   12.1640   23.6150 C.3   129  ASN129      0.1195
    131  CG        31.0520   10.9050   23.5050 C.2   129  ASN129      0.2630
    132  OD1       31.3990   10.3150   24.4850 O.2   129  ASN129     -0.2716
    133  ND2       31.3720   10.5040   22.3100 N.am  129  ASN129     -0.0877
    134  N         27.7490   13.9000   25.4940 N.am  130  THR130     -0.1951
    135  CA        27.3230   15.2670   25.7850 C.3   130  THR130      0.1897
    136  C         27.2080   15.4700   27.2940 C.2   130  THR130      0.2313
    137  O         26.7720   14.5700   28.0020 O.2   130  THR130     -0.2863
    138  CB        25.9810   15.5770   25.0770 C.3   130  THR130      0.1794
    139  OG1       26.1420   15.4070   23.6630 O.3   130  THR130     -0.2208
    140  CG2       25.5050   17.0030   25.3510 C.3   130  THR130      0.0378
    141  N         17.5320   13.1150   22.7220 N.3   141  TYR141     -0.1241
    142  CA        18.4520   12.3910   23.6080 C.3   141  TYR141      0.1605
    143  C         17.7110   11.4060   24.5270 C.2   141  TYR141      0.2264
    144  O         17.9920   11.3330   25.7310 O.2   141  TYR141     -0.2867
    145  CB        19.2940   13.3600   24.4440 C.3   141  TYR141      0.0534
    146  CG        20.5290   13.8670   23.7430 C.ar  141  TYR141     -0.0201
    147  CD1       21.7940   13.4280   24.1260 C.ar  141  TYR141     -0.0009
    148  CD2       20.4380   14.7800   22.7000 C.ar  141  TYR141     -0.0009
    149  CE1       22.9340   13.8820   23.4910 C.ar  141  TYR141      0.0417
    150  CE2       21.5760   15.2410   22.0600 C.ar  141  TYR141      0.0417
    151  CZ        22.8190   14.7850   22.4610 C.ar  141  TYR141      0.1957
    152  OH        23.9520   15.2360   21.8400 O.3   141  TYR141     -0.2866
    153  N         30.3100    9.9570   28.1930 N.3   166  ILE166     -0.1231
    154  CA        30.6270    8.5410   28.3770 C.3   166  ILE166      0.1692
    155  C         32.0200    8.1700   27.8580 C.2   166  ILE166      0.2591
    156  O         32.6410    7.2130   28.3390 O.2   166  ILE166     -0.2718
    157  CB        29.5400    7.6280   27.7530 C.3   166  ILE166      0.0266
    158  CG1       29.6400    6.2120   28.3070 C.3   166  ILE166      0.0019
    159  CG2       29.6230    7.6290   26.2340 C.3   166  ILE166      0.0020
    160  CD1       29.5070    6.1480   29.7980 C.3   166  ILE166      0.0001
    161  N         32.5130    8.9430   26.8920 N.am  167  GLU167     -0.1979
    162  CA        33.8250    8.6880   26.2980 C.3   167  GLU167      0.1602
    163  C         34.9200    9.5480   26.9370 C.2   167  GLU167      0.2287
    164  O         36.0680    9.1190   27.0340 O.2   167  GLU167     -0.2864
    165  CB        33.7820    8.8900   24.7790 C.3   167  GLU167      0.0415
    166  CG        35.0840    8.6320   24.0850 C.3   167  GLU167      0.1163
    167  CD        35.0580    8.7000   22.5890 C.2   167  GLU167      0.3649
    168  OE1       34.0430    9.0350   22.0160 O.co2 167  GLU167     -0.2457
    169  OE2       36.0860    8.5790   21.9040 O.co2 167  GLU167     -0.2457
    170  N         38.2280    5.2680   32.6640 N.3   171  ASP171     -0.1239
    171  CA        37.7710    3.8860   32.7120 C.3   171  ASP171      0.1674
    172  C         37.2110    3.5550   34.0990 C.2   171  ASP171      0.2266
    173  O         36.3400    2.6970   34.2280 O.2   171  ASP171     -0.2867
    174  CB        38.8950    2.9210   32.3250 C.3   171  ASP171      0.1410
    175  CG        38.4240    1.5300   31.9690 C.2   171  ASP171      0.3668
    176  OD1       37.2390    1.2410   31.9220 O.co2 171  ASP171     -0.2456
    177  OD2       39.2600    0.7070   31.5900 O.co2 171  ASP171     -0.2456
    178  N         33.6620    5.0790   34.2920 N.3   174  ARG174     -0.1231
    179  CA        32.7700    4.2180   33.5200 C.3   174  ARG174      0.1694
    180  C         32.3790    2.9730   34.3060 C.2   174  ARG174      0.2591
    181  O         31.2130    2.5820   34.3040 O.2   174  ARG174     -0.2718
    182  CB        33.4000    3.8240   32.1840 C.3   174  ARG174      0.0321
    183  CG        33.1800    4.8360   31.0760 C.3   174  ARG174      0.0489
    184  CD        33.6880    4.3040   29.7470 C.3   174  ARG174      0.2205
    185  NE        35.1460    4.1790   29.7340 N.pl3 174  ARG174     -0.0865
    186  CZ        35.9810    5.1940   29.5130 C.cat 174  ARG174      0.5346
    187  NH1       35.5060    6.4180   29.2850 N.pl3 174  ARG174      0.1354
    188  NH2       37.2930    4.9880   29.5210 N.pl3 174  ARG174      0.1354
    189  N         33.3500    2.3540   34.9800 N.am  175  GLN175     -0.1979
    190  CA        33.0690    1.2030   35.8420 C.3   175  GLN175      0.1601
    191  C         32.1020    1.5900   36.9650 C.2   175  GLN175      0.2287
    192  O         31.2210    0.8240   37.3300 O.2   175  GLN175     -0.2864
    193  CB        34.3620    0.6020   36.4120 C.3   175  GLN175      0.0394
    194  CG        34.1280   -0.6530   37.2180 C.3   175  GLN175      0.0908
    195  CD        34.0260   -1.8890   36.3460 C.2   175  GLN175      0.2608
    196  OE1       34.7650   -2.1000   35.3850 O.2   175  GLN175     -0.2717
    197  NE2       33.0790   -2.7560   36.7060 N.am  175  GLN175     -0.0878
    198  N         28.7360    1.4390   35.5160 N.3   178  LEU178     -0.1245
    199  CA        28.2610    0.0570   35.4610 C.3   178  LEU178      0.1561
    200  C         27.6950   -0.3740   36.8160 C.2   178  LEU178      0.2260
    201  O         26.6790   -1.0770   36.8810 O.2   178  LEU178     -0.2867
    202  CB        29.3780   -0.8940   34.9990 C.3   178  LEU178      0.0270
    203  CG        29.9230   -0.6020   33.5990 C.3   178  LEU178      0.0019
    204  CD1       31.0730   -1.5340   33.2420 C.3   178  LEU178      0.0001
    205  CD2       28.8150   -0.6890   32.5780 C.3   178  LEU178      0.0001
@<TRIPOS>BOND
     1   100   102   ar
     2   100    98   ar
     3    97    98   ar
     4    97    95   ar
     5   102   101   ar
     6    98    96   ar
     7    95    94   ar
     8   101    99   ar
     9    96    94   ar
    10    96    99   ar
    11    94    93    1
    12    93    90    1
    13    87    85   ar
    14    87    88   ar
    15    85    82   ar
    16    88    86   ar
    17    90    89    1
    18    90    91    1
    19    82    84   ar
    20    82    80   ar
    21    92    91    2
    22    86    84   ar
    23    79    80    1
    24    79    76    1
    25    78    77    2
    26    89    77   am
    27    84    83   ar
    28    80    81   ar
    29    77    76    1
    30    91   103   am
    31    76    75    1
    32    81    83   ar
    33    11    12    1
    34   103   104    1
    35     3     4    2
    36     3     2    1
    37    12    15    1
    38    12    13    1
    39   108   107    1
    40    15    16    1
    41   107   104    1
    42    75    69   am
    43    17    16    2
    44    16    18   am
    45   104   105    1
    46     2     1    1
    47     2     5    1
    48   105   106    2
    49     9     7   ar
    50     9    10   ar
    51    13    14    2
    52     7     6   ar
    53    69    70    2
    54    69    68    1
    55    10     8   ar
    56     6     5    1
    57     6     8   ar
    58    65    66    1
    59    65    64    1
    60    63    62    2
    61    24    23    1
    62    73    71    1
    63    68    67    1
    64    68    71    1
    65    66    60    1
    66    64    61    1
    67    19    20    1
    68    62    67   am
    69    62    61    1
    70   152   151    1
    71    25    23    1
    72   169   167   ar
    73   168   167   ar
    74    71    72    1
    75   150   151   ar
    76   150   148   ar
    77    23    20    1
    78    30    31    1
    79    30    27    1
    80   133   131   am
    81    61    60    1
    82   151   149   ar
    83    20    21    1
    84   167   166    1
    85   148   146   ar
    86   141   142    1
    87    26    21   am
    88    26    27    1
    89    74    72    1
    90    21    22    2
    91    27    28    1
    92   149   147   ar
    93   131   130    1
    94   131   132    2
    95   142   145    1
    96   142   143    1
    97   130   127    1
    98   139   138    1
    99   146   147   ar
   100   146   145    1
   101   166   165    1
   102   112   111    2
   103    50    48   am
   104    47    48    1
   105    47    44    1
   106    48    49    2
   107   120   117    1
   108   120   121    1
   109   143   144    2
   110    28    32   am
   111    28    29    2
   112   126   127    1
   113   126   118   am
   114   165   162    1
   115   127   128    1
   116   117   118    1
   117   117   116    1
   118    32    33    1
   119   138   140    1
   120   138   135    1
   121   114   113    1
   122   128   129    2
   123   128   134   am
   124   118   119    2
   125   111   116   am
   126   111   110    1
   127   134   135    1
   128    43    44    1
   129    43    34   am
   130    44    45    1
   131   121   122   ar
   132   121   123   ar
   133   135   136    1
   134    45    46    2
   135   122   124   ar
   136   159   157    1
   137   162   161    1
   138   162   163    1
   139    33    34    1
   140    33    36    1
   141   109   110    1
   142   123   125   ar
   143   113   110    1
   144   113   115    1
   145    34    35    2
   146    36    37    1
   147   161   155   am
   148   163   164    2
   149   124   125   ar
   150   136   137    2
   151    51    52    1
   152   157   158    1
   153   157   154    1
   154   155   156    2
   155   155   154    1
   156    37    39   ar
   157    37    38   ar
   158   153   154    1
   159    39    41   ar
   160   158   160    1
   161    52    55    1
   162    52    53    1
   163    38    40   ar
   164   187   186    1
   165    55    56    1
   166   186   188    1
   167   186   185    2
   168    41    42   ar
   169   185   184    1
   170   184   183    1
   171    53    54    2
   172    58    57   ar
   173    40    42   ar
   174    56    57    1
   175   183   182    1
   176    57    59   ar
   177   177   175   ar
   178   176   175   ar
   179   175   174    1
   180   182   179    1
   181   174   171    1
   182   205   203    1
   183   170   171    1
   184   171   172    1
   185   204   203    1
   186   179   178    1
   187   179   180    1
   188   203   202    1
   189   172   173    2
   190   181   180    2
   191   180   189   am
   192   189   190    1
   193   202   199    1
   194   196   195    2
   195   199   198    1
   196   199   200    1
   197   190   193    1
   198   190   191    1
   199   195   197   am
   200   195   194    1
   201   193   194    1
   202   200   201    2
   203   191   192    2
