@<TRIPOS>MOLECULE
tmp/3lcoA00.pdb
 219 206 0 0 0
SMALL
GASTEIGER

@<TRIPOS>ATOM
      1  N          2.1600   12.2460  -22.8440 N.3    30  LEU30      -0.1231
      2  CA         2.5160   12.7680  -21.5250 C.3    30  LEU30       0.1693
      3  C          2.1080   11.7910  -20.4220 C.2    30  LEU30       0.2592
      4  O          2.8860   11.5310  -19.5010 O.2    30  LEU30      -0.2718
      5  CB         1.8580   14.1310  -21.2870 C.3    30  LEU30       0.0284
      6  CG         2.1340   15.2210  -22.3280 C.3    30  LEU30       0.0019
      7  CD1        1.3600   16.4870  -21.9920 C.3    30  LEU30       0.0001
      8  CD2        3.6250   15.5130  -22.4230 C.3    30  LEU30       0.0001
      9  N          0.8900   11.2600  -20.5200 N.am   31  GLY31      -0.1957
     10  CA         0.3770   10.2920  -19.5450 C.3    31  GLY31       0.1869
     11  C         -0.6820    9.3710  -20.1250 C.2    31  GLY31       0.2309
     12  O         -1.1870    9.6070  -21.2250 O.2    31  GLY31      -0.2863
     13  N         -3.0950   11.3540  -22.3790 N.3    38  VAL38      -0.1245
     14  CA        -2.8300   12.7570  -22.6840 C.3    38  VAL38       0.1561
     15  C         -1.5920   12.8720  -23.5700 C.2    38  VAL38       0.2260
     16  O         -0.4670   12.7020  -23.1000 O.2    38  VAL38      -0.2867
     17  CB        -2.6110   13.5770  -21.3940 C.3    38  VAL38       0.0252
     18  CG1       -2.1850   15.0020  -21.7250 C.3    38  VAL38       0.0019
     19  CG2       -3.8730   13.5820  -20.5520 C.3    38  VAL38       0.0019
     20  N         -1.8710   20.4180  -24.7520 N.3    56  ALA56      -0.1245
     21  CA        -2.0850   19.0720  -24.2290 C.3    56  ALA56       0.1562
     22  C         -3.4780   18.5970  -24.6220 C.2    56  ALA56       0.2260
     23  O         -4.4700   19.2680  -24.3290 O.2    56  ALA56      -0.2867
     24  CB        -1.9290   19.0620  -22.7190 C.3    56  ALA56       0.0290
     25  N         -6.2140   15.6280  -24.2500 N.3    58  LYS58      -0.1245
     26  CA        -6.6840   14.4370  -23.5480 C.3    58  LYS58       0.1561
     27  C         -7.7000   13.6910  -24.4060 C.2    58  LYS58       0.2260
     28  O         -8.5380   14.3050  -25.0700 O.2    58  LYS58      -0.2867
     29  CB        -7.2970   14.8070  -22.1950 C.3    58  LYS58       0.0271
     30  CG        -7.7830   13.6050  -21.3830 C.3    58  LYS58       0.0035
     31  CD        -7.5830   13.7970  -19.8810 C.3    58  LYS58       0.0206
     32  CE        -8.4340   14.9290  -19.3210 C.3    58  LYS58       0.1093
     33  NZ        -9.8660   14.5450  -19.2030 N.3    58  LYS58      -0.1314
     34  N        -16.8200   16.1760  -18.5010 N.3    75  GLU75      -0.1245
     35  CA       -15.6980   17.0290  -18.1050 C.3    75  GLU75       0.1567
     36  C        -15.5520   18.2410  -19.0290 C.2    75  GLU75       0.2260
     37  O        -15.1460   19.3150  -18.5860 O.2    75  GLU75      -0.2867
     38  CB       -14.3940   16.2270  -18.0840 C.3    75  GLU75       0.0388
     39  CG       -13.2090   16.9800  -17.4830 C.3    75  GLU75       0.1160
     40  CD       -11.9690   16.1140  -17.3270 C.2    75  GLU75       0.3649
     41  OE1      -12.0930   14.9550  -16.8770 O.co2  75  GLU75      -0.2457
     42  OE2      -10.8640   16.5990  -17.6490 O.co2  75  GLU75      -0.2457
     43  N        -18.3260   20.7910  -18.1010 N.3    78  ILE78      -0.1231
     44  CA       -17.9980   21.4770  -16.8470 C.3    78  ILE78       0.1692
     45  C        -16.9590   22.5750  -17.0800 C.2    78  ILE78       0.2591
     46  O        -17.1220   23.6990  -16.6050 O.2    78  ILE78      -0.2718
     47  CB       -17.4790   20.4920  -15.7720 C.3    78  ILE78       0.0266
     48  CG1      -18.6310   19.6430  -15.2290 C.3    78  ILE78       0.0019
     49  CG2      -16.8210   21.2420  -14.6210 C.3    78  ILE78       0.0020
     50  CD1      -18.1820   18.4940  -14.3490 C.3    78  ILE78       0.0001
     51  N        -15.8970   22.2440  -17.8140 N.am   79  MET79      -0.1979
     52  CA       -14.8350   23.2050  -18.1310 C.3    79  MET79       0.1605
     53  C        -15.3500   24.4070  -18.9310 C.2    79  MET79       0.2287
     54  O        -14.8330   25.5180  -18.7860 O.2    79  MET79      -0.2864
     55  CB       -13.6990   22.5160  -18.8970 C.3    79  MET79       0.0413
     56  CG       -12.8870   21.5440  -18.0510 C.3    79  MET79       0.0598
     57  SD       -11.7750   20.5020  -19.0210 S.3    79  MET79      -0.1393
     58  CE       -10.5720   21.7070  -19.5710 C.3    79  MET79       0.0692
     59  N        -17.4720   26.6420  -16.4250 N.3    82  LEU82      -0.1245
     60  CA       -16.6460   27.2680  -15.3840 C.3    82  LEU82       0.1561
     61  C        -16.0410   28.6150  -15.7860 C.2    82  LEU82       0.2260
     62  O        -15.9140   29.5120  -14.9500 O.2    82  LEU82      -0.2867
     63  CB       -15.5160   26.3220  -14.9510 C.3    82  LEU82       0.0270
     64  CG       -15.8820   25.2120  -13.9620 C.3    82  LEU82       0.0019
     65  CD1      -14.7690   24.1770  -13.8850 C.3    82  LEU82       0.0001
     66  CD2      -16.1750   25.7880  -12.5830 C.3    82  LEU82       0.0001
     67  N         -6.2050   27.6920  -13.1070 N.3    88  ILE88      -0.1231
     68  CA        -6.9120   26.4600  -13.4660 C.3    88  ILE88       0.1692
     69  C         -6.5260   26.0370  -14.8820 C.2    88  ILE88       0.2591
     70  O         -6.2080   26.8820  -15.7230 O.2    88  ILE88      -0.2718
     71  CB        -8.4540   26.6070  -13.3610 C.3    88  ILE88       0.0266
     72  CG1       -8.9970   27.5620  -14.4310 C.3    88  ILE88       0.0019
     73  CG2       -8.8540   27.0740  -11.9670 C.3    88  ILE88       0.0020
     74  CD1      -10.4730   27.8730  -14.2830 C.3    88  ILE88       0.0001
     75  N         -6.5520   24.7310  -15.1390 N.am   89  VAL89      -0.1980
     76  CA        -6.2370   24.2050  -16.4660 C.3    89  VAL89       0.1595
     77  C         -7.3670   24.5690  -17.4300 C.2    89  VAL89       0.2287
     78  O         -8.4180   23.9260  -17.4480 O.2    89  VAL89      -0.2864
     79  CB        -6.0210   22.6780  -16.4380 C.3    89  VAL89       0.0276
     80  CG1       -5.8140   22.1380  -17.8480 C.3    89  VAL89       0.0022
     81  CG2       -4.8350   22.3270  -15.5530 C.3    89  VAL89       0.0022
     82  N        -10.2090   16.7970  -26.1340 N.3   103  VAL103     -0.1245
     83  CA       -10.2930   17.9670  -25.2610 C.3   103  VAL103      0.1561
     84  C         -8.9410   18.6760  -25.2070 C.2   103  VAL103      0.2260
     85  O         -8.0020   18.1910  -24.5730 O.2   103  VAL103     -0.2867
     86  CB       -10.7250   17.5720  -23.8330 C.3   103  VAL103      0.0252
     87  CG1      -10.7460   18.7910  -22.9190 C.3   103  VAL103      0.0019
     88  CG2      -12.0910   16.8990  -23.8590 C.3   103  VAL103      0.0019
     89  N         -6.4000   21.6360  -24.1070 N.3   105  THR105     -0.1203
     90  CA        -6.1900   22.5260  -22.9630 C.3   105  THR105      0.1994
     91  C         -4.7910   23.1410  -22.9940 C.2   105  THR105      0.2618
     92  O         -3.9750   22.7980  -23.8520 O.2   105  THR105     -0.2717
     93  CB        -6.3760   21.7690  -21.6280 C.3   105  THR105      0.1784
     94  OG1       -5.4960   20.6380  -21.5890 O.3   105  THR105     -0.2211
     95  CG2       -7.8140   21.2960  -21.4730 C.3   105  THR105      0.0376
     96  N         -4.5260   24.0530  -22.0590 N.am  106  GLU106     -0.1965
     97  CA        -3.2010   24.6630  -21.9030 C.3   106  GLU106      0.1733
     98  C         -2.1270   23.6000  -21.6920 C.2   106  GLU106      0.2616
     99  O         -2.4040   22.5380  -21.1370 O.2   106  GLU106     -0.2715
    100  CB        -3.1850   25.6150  -20.7030 C.3   106  GLU106      0.0429
    101  CG        -3.9970   26.8850  -20.8800 C.3   106  GLU106      0.1163
    102  CD        -4.0380   27.7240  -19.6140 C.2   106  GLU106      0.3649
    103  OE1       -4.4900   27.2060  -18.5690 O.co2 106  GLU106     -0.2457
    104  OE2       -3.6250   28.9030  -19.6640 O.co2 106  GLU106     -0.2457
    105  N         -0.9040   23.8910  -22.1290 N.am  107  TYR107     -0.1960
    106  CA         0.2230   22.9850  -21.9160 C.3   107  TYR107      0.1771
    107  C          1.1480   23.5290  -20.8280 C.2   107  TYR107      0.2620
    108  O          1.7480   24.5930  -20.9870 O.2   107  TYR107     -0.2715
    109  CB         1.0010   22.7710  -23.2160 C.3   107  TYR107      0.0574
    110  CG         2.2160   21.8860  -23.0500 C.ar  107  TYR107     -0.0198
    111  CD1        2.0790   20.5380  -22.7290 C.ar  107  TYR107     -0.0009
    112  CD2        3.5020   22.3960  -23.2070 C.ar  107  TYR107     -0.0009
    113  CE1        3.1910   19.7210  -22.5700 C.ar  107  TYR107      0.0417
    114  CE2        4.6200   21.5870  -23.0520 C.ar  107  TYR107      0.0417
    115  CZ         4.4580   20.2510  -22.7340 C.ar  107  TYR107      0.1957
    116  OH         5.5620   19.4450  -22.5790 O.3   107  TYR107     -0.2866
    117  N          1.2510   22.7890  -19.7270 N.am  108  CYS108     -0.1954
    118  CA         2.1240   23.1470  -18.6130 C.3   108  CYS108      0.1843
    119  C          3.3960   22.3030  -18.6840 C.2   108  CYS108      0.2625
    120  O          3.3500   21.0850  -18.5060 O.2   108  CYS108     -0.2714
    121  CB         1.3940   22.9240  -17.2900 C.3   108  CYS108      0.0997
    122  SG        -0.2530   23.6710  -17.2400 S.3   108  CYS108     -0.0797
    123  N          4.5250   22.9600  -18.9410 N.am  109  CYS109     -0.1968
    124  CA         5.7680   22.2680  -19.3010 C.3   109  CYS109      0.1712
    125  C          6.4480   21.5220  -18.1470 C.2   109  CYS109      0.2296
    126  O          6.9990   20.4390  -18.3550 O.2   109  CYS109     -0.2864
    127  CB         6.7560   23.2510  -19.9440 C.3   109  CYS109      0.0983
    128  SG         6.9640   24.8050  -19.0470 S.3   109  CYS109     -0.0798
    129  N          5.0920   20.0250  -15.6830 N.3   111  GLY111     -0.1210
    130  CA         4.3180   18.8510  -15.2800 C.3   111  GLY111      0.1956
    131  C          3.5680   19.0540  -13.9790 C.2   111  GLY111      0.2611
    132  O          3.3490   20.1890  -13.5510 O.2   111  GLY111     -0.2717
    133  N          3.1710   17.9470  -13.3530 N.am  112  ASP112     -0.1973
    134  CA         2.4150   17.9960  -12.0980 C.3   112  ASP112      0.1709
    135  C          3.3010   18.4080  -10.9200 C.2   112  ASP112      0.2293
    136  O          4.5230   18.2520  -10.9650 O.2   112  ASP112     -0.2864
    137  CB         1.7200   16.6560  -11.8090 C.3   112  ASP112      0.1436
    138  CG         2.7000   15.5150  -11.5830 C.2   112  ASP112      0.3671
    139  OD1        3.7810   15.5190  -12.2080 O.co2 112  ASP112     -0.2456
    140  OD2        2.3800   14.6070  -10.7860 O.co2 112  ASP112     -0.2456
    141  N        -13.1470   28.2030   -8.2720 N.3   151  LEU151     -0.1245
    142  CA       -14.0350   27.0540   -8.4690 C.3   151  LEU151      0.1561
    143  C        -15.2440   27.1220   -7.5370 C.2   151  LEU151      0.2260
    144  O        -16.3750   26.8800   -7.9600 O.2   151  LEU151     -0.2867
    145  CB       -13.2850   25.7340   -8.2550 C.3   151  LEU151      0.0270
    146  CG       -12.3160   25.3110   -9.3630 C.3   151  LEU151      0.0019
    147  CD1      -11.5180   24.0920   -8.9290 C.3   151  LEU151      0.0001
    148  CD2      -13.0610   25.0270  -10.6600 C.3   151  LEU151      0.0001
    149  N        -18.9720   25.0990   -7.7400 N.3   156  CYS156     -0.1221
    150  CA       -18.4070   23.8580   -8.2710 C.3   156  CYS156      0.1808
    151  C        -17.5070   23.1770   -7.2430 C.2   156  CYS156      0.2601
    152  O        -16.7190   23.8380   -6.5670 O.2   156  CYS156     -0.2717
    153  CB       -17.6140   24.1480   -9.5480 C.3   156  CYS156      0.0970
    154  SG       -16.6120   22.7680  -10.1460 S.3   156  CYS156     -0.0800
    155  N        -17.6290   21.8540   -7.1420 N.am  157  ILE157     -0.1965
    156  CA       -16.8370   21.0580   -6.2030 C.3   157  ILE157      0.1727
    157  C        -15.8950   20.1280   -6.9690 C.2   157  ILE157      0.2616
    158  O        -16.2790   19.5310   -7.9760 O.2   157  ILE157     -0.2715
    159  CB       -17.7400   20.2260   -5.2680 C.3   157  ILE157      0.0290
    160  CG1      -18.7020   21.1390   -4.5020 C.3   157  ILE157      0.0022
    161  CG2      -16.8980   19.4210   -4.2870 C.3   157  ILE157      0.0023
    162  CD1      -19.7330   20.3900   -3.6890 C.3   157  ILE157      0.0001
    163  N        -14.6660   20.0060   -6.4720 N.am  158  HIS158     -0.1973
    164  CA       -13.6000   19.2840   -7.1650 C.3   158  HIS158      0.1656
    165  C        -13.6190   17.7870   -6.8520 C.2   158  HIS158      0.2291
    166  O        -13.5440   16.9570   -7.7590 O.2   158  HIS158     -0.2864
    167  CB       -12.2430   19.8770   -6.7750 C.3   158  HIS158      0.0771
    168  CG       -11.1350   19.5340   -7.7200 C.ar  158  HIS158      0.0820
    169  ND1      -10.7780   18.2350   -8.0080 N.ar  158  HIS158     -0.2267
    170  CD2      -10.2960   20.3220   -8.4330 C.ar  158  HIS158      0.1154
    171  CE1       -9.7740   18.2360   -8.8650 C.ar  158  HIS158      0.1986
    172  NE2       -9.4610   19.4900   -9.1380 N.ar  158  HIS158     -0.2212
    173  N         -2.6790   16.4800   -9.2220 N.3   165  ASN165     -0.1240
    174  CA        -3.5810   17.1920  -10.1320 C.3   165  ASN165      0.1653
    175  C         -3.1810   18.6470  -10.4020 C.2   165  ASN165      0.2266
    176  O         -3.7250   19.2780  -11.3110 O.2   165  ASN165     -0.2867
    177  CB        -5.0160   17.1520   -9.5910 C.3   165  ASN165      0.1155
    178  CG        -5.6300   15.7630   -9.6540 C.2   165  ASN165      0.2627
    179  OD1       -5.4100   15.0120  -10.6050 O.2   165  ASN165     -0.2716
    180  ND2       -6.4180   15.4220   -8.6410 N.am  165  ASN165     -0.0877
    181  N         -0.8310   21.3940  -11.8640 N.3   167  LEU167     -0.1245
    182  CA         0.1570   21.5140  -12.9440 C.3   167  LEU167      0.1561
    183  C          0.9400   22.8230  -12.8510 C.2   167  LEU167      0.2260
    184  O          0.3540   23.8860  -12.6480 O.2   167  LEU167     -0.2867
    185  CB        -0.5310   21.4320  -14.3140 C.3   167  LEU167      0.0270
    186  CG        -0.7850   20.0370  -14.8910 C.3   167  LEU167      0.0019
    187  CD1        0.5240   19.3790  -15.2920 C.3   167  LEU167      0.0001
    188  CD2       -1.5350   19.1610  -13.9020 C.3   167  LEU167      0.0001
    189  N         -4.6380   24.2940  -11.0060 N.3   176  ILE176     -0.1231
    190  CA        -5.3760   23.1370  -10.5000 C.3   176  ILE176      0.1692
    191  C         -6.2980   22.5780  -11.5850 C.2   176  ILE176      0.2593
    192  O         -6.8860   23.3290  -12.3630 O.2   176  ILE176     -0.2718
    193  CB        -6.2010   23.4900   -9.2290 C.3   176  ILE176      0.0266
    194  CG1       -6.8030   22.2310   -8.5910 C.3   176  ILE176      0.0019
    195  CG2       -7.3050   24.4900   -9.5530 C.3   176  ILE176      0.0020
    196  CD1       -5.7810   21.1820   -8.1920 C.3   176  ILE176      0.0001
    197  N         -6.4070   21.2540  -11.6330 N.am  177  GLY177     -0.1942
    198  CA        -7.3100   20.5840  -12.5660 C.3   177  GLY177      0.2014
    199  C         -7.6360   19.1810  -12.0960 C.2   177  GLY177      0.2639
    200  O         -7.5910   18.8990  -10.9000 O.2   177  GLY177     -0.2714
    201  N         -7.9730   18.3040  -13.0370 N.am  178  ASP178     -0.1957
    202  CA        -8.2640   16.9060  -12.7250 C.3   178  ASP178      0.1840
    203  C         -7.9990   16.0300  -13.9490 C.2   178  ASP178      0.2622
    204  O         -8.7970   16.0050  -14.8860 O.2   178  ASP178     -0.2715
    205  CB        -9.7180   16.7560  -12.2550 C.3   178  ASP178      0.1450
    206  CG       -10.0150   15.3830  -11.6600 C.2   178  ASP178      0.3671
    207  OD1       -9.0700   14.5980  -11.4260 O.co2 178  ASP178     -0.2456
    208  OD2      -11.2060   15.0900  -11.4190 O.co2 178  ASP178     -0.2456
    209  N         -6.8640   15.3300  -13.9340 N.am  179  PHE179     -0.1974
    210  CA        -6.4850   14.4150  -15.0180 C.3   179  PHE179      0.1639
    211  C         -7.6270   13.4700  -15.3980 C.2   179  PHE179      0.2290
    212  O         -7.9110   13.2760  -16.5810 O.2   179  PHE179     -0.2864
    213  CB        -5.2470   13.5990  -14.6260 C.3   179  PHE179      0.0560
    214  CG        -3.9440   14.3090  -14.8740 C.ar  179  PHE179     -0.0200
    215  CD1       -3.3130   15.0140  -13.8570 C.ar  179  PHE179     -0.0042
    216  CD2       -3.3450   14.2650  -16.1260 C.ar  179  PHE179     -0.0042
    217  CE1       -2.1070   15.6670  -14.0860 C.ar  179  PHE179     -0.0003
    218  CE2       -2.1400   14.9140  -16.3630 C.ar  179  PHE179     -0.0003
    219  CZ        -1.5210   15.6170  -15.3410 C.ar  179  PHE179     -0.0000
@<TRIPOS>BOND
     1    82    83    1
     2    83    84    1
     3    83    86    1
     4    84    85    2
     5    28    27    2
     6    20    21    1
     7    22    23    2
     8    22    21    1
     9    27    26    1
    10    25    26    1
    11    21    24    1
    12    89    90    1
    13    88    86    1
    14    92    91    2
    15    86    87    1
    16    15    16    2
    17    15    14    1
    18    26    29    1
    19   109   110    1
    20   109   106    1
    21   112   114   ar
    22   112   110   ar
    23   114   115   ar
    24   110   111   ar
    25    91    90    1
    26    91    96   am
    27    90    93    1
    28     1     2    1
    29   115   116    1
    30   115   113   ar
    31   111   113   ar
    32    14    13    1
    33    14    17    1
    34     8     6    1
    35     6     7    1
    36     6     5    1
    37    29    30    1
    38   105   106    1
    39   105    98   am
    40    96    97    1
    41   106   107    1
    42    97    98    1
    43    97   100    1
    44    18    17    1
    45    98    99    2
    46    93    94    1
    47    93    95    1
    48     2     5    1
    49     2     3    1
    50    17    19    1
    51    30    31    1
    52    12    11    2
    53   108   107    2
    54   101   100    1
    55   101   102    1
    56   107   117   am
    57     9     3   am
    58     9    10    1
    59     3     4    2
    60    11    10    1
    61   127   124    1
    62   127   128    1
    63    31    32    1
    64   117   118    1
    65   104   102   ar
    66   102   103   ar
    67    58    57    1
    68    32    33    1
    69   124   123    1
    70   124   125    1
    71    36    37    2
    72    36    35    1
    73    57    56    1
    74   123   119   am
    75    53    54    2
    76    53    52    1
    77    55    52    1
    78    55    56    1
    79   119   118    1
    80   119   120    2
    81   118   121    1
    82    34    35    1
    83   126   125    2
    84    52    51    1
    85    35    38    1
    86    43    44    1
    87    38    39    1
    88    80    79    1
    89    51    45   am
    90    42    40   ar
    91    39    40    1
    92    78    77    2
    93    77    76    1
    94    40    41   ar
    95   121   122    1
    96    45    44    1
    97    45    46    2
    98    44    47    1
    99   212   211    2
   100    76    79    1
   101    76    75    1
   102    79    81    1
   103    59    60    1
   104   218   216   ar
   105   218   219   ar
   106   216   214   ar
   107    61    60    1
   108    61    62    2
   109    47    48    1
   110    47    49    1
   111    70    69    2
   112   129   130    1
   113   211   210    1
   114    60    63    1
   115   219   217   ar
   116   187   186    1
   117   130   131    1
   118    48    50    1
   119    75    69   am
   120   210   213    1
   121   210   209    1
   122    63    64    1
   123   186   185    1
   124   186   188    1
   125   204   203    2
   126    69    68    1
   127   214   213    1
   128   214   215   ar
   129    72    74    1
   130    72    71    1
   131   185   182    1
   132   217   215   ar
   133   131   132    2
   134   131   133   am
   135    64    65    1
   136    64    66    1
   137   203   209   am
   138   203   202    1
   139    68    71    1
   140    68    67    1
   141    71    73    1
   142   133   134    1
   143   201   202    1
   144   201   199   am
   145   182   183    1
   146   182   181    1
   147   183   184    2
   148   202   205    1
   149   198   199    1
   150   198   197    1
   151   192   191    2
   152   205   206    1
   153   139   138   ar
   154   134   137    1
   155   134   135    1
   156   199   200    2
   157   137   138    1
   158   206   207   ar
   159   206   208   ar
   160   197   191   am
   161   191   190    1
   162   138   140   ar
   163   176   175    2
   164   189   190    1
   165   136   135    2
   166   148   146    1
   167   179   178    2
   168   190   193    1
   169   175   174    1
   170   154   153    1
   171   174   177    1
   172   174   173    1
   173   178   177    1
   174   178   180   am
   175   195   193    1
   176   153   150    1
   177   146   147    1
   178   146   145    1
   179   193   194    1
   180   172   171   ar
   181   172   170   ar
   182   171   169   ar
   183   194   196    1
   184   142   141    1
   185   142   145    1
   186   142   143    1
   187   170   168   ar
   188   150   149    1
   189   150   151    1
   190   169   168   ar
   191   158   157    2
   192   144   143    2
   193   166   165    2
   194   168   167    1
   195   151   155   am
   196   151   152    2
   197   164   165    1
   198   164   167    1
   199   164   163    1
   200   155   156    1
   201   157   163   am
   202   157   156    1
   203   156   159    1
   204   159   160    1
   205   159   161    1
   206   160   162    1
