@<TRIPOS>MOLECULE
tmp/3lcsA00.pdb
 172 161 0 0 0
SMALL
GASTEIGER

@<TRIPOS>ATOM
      1  N        -23.8620   11.0070   -1.4530 N.3    27  LEU27      -0.1231
      2  CA       -23.5290   10.1100   -2.5650 C.3    27  LEU27       0.1693
      3  C        -22.0920    9.6120   -2.4910 C.2    27  LEU27       0.2593
      4  O        -21.7920    8.4690   -2.8510 O.2    27  LEU27      -0.2718
      5  CB       -23.7820   10.7860   -3.9190 C.3    27  LEU27       0.0284
      6  CG       -25.2380   11.1240   -4.2700 C.3    27  LEU27       0.0019
      7  CD1      -25.3120   11.7720   -5.6560 C.3    27  LEU27       0.0001
      8  CD2      -26.1520    9.9040   -4.1900 C.3    27  LEU27       0.0001
      9  N        -21.1990   10.4820   -2.0410 N.am   28  GLY28      -0.1942
     10  CA       -19.7940   10.1320   -1.9350 C.3    28  GLY28       0.2014
     11  C        -18.9200   11.3240   -1.6380 C.2    28  GLY28       0.2639
     12  O        -19.4040   12.4020   -1.2670 O.2    28  GLY28      -0.2714
     13  N        -17.6200   11.1100   -1.7980 N.am   29  HIS29      -0.1959
     14  CA       -16.6160   12.1440   -1.5980 C.3    29  HIS29       0.1787
     15  C        -15.3780   11.7770   -2.3890 C.2    29  HIS29       0.2620
     16  O        -15.0910   10.5880   -2.5970 O.2    29  HIS29      -0.2715
     17  CB       -16.2790   12.3210   -0.1060 C.3    29  HIS29       0.0785
     18  CG       -15.5510   11.1610    0.5030 C.ar   29  HIS29       0.0821
     19  ND1      -14.1980   10.9540    0.3290 N.ar   29  HIS29      -0.2267
     20  CD2      -15.9820   10.1590    1.3060 C.ar   29  HIS29       0.1154
     21  CE1      -13.8320    9.8640    0.9800 C.ar   29  HIS29       0.1986
     22  NE2      -14.8950    9.3630    1.5830 N.ar   29  HIS29      -0.2212
     23  N        -14.6680   12.7990   -2.8550 N.am   30  GLY30      -0.1954
     24  CA       -13.3340   12.6270   -3.4220 C.3    30  GLY30       0.1869
     25  C        -12.3180   13.1190   -2.4050 C.2    30  GLY30       0.2309
     26  O        -12.5610   13.0710   -1.1900 O.2    30  GLY30      -0.2863
     27  N        -20.3020   14.9710   -2.3060 N.3    35  VAL35      -0.1245
     28  CA       -21.3290   15.0290   -3.3500 C.3    35  VAL35       0.1561
     29  C        -22.5950   14.4400   -2.7440 C.2    35  VAL35       0.2260
     30  O        -22.5440   13.4090   -2.0710 O.2    35  VAL35      -0.2867
     31  CB       -20.9360   14.2490   -4.6380 C.3    35  VAL35       0.0252
     32  CG1      -22.0450   14.3300   -5.6760 C.3    35  VAL35       0.0019
     33  CG2      -19.6240   14.7700   -5.2340 C.3    35  VAL35       0.0019
     34  N        -27.1750   16.4590   -8.4980 N.3    53  ALA53      -0.1245
     35  CA       -26.0810   16.1310   -7.6000 C.3    53  ALA53       0.1562
     36  C        -25.4930   17.4540   -7.1400 C.2    53  ALA53       0.2260
     37  O        -25.3890   18.4010   -7.9250 O.2    53  ALA53      -0.2867
     38  CB       -25.0290   15.3040   -8.3050 C.3    53  ALA53       0.0290
     39  N        -22.1890   19.1190   -5.4340 N.3    55  LYS55      -0.1245
     40  CA       -20.7950   18.9970   -5.0340 C.3    55  LYS55       0.1561
     41  C        -20.4660   20.1770   -4.1280 C.2    55  LYS55       0.2260
     42  O        -20.7760   21.3330   -4.4490 O.2    55  LYS55      -0.2867
     43  CB       -19.8780   18.9470   -6.2690 C.3    55  LYS55       0.0271
     44  CG       -18.4060   18.6730   -5.9570 C.3    55  LYS55       0.0035
     45  CD       -17.6700   18.1890   -7.2130 C.3    55  LYS55       0.0206
     46  CE       -16.2630   17.6700   -6.8750 C.3    55  LYS55       0.1093
     47  NZ       -15.3110   18.7620   -6.4850 N.3    55  LYS55      -0.1314
     48  N        -13.5270   24.6880  -11.2980 N.3    72  GLU72      -0.1245
     49  CA       -14.2370   23.4470  -11.6340 C.3    72  GLU72       0.1567
     50  C        -15.6250   23.7420  -12.2310 C.2    72  GLU72       0.2260
     51  O        -16.0180   23.1410  -13.2320 O.2    72  GLU72      -0.2867
     52  CB       -14.3460   22.5030  -10.4260 C.3    72  GLU72       0.0388
     53  CG       -15.1920   21.2480  -10.7290 C.3    72  GLU72       0.1160
     54  CD       -15.0560   20.1470   -9.6990 C.2    72  GLU72       0.3649
     55  OE1      -15.1250   18.9610  -10.1040 O.co2  72  GLU72      -0.2457
     56  OE2      -14.8900   20.4590   -8.4920 O.co2  72  GLU72      -0.2457
     57  N        -16.7900   22.8450  -16.2660 N.3    76  ILE76      -0.1245
     58  CA       -17.9420   21.9790  -16.5670 C.3    76  ILE76       0.1561
     59  C        -19.0160   22.7430  -17.3440 C.2    76  ILE76       0.2260
     60  O        -19.5020   22.2670  -18.3800 O.2    76  ILE76      -0.2867
     61  CB       -18.5360   21.3260  -15.2900 C.3    76  ILE76       0.0252
     62  CG1      -17.4630   20.4930  -14.5750 C.3    76  ILE76       0.0019
     63  CG2      -19.7250   20.4140  -15.6470 C.3    76  ILE76       0.0019
     64  CD1      -17.8380   20.0750  -13.1400 C.3    76  ILE76       0.0001
     65  N        -20.9960   15.3340  -17.9540 N.3    85  VAL85      -0.1245
     66  CA       -22.0170   15.7210  -16.9820 C.3    85  VAL85       0.1561
     67  C        -22.2900   17.2210  -17.0940 C.2    85  VAL85       0.2260
     68  O        -21.3620   18.0160  -17.2910 O.2    85  VAL85      -0.2867
     69  CB       -21.6320   15.3540  -15.5260 C.3    85  VAL85       0.0252
     70  CG1      -21.4060   13.8480  -15.3990 C.3    85  VAL85       0.0019
     71  CG2      -20.4040   16.1250  -15.0660 C.3    85  VAL85       0.0019
     72  N        -24.8880   19.6820  -10.3350 N.3   101  LEU101     -0.1231
     73  CA       -24.5390   18.8690  -11.4770 C.3   101  LEU101      0.1693
     74  C        -25.6730   17.9210  -11.8090 C.2   101  LEU101      0.2592
     75  O        -26.5060   17.5820  -10.9450 O.2   101  LEU101     -0.2718
     76  CB       -23.2330   18.0810  -11.2170 C.3   101  LEU101      0.0284
     77  CG       -21.9480   18.8870  -10.9610 C.3   101  LEU101      0.0019
     78  CD1      -20.8110   17.9750  -10.5020 C.3   101  LEU101      0.0001
     79  CD2      -21.5250   19.6760  -12.2060 C.3   101  LEU101      0.0001
     80  N        -25.7070   17.5290  -13.0770 N.am  102  GLU102     -0.1966
     81  CA       -26.5320   16.4350  -13.5520 C.3   102  GLU102      0.1733
     82  C        -26.3920   15.2560  -12.5910 C.2   102  GLU102      0.2616
     83  O        -25.2670   14.8480  -12.2520 O.2   102  GLU102     -0.2715
     84  CB       -26.0660   16.0400  -14.9590 C.3   102  GLU102      0.0429
     85  CG       -26.7520   14.8380  -15.5770 C.3   102  GLU102      0.1163
     86  CD       -26.3200   14.5900  -17.0120 C.2   102  GLU102      0.3649
     87  OE1      -25.3820   15.2610  -17.5010 O.co2 102  GLU102     -0.2457
     88  OE2      -26.9250   13.7110  -17.6600 O.co2 102  GLU102     -0.2457
     89  N        -27.5320   14.7450  -12.1320 N.am  103  LEU103     -0.1963
     90  CA       -27.5570   13.5600  -11.2930 C.3   103  LEU103      0.1728
     91  C        -27.3230   12.2870  -12.1130 C.2   103  LEU103      0.2616
     92  O        -27.9900   12.0320  -13.1170 O.2   103  LEU103     -0.2715
     93  CB       -28.8610   13.4720  -10.5090 C.3   103  LEU103      0.0311
     94  CG       -28.9810   12.2870   -9.5450 C.3   103  LEU103      0.0022
     95  CD1      -27.9360   12.3350   -8.4100 C.3   103  LEU103      0.0001
     96  CD2      -30.3990   12.2200   -8.9990 C.3   103  LEU103      0.0001
     97  N        -26.3510   11.5030  -11.6690 N.am  104  MET104     -0.1963
     98  CA       -25.9460   10.2920  -12.3600 C.3   104  MET104      0.1736
     99  C        -26.1850    9.1240  -11.4020 C.2   104  MET104      0.2616
    100  O        -25.2630    8.6790  -10.7120 O.2   104  MET104     -0.2715
    101  CB       -24.4640   10.3970  -12.7620 C.3   104  MET104      0.0427
    102  CG       -24.1280   11.6060  -13.6610 C.3   104  MET104      0.0599
    103  SD       -24.8890   11.4720  -15.2950 S.3   104  MET104     -0.1393
    104  CE       -23.7640   10.2910  -16.0350 C.3   104  MET104      0.0692
    105  N        -27.4270    8.6490  -11.3630 N.am  105  ALA105     -0.1977
    106  CA       -27.8780    7.6460  -10.3800 C.3   105  ALA105      0.1597
    107  C        -27.1460    6.3080  -10.4700 C.2   105  ALA105      0.2287
    108  O        -27.2130    5.4840   -9.5460 O.2   105  ALA105     -0.2864
    109  CB       -29.3990    7.4350  -10.4740 C.3   105  ALA105      0.0319
    110  N        -23.9420    6.0940  -10.5720 N.3   107  GLY107     -0.1210
    111  CA       -22.7110    6.2710   -9.8020 C.3   107  GLY107      0.1956
    112  C        -21.4800    6.2380  -10.6930 C.2   107  GLY107      0.2611
    113  O        -21.5800    6.3750  -11.9190 O.2   107  GLY107     -0.2717
    114  N        -20.3120    6.0550  -10.0920 N.am  108  ASP108     -0.1973
    115  CA       -19.0990    6.0370  -10.9060 C.3   108  ASP108      0.1709
    116  C        -18.9070    4.6870  -11.6040 C.2   108  ASP108      0.2293
    117  O        -19.3730    3.6400  -11.1260 O.2   108  ASP108     -0.2864
    118  CB       -17.8630    6.5040  -10.1240 C.3   108  ASP108      0.1436
    119  CG       -17.3460    5.4660   -9.1490 C.2   108  ASP108      0.3671
    120  OD1      -16.4470    4.6900   -9.5450 O.co2 108  ASP108     -0.2456
    121  OD2      -17.8250    5.4320   -7.9930 O.co2 108  ASP108     -0.2456
    122  N        -16.9210    1.6750   -9.7340 N.3   111  SER111     -0.1217
    123  CA       -17.7890    1.0840   -8.7180 C.3   111  SER111      0.1889
    124  C        -18.9000    0.2760   -9.3700 C.2   111  SER111      0.2288
    125  O        -19.2360   -0.8100   -8.9200 O.2   111  SER111     -0.2866
    126  CB       -18.4050    2.1740   -7.8380 C.3   111  SER111      0.2089
    127  OG       -17.4120    2.9100   -7.1580 O.3   111  SER111     -0.2183
    128  N        -12.8030    5.7460  -12.6090 N.3   158  ARG158     -0.1231
    129  CA       -13.1390    6.4660  -11.3660 C.3   158  ARG158      0.1694
    130  C        -13.6820    7.8750  -11.6690 C.2   158  ARG158      0.2592
    131  O        -14.3470    8.4810  -10.8330 O.2   158  ARG158     -0.2718
    132  CB       -11.8990    6.5850  -10.4640 C.3   158  ARG158      0.0321
    133  CG       -10.7900    7.4250  -11.1090 C.3   158  ARG158      0.0489
    134  CD        -9.5850    7.7260  -10.2210 C.3   158  ARG158      0.2205
    135  NE        -8.4770    8.1740  -11.0740 N.pl3 158  ARG158     -0.0865
    136  CZ        -7.5780    7.3420  -11.5850 C.cat 158  ARG158      0.5346
    137  NH1       -7.6530    6.0550  -11.2890 N.pl3 158  ARG158      0.1354
    138  NH2       -6.6080    7.7800  -12.3680 N.pl3 158  ARG158      0.1354
    139  N        -13.3990    8.3830  -12.8680 N.am  159  ASN159     -0.1960
    140  CA       -13.7860    9.7440  -13.2500 C.3   159  ASN159      0.1819
    141  C        -14.9950    9.8060  -14.1770 C.2   159  ASN159      0.2621
    142  O        -15.3930   10.8910  -14.6210 O.2   159  ASN159     -0.2715
    143  CB       -12.6000   10.4880  -13.8730 C.3   159  ASN159      0.1195
    144  CG       -11.4850   10.7490  -12.8720 C.2   159  ASN159      0.2630
    145  OD1      -11.7330   10.9220  -11.6720 O.2   159  ASN159     -0.2716
    146  ND2      -10.2470   10.7910  -13.3630 N.am  159  ASN159     -0.0877
    147  N        -15.5530    8.6370  -14.4880 N.am  160  CYS160     -0.1954
    148  CA       -16.7340    8.5350  -15.3370 C.3   160  CYS160      0.1843
    149  C        -17.9570    8.1740  -14.5120 C.2   160  CYS160      0.2625
    150  O        -17.8280    7.5860  -13.4290 O.2   160  CYS160     -0.2714
    151  CB       -16.5060    7.4900  -16.4210 C.3   160  CYS160      0.0997
    152  SG       -15.0970    7.9290  -17.4160 S.3   160  CYS160     -0.0797
    153  N        -19.1360    8.5290  -15.0150 N.am  161  LEU161     -0.1977
    154  CA       -20.3720    8.3250  -14.2600 C.3   161  LEU161      0.1596
    155  C        -21.4520    7.7550  -15.1610 C.2   161  LEU161      0.2287
    156  O        -21.3790    7.8970  -16.3910 O.2   161  LEU161     -0.2864
    157  CB       -20.8480    9.6400  -13.6450 C.3   161  LEU161      0.0297
    158  CG       -19.9880   10.2370  -12.5290 C.3   161  LEU161      0.0022
    159  CD1      -20.2100   11.7340  -12.4620 C.3   161  LEU161      0.0001
    160  CD2      -20.2960    9.5820  -11.2000 C.3   161  LEU161      0.0001
    161  N        -17.1420   12.8930  -15.8100 N.3   174  GLY174     -0.1210
    162  CA       -17.6200   13.7330  -14.7240 C.3   174  GLY174      0.1956
    163  C        -16.5950   14.5510  -13.9620 C.2   174  GLY174      0.2611
    164  O        -16.8800   15.6870  -13.5830 O.2   174  GLY174     -0.2717
    165  N        -15.4060   13.9880  -13.7310 N.am  175  ASP175     -0.1973
    166  CA       -14.3940   14.6240  -12.8730 C.3   175  ASP175      0.1709
    167  C        -13.2940   15.2770  -13.7220 C.2   175  ASP175      0.2293
    168  O        -12.5320   14.5870  -14.4200 O.2   175  ASP175     -0.2864
    169  CB       -13.8120   13.5880  -11.8900 C.3   175  ASP175      0.1436
    170  CG       -12.9970   14.2170  -10.7390 C.2   175  ASP175      0.3671
    171  OD1      -12.4340   15.3230  -10.8890 O.co2 175  ASP175     -0.2456
    172  OD2      -12.9050   13.5820   -9.6650 O.co2 175  ASP175     -0.2456
@<TRIPOS>BOND
     1    60    59    2
     2    65    66    1
     3    88    86   ar
     4    87    86   ar
     5   152   151    1
     6    59    58    1
     7    68    67    2
     8    67    66    1
     9    86    85    1
    10    66    69    1
    11    58    57    1
    12    58    61    1
    13   151   148    1
    14   156   155    2
    15   104   103    1
    16   161   162    1
    17    63    61    1
    18    85    84    1
    19    69    70    1
    20    69    71    1
    21   148   149    1
    22   148   147    1
    23   103   102    1
    24    61    62    1
    25   155   154    1
    26   153   149   am
    27   153   154    1
    28    84    81    1
    29   162   163    1
    30   142   141    2
    31    62    64    1
    32   149   150    2
    33   147   141   am
    34   168   167    2
    35   154   157    1
    36   141   140    1
    37   163   165   am
    38   163   164    2
    39   143   140    1
    40   143   144    1
    41   165   166    1
    42   167   166    1
    43   102   101    1
    44   157   158    1
    45    81    80    1
    46    81    82    1
    47   146   144   am
    48   140   139    1
    49    51    50    2
    50    92    91    2
    51    80    74   am
    52   166   169    1
    53   144   145    2
    54   139   130   am
    55   101    98    1
    56   128   129    1
    57    82    83    2
    58    82    89   am
    59   158   159    1
    60   158   160    1
    61   138   136    1
    62    98    97    1
    63    98    99    1
    64    50    49    1
    65    79    77    1
    66    89    90    1
    67    91    97   am
    68    91    90    1
    69   113   112    2
    70   169   170    1
    71    74    73    1
    72    74    75    2
    73   130   129    1
    74   130   131    2
    75    49    48    1
    76    49    52    1
    77   116   117    2
    78   116   115    1
    79   136   137    1
    80   136   135    2
    81    73    76    1
    82    73    72    1
    83    99   105   am
    84    99   100    2
    85   129   132    1
    86   105   106    1
    87    90    93    1
    88    76    77    1
    89   133   132    1
    90   133   134    1
    91   135   134    1
    92    77    78    1
    93   115   118    1
    94   115   114    1
    95   171   170   ar
    96   170   172   ar
    97    53    52    1
    98    53    54    1
    99   112   114   am
   100   112   111    1
   101   110   111    1
   102    93    94    1
   103   109   106    1
   104   107   106    1
   105   107   108    2
   106   118   119    1
   107    55    54   ar
   108   122   123    1
   109    54    56   ar
   110    94    96    1
   111    94    95    1
   112   120   119   ar
   113   124   125    2
   114   124   123    1
   115   119   121   ar
   116   123   126    1
   117    34    35    1
   118    38    35    1
   119    37    36    2
   120   126   127    1
   121    35    36    1
   122    45    46    1
   123    45    44    1
   124    46    47    1
   125    43    44    1
   126    43    40    1
   127    32    31    1
   128     7     6    1
   129    39    40    1
   130    33    31    1
   131    40    41    1
   132    31    28    1
   133    42    41    2
   134     6     8    1
   135     6     5    1
   136     5     2    1
   137    24    23    1
   138    24    25    1
   139    28    29    1
   140    28    27    1
   141    23    15   am
   142     4     3    2
   143    29    30    2
   144    16    15    2
   145     2     3    1
   146     2     1    1
   147     3     9   am
   148    25    26    2
   149    15    14    1
   150     9    10    1
   151    10    11    1
   152    13    11   am
   153    13    14    1
   154    11    12    2
   155    14    17    1
   156    17    18    1
   157    19    18   ar
   158    19    21   ar
   159    18    20   ar
   160    21    22   ar
   161    20    22   ar
