@<TRIPOS>MOLECULE
tmp/3lctA00.pdb
 158 150 0 0 0
SMALL
GASTEIGER

@<TRIPOS>ATOM
      1  N        -23.8310   10.4260   -0.8210 N.3    30  LEU30      -0.1231
      2  CA       -23.5740    9.4650   -1.8860 C.3    30  LEU30       0.1693
      3  C        -22.1550    8.8400   -1.9060 C.2    30  LEU30       0.2593
      4  O        -21.5860    8.5920   -2.9630 O.2    30  LEU30      -0.2718
      5  CB       -23.8070   10.1330   -3.2600 C.3    30  LEU30       0.0284
      6  CG       -25.2160   10.3370   -3.8130 C.3    30  LEU30       0.0019
      7  CD1      -25.0920   10.7400   -5.2780 C.3    30  LEU30       0.0001
      8  CD2      -26.0630    9.0880   -3.6930 C.3    30  LEU30       0.0001
      9  N        -21.6030    8.5580   -0.7490 N.am   31  GLY31      -0.1942
     10  CA       -20.2160    8.1660   -0.6530 C.3    31  GLY31       0.2014
     11  C        -19.5760    9.2850    0.1210 C.2    31  GLY31       0.2639
     12  O        -19.4750    9.2230    1.3580 O.2    31  GLY31      -0.2714
     13  N        -19.2600   10.3510   -0.6080 N.am   32  HIS32      -0.1959
     14  CA       -18.4410   11.4760   -0.1390 C.3    32  HIS32       0.1787
     15  C        -17.0440   11.2720   -0.7280 C.2    32  HIS32       0.2621
     16  O        -16.9150   10.9470   -1.9160 O.2    32  HIS32      -0.2715
     17  CB       -18.4010   11.6550    1.3940 C.3    32  HIS32       0.0785
     18  CG       -19.7140   12.0590    2.0010 C.ar   32  HIS32       0.0821
     19  ND1      -19.9820   11.9210    3.3500 N.ar   32  HIS32      -0.2267
     20  CD2      -20.8440   12.5600    1.4440 C.ar   32  HIS32       0.1154
     21  CE1      -21.2110   12.3370    3.6010 C.ar   32  HIS32       0.1986
     22  NE2      -21.7590   12.7180    2.4590 N.ar   32  HIS32      -0.2212
     23  N        -16.0130   11.4340    0.0900 N.am   33  GLY33      -0.1940
     24  CA       -14.6440   11.4870   -0.4090 C.3    33  GLY33       0.2014
     25  C        -13.8270   12.1230    0.6860 C.2    33  GLY33       0.2639
     26  O        -14.3140   12.3070    1.8070 O.2    33  GLY33      -0.2714
     27  N        -12.5930   12.4790    0.3740 N.am   34  ALA34      -0.1963
     28  CA       -11.7290   13.0750    1.3920 C.3    34  ALA34       0.1728
     29  C        -11.8110   14.6000    1.4190 C.2    34  ALA34       0.2616
     30  O        -11.7020   15.2120    2.4820 O.2    34  ALA34      -0.2715
     31  CB       -10.2810   12.5920    1.2240 C.3    34  ALA34       0.0334
     32  N        -11.9930   15.2120    0.2530 N.am   35  PHE35      -0.1960
     33  CA       -12.1400   16.6710    0.1870 C.3    35  PHE35       0.1771
     34  C        -13.4560   17.0710   -0.4770 C.2    35  PHE35       0.2620
     35  O        -13.5330   17.2860   -1.6960 O.2    35  PHE35      -0.2715
     36  CB       -10.9220   17.3430   -0.4940 C.3    35  PHE35       0.0574
     37  CG       -10.8300   18.8370   -0.2530 C.ar   35  PHE35      -0.0200
     38  CD1      -10.3710   19.3360    0.9690 C.ar   35  PHE35      -0.0042
     39  CD2      -11.2160   19.7410   -1.2460 C.ar   35  PHE35      -0.0042
     40  CE1      -10.2970   20.7290    1.2100 C.ar   35  PHE35      -0.0003
     41  CE2      -11.1390   21.1190   -1.0360 C.ar   35  PHE35      -0.0003
     42  CZ       -10.6820   21.6220    0.2040 C.ar   35  PHE35      -0.0000
     43  N        -14.4820   17.1920    0.3490 N.am   36  GLY36      -0.1954
     44  CA       -15.8020   17.5610   -0.1260 C.3    36  GLY36       0.1869
     45  C        -16.7380   16.3710   -0.0610 C.2    36  GLY36       0.2309
     46  O        -16.3100   15.2020    0.0050 O.2    36  GLY36      -0.2863
     47  N        -20.4980   14.5420   -1.5560 N.3    38  VAL38      -0.1245
     48  CA       -21.4170   14.4900   -2.6910 C.3    38  VAL38       0.1561
     49  C        -22.7210   13.9800   -2.1560 C.2    38  VAL38       0.2260
     50  O        -22.7180   12.9730   -1.4410 O.2    38  VAL38      -0.2867
     51  CB       -20.9440   13.5950   -3.8710 C.3    38  VAL38       0.0252
     52  CG1      -22.1140   13.3410   -4.8030 C.3    38  VAL38       0.0019
     53  CG2      -19.8240   14.2660   -4.6400 C.3    38  VAL38       0.0019
     54  N        -26.9280   15.8060   -8.3670 N.3    56  ALA56      -0.1245
     55  CA       -25.8590   15.5000   -7.4340 C.3    56  ALA56       0.1562
     56  C        -25.2660   16.8480   -6.9840 C.2    56  ALA56       0.2260
     57  O        -25.0750   17.7370   -7.8070 O.2    56  ALA56      -0.2867
     58  CB       -24.7770   14.5900   -8.0760 C.3    56  ALA56       0.0290
     59  N        -22.1560   18.6190   -5.0990 N.3    58  LYS58      -0.1245
     60  CA       -20.7480   18.6120   -4.6170 C.3    58  LYS58       0.1561
     61  C        -20.4630   19.8020   -3.7000 C.2    58  LYS58       0.2260
     62  O        -20.7110   20.9670   -4.0830 O.2    58  LYS58      -0.2867
     63  CB       -19.7780   18.6560   -5.8010 C.3    58  LYS58       0.0271
     64  CG       -18.3230   18.3710   -5.5850 C.3    58  LYS58       0.0035
     65  CD       -17.8650   17.0530   -6.1990 C.3    58  LYS58       0.0206
     66  CE       -16.5680   16.5700   -5.5320 C.3    58  LYS58       0.1093
     67  NZ       -16.4550   16.9290   -4.0930 N.3    58  LYS58      -0.1314
     68  N        -21.0810   14.7470  -18.1490 N.3    88  VAL88      -0.1245
     69  CA       -22.0200   15.1700  -17.1180 C.3    88  VAL88       0.1561
     70  C        -22.3370   16.6400  -17.2510 C.2    88  VAL88       0.2260
     71  O        -21.4380   17.4770  -17.5100 O.2    88  VAL88      -0.2867
     72  CB       -21.4000   14.8350  -15.7240 C.3    88  VAL88       0.0252
     73  CG1      -22.3240   15.1680  -14.5360 C.3    88  VAL88       0.0019
     74  CG2      -21.1090   13.3670  -15.6700 C.3    88  VAL88       0.0019
     75  N        -24.7740   18.9360  -10.1530 N.3   104  LEU104     -0.1231
     76  CA       -24.4730   18.1930  -11.3840 C.3   104  LEU104      0.1693
     77  C        -25.6030   17.2270  -11.6750 C.2   104  LEU104      0.2592
     78  O        -26.3560   16.8530  -10.7600 O.2   104  LEU104     -0.2718
     79  CB       -23.1550   17.4330  -11.2090 C.3   104  LEU104      0.0284
     80  CG       -21.9730   18.3690  -10.8270 C.3   104  LEU104      0.0019
     81  CD1      -20.8360   17.5830  -10.1900 C.3   104  LEU104      0.0001
     82  CD2      -21.4650   19.1290  -12.0190 C.3   104  LEU104      0.0001
     83  N        -25.7380   16.8920  -12.9520 N.am  105  GLU105     -0.1966
     84  CA       -26.5460   15.7890  -13.3970 C.3   105  GLU105      0.1733
     85  C        -26.4370   14.6170  -12.3980 C.2   105  GLU105      0.2616
     86  O        -25.3410   14.1180  -12.1350 O.2   105  GLU105     -0.2715
     87  CB       -26.0030   15.3140  -14.7590 C.3   105  GLU105      0.0429
     88  CG       -26.7610   14.1780  -15.3990 C.3   105  GLU105      0.1163
     89  CD       -26.3820   13.9910  -16.8810 C.2   105  GLU105      0.3649
     90  OE1      -25.4980   14.6880  -17.4060 O.co2 105  GLU105     -0.2457
     91  OE2      -26.9570   13.1120  -17.5330 O.co2 105  GLU105     -0.2457
     92  N        -27.5550   14.1530  -11.8660 N.am  106  LEU106     -0.1963
     93  CA       -27.5010   12.9860  -11.0130 C.3   106  LEU106      0.1728
     94  C        -27.2660   11.7140  -11.8060 C.2   106  LEU106      0.2616
     95  O        -28.0600   11.3560  -12.6390 O.2   106  LEU106     -0.2715
     96  CB       -28.7280   12.8560  -10.1630 C.3   106  LEU106      0.0311
     97  CG       -28.6540   11.5990   -9.2880 C.3   106  LEU106      0.0022
     98  CD1      -27.8650   11.8510   -8.0220 C.3   106  LEU106      0.0001
     99  CD2      -30.0600   11.1380   -9.0090 C.3   106  LEU106      0.0001
    100  N        -26.1370   11.0620  -11.5530 N.am  107  MET107     -0.1977
    101  CA       -25.7680    9.8360  -12.2430 C.3   107  MET107      0.1605
    102  C        -26.0560    8.6010  -11.3420 C.2   107  MET107      0.2287
    103  O        -25.1790    8.1250  -10.5960 O.2   107  MET107     -0.2864
    104  CB       -24.3000    9.9240  -12.6530 C.3   107  MET107      0.0413
    105  CG       -23.9600   11.0960  -13.5820 C.3   107  MET107      0.0598
    106  SD       -24.7940   10.9990  -15.1930 S.3   107  MET107     -0.1393
    107  CE       -23.7550    9.7860  -16.0270 C.3   107  MET107      0.0692
    108  N        -23.9440    5.3310  -10.6520 N.3   110  GLY110     -0.1210
    109  CA       -22.6980    5.4860   -9.8990 C.3   110  GLY110      0.1956
    110  C        -21.5000    5.5220  -10.8050 C.2   110  GLY110      0.2611
    111  O        -21.6380    5.6180  -12.0470 O.2   110  GLY110     -0.2717
    112  N        -20.3180    5.4520  -10.2030 N.am  111  ASP111     -0.1973
    113  CA       -19.0940    5.3870  -11.0090 C.3   111  ASP111      0.1709
    114  C        -18.9230    4.0360  -11.6950 C.2   111  ASP111      0.2293
    115  O        -19.4260    3.0290  -11.2290 O.2   111  ASP111     -0.2864
    116  CB       -17.8420    5.7960  -10.2320 C.3   111  ASP111      0.1436
    117  CG       -17.2840    4.6690   -9.3580 C.2   111  ASP111      0.3671
    118  OD1      -16.3720    3.9380   -9.8220 O.co2 111  ASP111     -0.2456
    119  OD2      -17.7320    4.5310   -8.2050 O.co2 111  ASP111     -0.2456
    120  N        -12.9170    5.0710  -12.6330 N.3   161  ARG161     -0.1231
    121  CA       -13.4550    5.7770  -11.4370 C.3   161  ARG161      0.1694
    122  C        -13.9030    7.2310  -11.7730 C.2   161  ARG161      0.2592
    123  O        -14.6370    7.8620  -11.0030 O.2   161  ARG161     -0.2718
    124  CB       -12.4530    5.8130  -10.2810 C.3   161  ARG161      0.0321
    125  CG       -11.3460    6.7730  -10.5860 C.3   161  ARG161      0.0489
    126  CD       -10.2030    6.8850   -9.5730 C.3   161  ARG161      0.2205
    127  NE        -9.1070    7.5640  -10.2910 N.pl3 161  ARG161     -0.0865
    128  CZ        -8.0730    6.9390  -10.8660 C.cat 161  ARG161      0.5346
    129  NH1       -7.9600    5.6220  -10.7420 N.pl3 161  ARG161      0.1354
    130  NH2       -7.1440    7.6200  -11.5420 N.pl3 161  ARG161      0.1354
    131  N        -13.4880    7.7360  -12.9360 N.am  162  ASN162     -0.1974
    132  CA       -13.8360    9.0930  -13.3250 C.3   162  ASN162      0.1688
    133  C        -14.9940    9.1210  -14.3170 C.2   162  ASN162      0.2292
    134  O        -15.3930   10.2000  -14.7750 O.2   162  ASN162     -0.2864
    135  CB       -12.6190    9.8560  -13.8730 C.3   162  ASN162      0.1181
    136  CG       -11.5940   10.1300  -12.8230 C.2   162  ASN162      0.2629
    137  OD1      -11.9110   10.1390  -11.6210 O.2   162  ASN162     -0.2716
    138  ND2      -10.3210   10.2960  -13.2480 N.am  162  ASN162     -0.0877
    139  N        -19.0880    7.9360  -15.0380 N.3   164  LEU164     -0.1245
    140  CA       -20.3210    7.6390  -14.3190 C.3   164  LEU164      0.1561
    141  C        -21.4100    7.1280  -15.2530 C.2   164  LEU164      0.2260
    142  O        -21.3480    7.3350  -16.4930 O.2   164  LEU164     -0.2867
    143  CB       -20.8020    8.8620  -13.5480 C.3   164  LEU164      0.0270
    144  CG       -19.8210    9.4170  -12.4950 C.3   164  LEU164      0.0019
    145  CD1      -19.8530   10.8850  -12.5900 C.3   164  LEU164      0.0001
    146  CD2      -20.1210    8.9960  -11.0510 C.3   164  LEU164      0.0001
    147  N        -17.1620   12.2060  -15.7850 N.3   177  GLY177     -0.1210
    148  CA       -17.7280   13.0510  -14.7470 C.3   177  GLY177      0.1956
    149  C        -16.7130   13.6830  -13.8240 C.2   177  GLY177      0.2611
    150  O        -17.0850   14.2120  -12.7890 O.2   177  GLY177     -0.2717
    151  N        -15.4280   13.5970  -14.1460 N.am  178  ASP178     -0.1973
    152  CA       -14.4430   14.1610  -13.2420 C.3   178  ASP178      0.1709
    153  C        -13.4150   14.9140  -14.0130 C.2   178  ASP178      0.2293
    154  O        -12.8820   14.4180  -14.9780 O.2   178  ASP178     -0.2864
    155  CB       -13.7710   13.1010  -12.3740 C.3   178  ASP178      0.1436
    156  CG       -12.8910   13.7230  -11.3120 C.2   178  ASP178      0.3671
    157  OD1      -11.8020   14.2520  -11.6330 O.co2 178  ASP178     -0.2456
    158  OD2      -13.3010   13.7030  -10.1420 O.co2 178  ASP178     -0.2456
@<TRIPOS>BOND
     1    68    69    1
     2    91    89   ar
     3    71    70    2
     4    90    89   ar
     5    70    69    1
     6    69    72    1
     7    89    88    1
     8   142   141    2
     9   107   106    1
    10   147   148    1
    11    72    74    1
    12    72    73    1
    13    88    87    1
    14   141   140    1
    15   106   105    1
    16   139   140    1
    17   154   153    2
    18   134   133    2
    19    87    84    1
    20   148   149    1
    21   140   143    1
    22   133   132    1
    23   151   149   am
    24   151   152    1
    25   153   152    1
    26   135   132    1
    27   135   136    1
    28   149   150    2
    29   105   104    1
    30   143   144    1
    31    84    83    1
    32    84    85    1
    33   132   131    1
    34   138   136   am
    35   152   155    1
    36    83    77   am
    37   131   122   am
    38   136   137    2
    39   104   101    1
    40    95    94    2
    41   120   121    1
    42   145   144    1
    43   144   146    1
    44    85    86    2
    45    85    92   am
    46   155   156    1
    47   101   100    1
    48   101   102    1
    49   111   110    2
    50    82    80    1
    51    92    93    1
    52    94   100   am
    53    94    93    1
    54   122   121    1
    55   122   123    2
    56   114   115    2
    57   114   113    1
    58    77    76    1
    59    77    78    2
    60   157   156   ar
    61   130   128    1
    62   121   124    1
    63    76    79    1
    64    76    75    1
    65   102   103    2
    66   156   158   ar
    67    79    80    1
    68    93    96    1
    69   113   116    1
    70   113   112    1
    71   128   129    1
    72   128   127    2
    73    80    81    1
    74   110   112   am
    75   110   109    1
    76   108   109    1
    77   125   124    1
    78   125   126    1
    79   127   126    1
    80   116   117    1
    81    96    97    1
    82   118   117   ar
    83   117   119   ar
    84    97    99    1
    85    97    98    1
    86    54    55    1
    87    58    55    1
    88    57    56    2
    89    55    56    1
    90    65    64    1
    91    65    66    1
    92    63    64    1
    93    63    60    1
    94    66    67    1
    95     7     6    1
    96    59    60    1
    97    52    51    1
    98    53    51    1
    99    60    61    1
   100    62    61    2
   101    51    48    1
   102     6     8    1
   103     6     5    1
   104     5     2    1
   105     4     3    2
   106    48    49    1
   107    48    47    1
   108    49    50    2
   109    16    15    2
   110     3     2    1
   111     3     9   am
   112     2     1    1
   113    35    34    2
   114    39    41   ar
   115    39    37   ar
   116    41    42   ar
   117     9    10    1
   118    15    14    1
   119    15    23   am
   120    10    11    1
   121    13    14    1
   122    13    11   am
   123    36    37    1
   124    36    33    1
   125    34    33    1
   126    34    43   am
   127    24    23    1
   128    24    25    1
   129    37    38   ar
   130    14    17    1
   131    44    45    1
   132    44    43    1
   133    45    46    2
   134    11    12    2
   135    33    32    1
   136    42    40   ar
   137    32    29   am
   138    27    25   am
   139    27    28    1
   140    25    26    2
   141    38    40   ar
   142    31    28    1
   143    28    29    1
   144    17    18    1
   145    29    30    2
   146    20    18   ar
   147    20    22   ar
   148    18    19   ar
   149    22    21   ar
   150    19    21   ar
