@<TRIPOS>MOLECULE
tmp/3lcuA00.pdb
 223 212 0 0 0
SMALL
GASTEIGER

@<TRIPOS>ATOM
      1  N         13.8220   13.3380    9.6540 N.3    26  ARG26      -0.1245
      2  CA        14.3570   12.2130    8.8970 C.3    26  ARG26       0.1563
      3  C         13.3160   11.7320    7.8860 C.2    26  ARG26       0.2260
      4  O         13.6280   11.5280    6.7120 O.2    26  ARG26      -0.2867
      5  CB        14.7360   11.0650    9.8340 C.3    26  ARG26       0.0307
      6  CG        15.3190    9.8540    9.1090 C.3    26  ARG26       0.0489
      7  CD        15.9080    8.8560   10.0900 C.3    26  ARG26       0.2205
      8  NE        14.9110    8.3610   11.0340 N.pl3  26  ARG26      -0.0865
      9  CZ        13.8990    7.5700   10.7000 C.cat  26  ARG26       0.5346
     10  NH1       13.7530    7.1800    9.4390 N.pl3  26  ARG26       0.1354
     11  NH2       13.0260    7.1780   11.6230 N.pl3  26  ARG26       0.1354
     12  N          5.0130    3.6280   11.6520 N.3    53  ILE53      -0.1231
     13  CA         5.9460    3.3650   12.7350 C.3    53  ILE53       0.1692
     14  C          5.4870    3.8250   14.1120 C.2    53  ILE53       0.2592
     15  O          6.0130    3.3680   15.1240 O.2    53  ILE53      -0.2718
     16  CB         7.3240    4.0170   12.4470 C.3    53  ILE53       0.0266
     17  CG1        7.1960    5.5380   12.4420 C.3    53  ILE53       0.0019
     18  CG2        7.8510    3.5470   11.1050 C.3    53  ILE53       0.0020
     19  CD1        8.5150    6.2540   12.2400 C.3    53  ILE53       0.0001
     20  N          4.5090    4.7220   14.1510 N.am   54  TYR54      -0.1976
     21  CA         4.0290    5.2540   15.4200 C.3    54  TYR54       0.1639
     22  C          2.5060    5.3140   15.5620 C.2    54  TYR54       0.2290
     23  O          1.9270    4.6420   16.4100 O.2    54  TYR54      -0.2864
     24  CB         4.6130    6.6550   15.6240 C.3    54  TYR54       0.0560
     25  CG         4.0440    7.3990   16.8130 C.ar   54  TYR54      -0.0198
     26  CD1        4.4280    7.0720   18.1150 C.ar   54  TYR54      -0.0009
     27  CD2        3.1000    8.4120   16.6360 C.ar   54  TYR54      -0.0009
     28  CE1        3.8830    7.7400   19.2150 C.ar   54  TYR54       0.0417
     29  CE2        2.5450    9.0820   17.7280 C.ar   54  TYR54       0.0417
     30  CZ         2.9420    8.7400   19.0140 C.ar   54  TYR54       0.1957
     31  OH         2.3960    9.3860   20.1010 O.3    54  TYR54      -0.2866
     32  N          0.0190    2.3810   16.4750 N.3    57  PHE57      -0.1227
     33  CA        -0.0500    1.8030   17.8110 C.3    57  PHE57       0.1736
     34  C         -0.8470    2.6340   18.8150 C.2    57  PHE57       0.2595
     35  O         -1.3400    2.1070   19.8110 O.2    57  PHE57      -0.2718
     36  CB         1.3660    1.5980   18.3540 C.3    57  PHE57       0.0547
     37  CG         2.2590    0.8090   17.4410 C.ar   57  PHE57      -0.0202
     38  CD1        2.0260   -0.5380   17.2140 C.ar   57  PHE57      -0.0042
     39  CD2        3.3480    1.4130   16.8230 C.ar   57  PHE57      -0.0042
     40  CE1        2.8640   -1.2780   16.3860 C.ar   57  PHE57      -0.0003
     41  CE2        4.1910    0.6820   15.9930 C.ar   57  PHE57      -0.0003
     42  CZ         3.9480   -0.6690   15.7760 C.ar   57  PHE57      -0.0000
     43  N         -0.9900    3.9240   18.5440 N.am   58  LEU58      -0.1980
     44  CA        -1.6740    4.8170   19.4680 C.3    58  LEU58       0.1596
     45  C         -3.0310    5.3550   18.9750 C.2    58  LEU58       0.2287
     46  O         -3.4590    5.0700   17.8590 O.2    58  LEU58      -0.2864
     47  CB        -0.7080    5.9650   19.8290 C.3    58  LEU58       0.0297
     48  CG         0.5730    5.6700   20.6560 C.3    58  LEU58       0.0022
     49  CD1        0.2610    5.4990   22.0820 C.3    58  LEU58       0.0001
     50  CD2        1.2390    4.4210   20.1830 C.3    58  LEU58       0.0001
     51  N         -1.5280    1.7070   24.5460 N.3    94  HIS94      -0.1241
     52  CA        -0.6020    1.4710   23.4480 C.3    94  HIS94       0.1621
     53  C         -0.9320    0.0830   22.9130 C.2    94  HIS94       0.2264
     54  O         -0.8140   -0.9100   23.6230 O.2    94  HIS94      -0.2867
     55  CB         0.8390    1.5250   23.9470 C.3    94  HIS94       0.0745
     56  CG         1.8620    1.4860   22.8530 C.ar   94  HIS94       0.0817
     57  ND1        2.0890    0.3670   22.0810 N.ar   94  HIS94      -0.2268
     58  CD2        2.7670    2.4100   22.4490 C.ar   94  HIS94       0.1154
     59  CE1        3.0960    0.5990   21.2570 C.ar   94  HIS94       0.1986
     60  NE2        3.5250    1.8310   21.4600 N.ar   94  HIS94      -0.2212
     61  N          0.5170   -2.1010   20.8420 N.3    96  SER96      -0.1202
     62  CA         1.5130   -3.1630   20.8920 C.3    96  SER96       0.2020
     63  C          1.7350   -3.6590   22.3210 C.2    96  SER96       0.2619
     64  O          1.7630   -4.8620   22.5700 O.2    96  SER96      -0.2717
     65  CB         2.8380   -2.6880   20.3000 C.3    96  SER96       0.2103
     66  OG         3.7700   -3.7570   20.2550 O.3    96  SER96      -0.2182
     67  N          1.8740   -2.7290   23.2610 N.am   97  THR97      -0.1952
     68  CA         2.1020   -3.0910   24.6570 C.3    97  THR97       0.1897
     69  C          0.9170   -3.8750   25.2200 C.2    97  THR97       0.2313
     70  O          1.0740   -4.7680   26.0540 O.2    97  THR97      -0.2863
     71  CB         2.3160   -1.8420   25.5320 C.3    97  THR97       0.1794
     72  OG1        3.3560   -1.0240   24.9760 O.3    97  THR97      -0.2208
     73  CG2        2.7170   -2.2590   26.9130 C.3    97  THR97       0.0378
     74  N          0.8590   -7.8530   25.2650 N.3   100  ARG100     -0.1245
     75  CA         1.6430   -8.6390   26.2130 C.3   100  ARG100      0.1563
     76  C          1.0200   -8.7340   27.6070 C.2   100  ARG100      0.2260
     77  O          1.3300   -9.6530   28.3720 O.2   100  ARG100     -0.2867
     78  CB         3.0470   -8.0340   26.3230 C.3   100  ARG100      0.0307
     79  CG         4.1290   -8.9600   26.8750 C.3   100  ARG100      0.0489
     80  CD         5.4990   -8.5320   26.3140 C.3   100  ARG100      0.2205
     81  NE         5.5870   -7.1030   26.4930 N.pl3 100  ARG100     -0.0865
     82  CZ         5.9850   -6.2120   25.5960 C.cat 100  ARG100      0.5346
     83  NH1        6.3910   -6.5570   24.3850 N.pl3 100  ARG100      0.1354
     84  NH2        5.8810   -4.9380   25.9140 N.pl3 100  ARG100      0.1354
     85  N         15.4210    0.2160   27.8430 N.3   123  ASP123     -0.1225
     86  CA        14.2390   -0.1880   27.0740 C.3   123  ASP123      0.1805
     87  C         14.0930    0.7800   25.8960 C.2   123  ASP123      0.2598
     88  O         13.6340    1.9140   26.0660 O.2   123  ASP123     -0.2718
     89  CB        13.0080   -0.1200   27.9930 C.3   123  ASP123      0.1424
     90  CG        11.8020   -0.8930   27.4570 C.2   123  ASP123      0.3668
     91  OD1       11.8610   -1.4620   26.3490 O.co2 123  ASP123     -0.2456
     92  OD2       10.7790   -0.9330   28.1660 O.co2 123  ASP123     -0.2456
     93  N         14.5100    0.3350   24.7120 N.am  124  LEU124     -0.1966
     94  CA        14.4510    1.1450   23.4950 C.3   124  LEU124      0.1728
     95  C         13.1070    0.9730   22.7780 C.2   124  LEU124      0.2616
     96  O         12.5440   -0.1240   22.7820 O.2   124  LEU124     -0.2715
     97  CB        15.6080    0.7530   22.5700 C.3   124  LEU124      0.0311
     98  CG        16.9870    0.8840   23.2250 C.3   124  LEU124      0.0022
     99  CD1       18.0570    0.3390   22.2900 C.3   124  LEU124      0.0001
    100  CD2       17.2600    2.3350   23.5540 C.3   124  LEU124      0.0001
    101  N         12.6120    2.0430   22.1500 N.am  125  ALA125     -0.1963
    102  CA        11.3030    2.0200   21.4760 C.3   125  ALA125      0.1728
    103  C         10.3430    1.4000   22.4950 C.2   125  ALA125      0.2616
    104  O          9.5040    0.5610   22.1580 O.2   125  ALA125     -0.2715
    105  CB        11.3600    1.1600   20.2130 C.3   125  ALA125      0.0334
    106  N         10.4700    1.8570   23.7390 N.am  126  CYS126     -0.1954
    107  CA         9.7250    1.3140   24.8750 C.3   126  CYS126      0.1843
    108  C          8.2030    1.2280   24.8920 C.2   126  CYS126      0.2626
    109  O          7.6520    0.3810   25.5960 O.2   126  CYS126     -0.2714
    110  CB        10.1910    2.0180   26.1630 C.3   126  CYS126      0.0997
    111  SG         9.6030    3.7260   26.3650 S.3   126  CYS126     -0.0797
    112  N          7.5040    2.0720   24.1450 N.am  127  GLY127     -0.1954
    113  CA         6.0540    2.0080   24.2120 C.3   127  GLY127      0.1869
    114  C          5.7040    2.2260   25.6770 C.2   127  GLY127      0.2309
    115  O          6.3650    3.0090   26.3490 O.2   127  GLY127     -0.2863
    116  N          5.7510   -0.2280   27.9400 N.3   129  ASN129     -0.1240
    117  CA         6.3480   -1.3660   28.6370 C.3   129  ASN129      0.1653
    118  C          6.9900   -1.0880   30.0080 C.2   129  ASN129      0.2266
    119  O          6.9210   -1.9340   30.9100 O.2   129  ASN129     -0.2867
    120  CB         7.3690   -2.0490   27.7170 C.3   129  ASN129      0.1155
    121  CG         7.9950   -3.2740   28.3460 C.2   129  ASN129      0.2627
    122  OD1        9.2100   -3.3260   28.5710 O.2   129  ASN129     -0.2716
    123  ND2        7.1710   -4.2700   28.6380 N.am  129  ASN129     -0.0877
    124  N         11.6310    6.4500   23.6000 N.3   147  ASP147     -0.1225
    125  CA        10.7660    6.1780   22.4710 C.3   147  ASP147      0.1805
    126  C         10.7580    7.4160   21.5890 C.2   147  ASP147      0.2597
    127  O         11.5280    8.3480   21.8110 O.2   147  ASP147     -0.2718
    128  CB         9.3400    5.8080   22.9050 C.3   147  ASP147      0.1424
    129  CG         8.6180    4.9550   21.8610 C.2   147  ASP147      0.3668
    130  OD1        8.4450    5.4170   20.7180 O.co2 147  ASP147     -0.2456
    131  OD2        8.2250    3.8100   22.1670 O.co2 147  ASP147     -0.2456
    132  N          9.8570    7.4330   20.6190 N.am  148  ILE148     -0.1980
    133  CA         9.7710    8.5090   19.6390 C.3   148  ILE148      0.1595
    134  C          8.7370    9.6200   19.8880 C.2   148  ILE148      0.2287
    135  O          8.5450   10.5030   19.0530 O.2   148  ILE148     -0.2864
    136  CB         9.5950    7.8470   18.2260 C.3   148  ILE148      0.0276
    137  CG1       10.7040    8.3330   17.3090 C.3   148  ILE148      0.0022
    138  CG2        8.2160    8.0670   17.6550 C.3   148  ILE148      0.0022
    139  CD1       12.0530    7.8950   17.7700 C.3   148  ILE148      0.0001
    140  N          4.4660   10.5950   25.3680 N.3   152  LEU152     -0.1245
    141  CA         4.4420    9.2010   25.8050 C.3   152  LEU152      0.1561
    142  C          5.6020    8.9720   26.7650 C.2   152  LEU152      0.2260
    143  O          5.4220    8.4430   27.8540 O.2   152  LEU152     -0.2867
    144  CB         4.5780    8.2420   24.6160 C.3   152  LEU152      0.0270
    145  CG         4.5990    6.7730   25.0700 C.3   152  LEU152      0.0019
    146  CD1        3.8640    5.9080   24.0710 C.3   152  LEU152      0.0001
    147  CD2        6.0330    6.3080   25.2580 C.3   152  LEU152      0.0001
    148  N         14.4200    9.3330   21.8180 N.3   172  ALA172     -0.1231
    149  CA        15.5140    8.9370   20.9470 C.3   172  ALA172      0.1694
    150  C         15.0500    8.0920   19.7790 C.2   172  ALA172      0.2592
    151  O         14.2280    7.1940   19.9480 O.2   172  ALA172     -0.2718
    152  CB        16.5590    8.1770   21.7520 C.3   172  ALA172      0.0304
    153  N         15.5780    8.3980   18.5970 N.am  173  ASP173     -0.1960
    154  CA        15.2610    7.6630   17.3770 C.3   173  ASP173      0.1840
    155  C         16.4100    6.6780   17.1820 C.2   173  ASP173      0.2622
    156  O         17.5610    7.0810   17.0070 O.2   173  ASP173     -0.2715
    157  CB        15.1830    8.6220   16.1840 C.3   173  ASP173      0.1450
    158  CG        14.7250    7.9370   14.9130 C.2   173  ASP173      0.3671
    159  OD1       15.2420    6.8420   14.6030 O.co2 173  ASP173     -0.2456
    160  OD2       13.8500    8.4980   14.2210 O.co2 173  ASP173     -0.2456
    161  N         16.0890    5.3890   17.2280 N.am  174  LEU174     -0.1963
    162  CA        17.0780    4.3240   17.0930 C.3   174  LEU174      0.1728
    163  C         17.9390    4.3940   15.8400 C.2   174  LEU174      0.2616
    164  O         19.0240    3.8250   15.8070 O.2   174  LEU174     -0.2715
    165  CB        16.3900    2.9490   17.1620 C.3   174  LEU174      0.0311
    166  CG        15.8640    2.5040   18.5390 C.3   174  LEU174      0.0022
    167  CD1       15.1580    1.1480   18.4340 C.3   174  LEU174      0.0001
    168  CD2       17.0270    2.4180   19.5140 C.3   174  LEU174      0.0001
    169  N         17.4610    5.0920   14.8170 N.am  175  LEU175     -0.1977
    170  CA        18.2060    5.1990   13.5720 C.3   175  LEU175      0.1596
    171  C         19.1790    6.3810   13.5220 C.2   175  LEU175      0.2287
    172  O         19.8310    6.5980   12.5030 O.2   175  LEU175     -0.2864
    173  CB        17.2330    5.2720   12.3880 C.3   175  LEU175      0.0297
    174  CG        16.2690    4.0900   12.2370 C.3   175  LEU175      0.0022
    175  CD1       15.5130    4.2100   10.9280 C.3   175  LEU175      0.0001
    176  CD2       17.0370    2.7880   12.2820 C.3   175  LEU175      0.0001
    177  N         11.8860   -4.8690   22.3630 N.3   189  LEU189     -0.1231
    178  CA        10.6560   -5.6360   22.2540 C.3   189  LEU189      0.1693
    179  C          9.8210   -5.2090   21.0600 C.2   189  LEU189      0.2592
    180  O          9.4600   -4.0380   20.9320 O.2   189  LEU189     -0.2718
    181  CB         9.8420   -5.4980   23.5500 C.3   189  LEU189      0.0284
    182  CG        10.5930   -5.7400   24.8670 C.3   189  LEU189      0.0019
    183  CD1        9.6200   -5.7460   26.0540 C.3   189  LEU189      0.0001
    184  CD2       11.3280   -7.0720   24.7880 C.3   189  LEU189      0.0001
    185  N          9.5420   -6.1690   20.1790 N.am  190  LYS190     -0.1966
    186  CA         8.7440   -5.9440   18.9750 C.3   190  LYS190      0.1728
    187  C          9.1000   -4.6290   18.2690 C.2   190  LYS190      0.2616
    188  O          8.2270   -3.8080   17.9670 O.2   190  LYS190     -0.2715
    189  CB         7.2550   -5.9790   19.3410 C.3   190  LYS190      0.0311
    190  CG         6.8690   -7.2360   20.1250 C.3   190  LYS190      0.0038
    191  CD         5.3570   -7.4280   20.2390 C.3   190  LYS190      0.0206
    192  CE         4.7140   -6.4260   21.1780 C.3   190  LYS190      0.1093
    193  NZ         3.2480   -6.6890   21.3480 N.3   190  LYS190     -0.1314
    194  N         10.3860   -4.4490   17.9910 N.am  191  THR191     -0.1951
    195  CA        10.8580   -3.2320   17.3460 C.3   191  THR191      0.1897
    196  C         11.5300   -3.4360   15.9910 C.2   191  THR191      0.2313
    197  O         11.2970   -2.6610   15.0650 O.2   191  THR191     -0.2863
    198  CB        11.8590   -2.4830   18.2550 C.3   191  THR191      0.1794
    199  OG1       11.2370   -2.1860   19.5090 O.3   191  THR191     -0.2208
    200  CG2       12.3010   -1.1900   17.6060 C.3   191  THR191      0.0378
    201  N          9.7530   -2.9540   12.6860 N.3   194  CYS194     -0.1221
    202  CA         9.4580   -1.5550   12.4230 C.3   194  CYS194      0.1808
    203  C         10.6900   -0.8210   11.8950 C.2   194  CYS194      0.2601
    204  O         10.5830   -0.0020   10.9740 O.2   194  CYS194     -0.2717
    205  CB         8.9520   -0.8770   13.6950 C.3   194  CYS194      0.0970
    206  SG         8.0040    0.6070   13.3690 S.3   194  CYS194     -0.0800
    207  N         11.8530   -1.1140   12.4750 N.am  195  LEU195     -0.1979
    208  CA        13.0990   -0.4810   12.0340 C.3   195  LEU195      0.1596
    209  C         13.4380   -0.9200   10.6050 C.2   195  LEU195      0.2287
    210  O         13.8270   -0.1040    9.7720 O.2   195  LEU195     -0.2864
    211  CB        14.2530   -0.8440   12.9760 C.3   195  LEU195      0.0297
    212  CG        14.1980   -0.3010   14.4130 C.3   195  LEU195      0.0022
    213  CD1       15.4040   -0.8050   15.1770 C.3   195  LEU195      0.0001
    214  CD2       14.1830    1.2290   14.4100 C.3   195  LEU195      0.0001
    215  N         11.6070    1.0120    8.1310 N.3   198  GLN198     -0.1245
    216  CA        12.1150    2.3740    7.9960 C.3   198  GLN198      0.1566
    217  C         13.4850    2.4190    7.3230 C.2   198  GLN198      0.2260
    218  O         13.7830    3.3450    6.5720 O.2   198  GLN198     -0.2867
    219  CB        12.2300    3.0360    9.3750 C.3   198  GLN198      0.0367
    220  CG        10.9790    2.9390   10.2190 C.3   198  GLN198      0.0905
    221  CD        11.1610    3.5030   11.6200 C.2   198  GLN198      0.2608
    222  OE1       10.6250    2.9650   12.5910 O.2   198  GLN198     -0.2717
    223  NE2       11.9030    4.5940   11.7290 N.am  198  GLN198     -0.0878
@<TRIPOS>BOND
     1   218   217    2
     2     4     3    2
     3   217   216    1
     4     3     2    1
     5   216   215    1
     6   216   219    1
     7     2     1    1
     8     2     5    1
     9     6     5    1
    10     6     7    1
    11   219   220    1
    12    10     9    1
    13   210   209    2
    14     7     8    1
    15   220   221    1
    16   209   208    1
    17     9     8    2
    18     9    11    1
    19   175   174    1
    20   204   203    2
    21    18    16    1
    22   221   223   am
    23   221   222    2
    24    12    13    1
    25   203   202    1
    26   203   207   am
    27   208   207    1
    28   208   211    1
    29   174   176    1
    30   174   173    1
    31    19    17    1
    32   173   170    1
    33   202   201    1
    34   202   205    1
    35    17    16    1
    36    16    13    1
    37   172   171    2
    38    13    14    1
    39   211   212    1
    40   206   205    1
    41   171   170    1
    42   170   169    1
    43    14    20   am
    44    14    15    2
    45    20    21    1
    46   160   158   ar
    47   214   212    1
    48   212   213    1
    49   159   158   ar
    50   169   163   am
    51   158   157    1
    52   197   196    2
    53    21    22    1
    54    21    24    1
    55    22    23    2
    56    24    25    1
    57    42    41   ar
    58    42    40   ar
    59   164   163    2
    60   163   162    1
    61   196   195    1
    62    41    39   ar
    63   157   154    1
    64    40    38   ar
    65    32    33    1
    66    27    25   ar
    67    27    29   ar
    68    25    26   ar
    69    39    37   ar
    70   156   155    2
    71   162   165    1
    72   162   161    1
    73   165   166    1
    74   155   161   am
    75   155   154    1
    76    38    37   ar
    77   137   139    1
    78   137   136    1
    79   195   194    1
    80   195   198    1
    81   154   153    1
    82    37    36    1
    83   200   198    1
    84   138   136    1
    85    29    30   ar
    86    33    36    1
    87    33    34    1
    88    46    45    2
    89   188   187    2
    90   194   187   am
    91    26    28   ar
    92   136   133    1
    93   198   199    1
    94   187   186    1
    95   167   166    1
    96   166   168    1
    97    43    34   am
    98    43    44    1
    99   153   150   am
   100    34    35    2
   101   186   189    1
   102   186   185    1
   103    45    44    1
   104    30    28   ar
   105    30    31    1
   106   135   134    2
   107   189   190    1
   108    44    47    1
   109   133   134    1
   110   133   132    1
   111   150   151    2
   112   150   149    1
   113    47    48    1
   114   190   191    1
   115   185   179   am
   116    50    48    1
   117   105   102    1
   118   191   192    1
   119    66    65    1
   120    65    62    1
   121   132   126   am
   122    48    49    1
   123   130   129   ar
   124    61    62    1
   125    62    63    1
   126   180   179    2
   127   149   152    1
   128   149   148    1
   129   179   178    1
   130   192   193    1
   131    59    60   ar
   132    59    57   ar
   133    60    58   ar
   134   102   101    1
   135   102   103    1
   136   126   127    2
   137   126   125    1
   138   129   131   ar
   139   129   128    1
   140    57    56   ar
   141   101    95   am
   142   104   103    2
   143   178   177    1
   144   178   181    1
   145    99    98    1
   146    63    64    2
   147    63    67   am
   148    58    56   ar
   149   125   128    1
   150   125   124    1
   151   103   106   am
   152    97    98    1
   153    97    94    1
   154    95    96    2
   155    95    94    1
   156    56    55    1
   157    53    52    1
   158    53    54    2
   159    98   100    1
   160    67    68    1
   161    52    55    1
   162    52    51    1
   163    94    93    1
   164   181   182    1
   165   106   107    1
   166   146   145    1
   167   112   113    1
   168   112   108   am
   169   113   114    1
   170    83    82    1
   171   144   145    1
   172   144   141    1
   173    68    69    1
   174    68    71    1
   175    93    87   am
   176   184   182    1
   177   182   183    1
   178   107   108    1
   179   107   110    1
   180   108   109    2
   181    72    71    1
   182   145   147    1
   183    69    70    2
   184    74    75    1
   185   140   141    1
   186    71    73    1
   187    82    84    1
   188    82    81    2
   189   114   115    2
   190   141   142    1
   191    87    88    2
   192    87    86    1
   193   110   111    1
   194    75    78    1
   195    75    76    1
   196    80    81    1
   197    80    79    1
   198    78    79    1
   199    91    90   ar
   200   142   143    2
   201    86    85    1
   202    86    89    1
   203    90    89    1
   204    90    92   ar
   205    76    77    2
   206   120   121    1
   207   120   117    1
   208   116   117    1
   209   121   122    2
   210   121   123   am
   211   117   118    1
   212   118   119    2
