@<TRIPOS>MOLECULE
tmp/3ld2B00.pdb
 218 216 0 0 0
SMALL
GASTEIGER

@<TRIPOS>ATOM
      1  N         36.5260   23.6390   64.7350 N.3    20  THR20      -0.1203
      2  CA        36.7640   24.5050   65.8640 C.3    20  THR20       0.1994
      3  C         37.2990   25.8910   65.5080 C.2    20  THR20       0.2617
      4  O         36.9590   26.8780   66.1790 O.2    20  THR20      -0.2717
      5  CB        37.7200   23.8790   66.8440 C.3    20  THR20       0.1784
      6  OG1       37.0430   22.8400   67.5620 O.3    20  THR20      -0.2211
      7  CG2       38.1830   24.9370   67.8320 C.3    20  THR20       0.0376
      8  N         38.1310   25.9680   64.4720 N.am   21  TRP21      -0.1975
      9  CA        38.7970   27.2210   64.1260 C.3    21  TRP21       0.1640
     10  C         37.9170   28.0900   63.2640 C.2    21  TRP21       0.2290
     11  O         37.4590   27.6780   62.2050 O.2    21  TRP21      -0.2864
     12  CB        40.1570   26.9760   63.4530 C.3    21  TRP21       0.0576
     13  CG        41.0410   26.1950   64.3510 C.ar   21  TRP21       0.0006
     14  CD1       41.5600   24.9520   64.1210 C.ar   21  TRP21       0.0946
     15  CD2       41.4580   26.5660   65.6770 C.ar   21  TRP21       0.0152
     16  NE1       42.2780   24.5330   65.2210 N.ar   21  TRP21      -0.2442
     17  CE2       42.2360   25.5070   66.1830 C.ar   21  TRP21       0.0810
     18  CE3       41.2630   27.6990   66.4740 C.ar   21  TRP21       0.0012
     19  CZ2       42.8150   25.5460   67.4440 C.ar   21  TRP21       0.0191
     20  CZ3       41.8380   27.7350   67.7310 C.ar   21  TRP21       0.0001
     21  CH2       42.6030   26.6580   68.2060 C.ar   21  TRP21       0.0015
     22  N         38.3880   33.1240   66.3240 N.3    25  ASN25      -0.1240
     23  CA        39.5220   32.6500   67.1230 C.3    25  ASN25       0.1653
     24  C         40.8800   32.5170   66.4240 C.2    25  ASN25       0.2266
     25  O         41.8760   32.2780   67.0830 O.2    25  ASN25      -0.2867
     26  CB        39.1790   31.3770   67.8980 C.3    25  ASN25       0.1155
     27  CG        38.7650   30.2310   66.9930 C.2    25  ASN25       0.2627
     28  OD1       39.2530   30.0950   65.8650 O.2    25  ASN25      -0.2716
     29  ND2       37.8420   29.4040   67.4800 N.am   25  ASN25      -0.0877
     30  N         51.7020   26.7890   72.6830 N.3    78  PHE78      -0.1227
     31  CA        50.7590   25.7070   72.4180 C.3    78  PHE78       0.1736
     32  C         49.4540   26.2190   71.8320 C.2    78  PHE78       0.2596
     33  O         49.1710   27.4210   71.8640 O.2    78  PHE78      -0.2718
     34  CB        50.4710   24.9130   73.6990 C.3    78  PHE78       0.0547
     35  CG        49.6110   25.6530   74.6970 C.ar   78  PHE78      -0.0202
     36  CD1       48.2550   25.3870   74.7960 C.ar   78  PHE78      -0.0042
     37  CD2       50.1570   26.6200   75.5240 C.ar   78  PHE78      -0.0042
     38  CE1       47.4500   26.0790   75.7030 C.ar   78  PHE78      -0.0003
     39  CE2       49.3650   27.3160   76.4380 C.ar   78  PHE78      -0.0003
     40  CZ        48.0140   27.0430   76.5250 C.ar   78  PHE78      -0.0000
     41  N         48.6680   25.2880   71.2930 N.am   79  GLY79      -0.1942
     42  CA        47.2990   25.5500   70.8860 C.3    79  GLY79       0.2014
     43  C         46.4030   24.5890   71.6420 C.2    79  GLY79       0.2639
     44  O         46.8860   23.6920   72.3540 O.2    79  GLY79      -0.2714
     45  N         45.0960   24.7730   71.5130 N.am   80  ILE80      -0.1963
     46  CA        44.1580   23.8920   72.1730 C.3    80  ILE80       0.1727
     47  C         42.7600   24.0660   71.5730 C.2    80  ILE80       0.2616
     48  O         42.4130   25.1520   71.1130 O.2    80  ILE80      -0.2715
     49  CB        44.1350   24.1150   73.6880 C.3    80  ILE80       0.0290
     50  CG1       43.2560   23.0530   74.3490 C.3    80  ILE80       0.0022
     51  CG2       43.6590   25.5180   73.9980 C.3    80  ILE80       0.0023
     52  CD1       43.2660   23.0950   75.8140 C.3    80  ILE80       0.0001
     53  N         41.9900   22.9760   71.5640 N.am   81  ALA81      -0.1963
     54  CA        40.6940   22.9070   70.9190 C.3    81  ALA81       0.1728
     55  C         39.9020   21.8500   71.6540 C.2    81  ALA81       0.2616
     56  O         40.3680   20.7170   71.8380 O.2    81  ALA81      -0.2715
     57  CB        40.8370   22.5290   69.4590 C.3    81  ALA81       0.0334
     58  N         38.7200   22.2240   72.1190 N.am   82  VAL82      -0.1977
     59  CA        37.8590   21.2730   72.8050 C.3    82  VAL82       0.1596
     60  C         36.5530   21.2170   72.0480 C.2    82  VAL82       0.2287
     61  O         36.0030   22.2560   71.6750 O.2    82  VAL82      -0.2864
     62  CB        37.5990   21.6850   74.2340 C.3    82  VAL82       0.0276
     63  CG1       36.5310   20.7970   74.8480 C.3    82  VAL82       0.0022
     64  CG2       38.8750   21.6190   75.0280 C.3    82  VAL82       0.0022
     65  N         32.4880   21.3920   76.0360 N.3    87  ARG87      -0.1231
     66  CA        33.0520   22.5240   76.7780 C.3    87  ARG87       0.1694
     67  C         32.5020   22.7030   78.1930 C.2    87  ARG87       0.2592
     68  O         31.4490   22.1470   78.5430 O.2    87  ARG87      -0.2718
     69  CB        32.9410   23.8090   75.9510 C.3    87  ARG87       0.0321
     70  CG        33.8240   23.6980   74.7160 C.3    87  ARG87       0.0489
     71  CD        33.8340   24.8840   73.8010 C.3    87  ARG87       0.2205
     72  NE        34.4230   24.4960   72.5270 N.pl3  87  ARG87      -0.0865
     73  CZ        34.3960   25.2360   71.4230 C.cat  87  ARG87       0.5346
     74  NH1       33.8200   26.4360   71.4390 N.pl3  87  ARG87       0.1354
     75  NH2       34.9410   24.7790   70.2950 N.pl3  87  ARG87       0.1354
     76  N         33.2340   23.4550   79.0140 N.am   88  ARG88      -0.1966
     77  CA        32.8370   23.7220   80.3970 C.3    88  ARG88       0.1729
     78  C         32.6650   22.4870   81.2500 C.2    88  ARG88       0.2616
     79  O         31.8780   22.5030   82.2050 O.2    88  ARG88      -0.2715
     80  CB        31.5260   24.5180   80.4670 C.3    88  ARG88       0.0348
     81  CG        31.5520   25.8330   79.7430 C.3    88  ARG88       0.0492
     82  CD        32.6680   26.6900   80.2290 C.3    88  ARG88       0.2205
     83  NE        32.5480   27.1460   81.6130 N.pl3  88  ARG88      -0.0865
     84  CZ        31.9090   28.2540   81.9930 C.cat  88  ARG88       0.5346
     85  NH1       31.2710   28.9930   81.0910 N.pl3  88  ARG88       0.1354
     86  NH2       31.9080   28.6310   83.2730 N.pl3  88  ARG88       0.1354
     87  N         33.4100   21.4310   80.9390 N.am   89  LYS89      -0.1963
     88  CA        33.4630   20.2680   81.8120 C.3    89  LYS89       0.1728
     89  C         34.8570   20.0510   82.4190 C.2    89  LYS89       0.2617
     90  O         35.1170   19.0010   83.0190 O.2    89  LYS89      -0.2715
     91  CB        33.0110   19.0220   81.0500 C.3    89  LYS89       0.0311
     92  CG        31.7910   19.2810   80.1770 C.3    89  LYS89       0.0038
     93  CD        31.1540   18.0100   79.6430 C.3    89  LYS89       0.0206
     94  CE        29.8910   18.3560   78.8390 C.3    89  LYS89       0.1093
     95  NZ        29.2530   17.1570   78.1940 N.3    89  LYS89      -0.1314
     96  N         35.7490   21.0350   82.2680 N.am   90  GLY90      -0.1940
     97  CA        37.1280   20.9000   82.7210 C.3    90  GLY90       0.2014
     98  C         38.1270   20.1230   81.8380 C.2    90  GLY90       0.2639
     99  O         39.2210   19.7880   82.2880 O.2    90  GLY90      -0.2714
    100  N         37.7650   19.8440   80.5900 N.am   91  ILE91      -0.1963
    101  CA        38.6680   19.1830   79.6470 C.3    91  ILE91       0.1727
    102  C         39.8790   20.0600   79.2840 C.2    91  ILE91       0.2617
    103  O         41.0140   19.6110   79.3750 O.2    91  ILE91      -0.2715
    104  CB        37.9240   18.7420   78.3510 C.3    91  ILE91       0.0290
    105  CG1       36.8430   17.7000   78.6650 C.3    91  ILE91       0.0022
    106  CG2       38.8980   18.2190   77.2910 C.3    91  ILE91       0.0023
    107  CD1       35.9850   17.4450   77.4990 C.3    91  ILE91       0.0001
    108  N         39.6370   21.3050   78.8810 N.am   92  GLY92      -0.1940
    109  CA        40.7130   22.2560   78.6620 C.3    92  GLY92       0.2014
    110  C         41.6290   22.3760   79.8710 C.2    92  GLY92       0.2638
    111  O         42.8640   22.3010   79.7570 O.2    92  GLY92      -0.2714
    112  N         41.0280   22.5490   81.0400 N.am   93  ARG93      -0.1977
    113  CA        41.8080   22.7190   82.2560 C.3    93  ARG93       0.1597
    114  C         42.7450   21.5390   82.4220 C.2    93  ARG93       0.2287
    115  O         43.9520   21.7040   82.6010 O.2    93  ARG93      -0.2864
    116  CB        40.8930   22.8350   83.4700 C.3    93  ARG93       0.0334
    117  CG        41.6110   22.9210   84.7990 C.3    93  ARG93       0.0492
    118  CD        40.6410   23.0600   85.9740 C.3    93  ARG93       0.2205
    119  NE        40.0240   24.3890   86.0240 N.pl3  93  ARG93      -0.0865
    120  CZ        38.7120   24.6440   85.9600 C.cat  93  ARG93       0.5346
    121  NH1       37.8060   23.6590   85.8460 N.pl3  93  ARG93       0.1354
    122  NH2       38.3080   25.9090   86.0050 N.pl3  93  ARG93       0.1354
    123  N         49.5060   33.7740   71.7230 N.3   113  HIS113     -0.1226
    124  CA        48.7170   34.8730   71.1750 C.3   113  HIS113      0.1752
    125  C         47.2040   34.5610   71.1990 C.2   113  HIS113      0.2595
    126  O         46.7710   33.4890   70.7680 O.2   113  HIS113     -0.2718
    127  CB        49.1550   35.1530   69.7370 C.3   113  HIS113      0.0759
    128  CG        50.5300   35.7230   69.6260 C.ar  113  HIS113      0.0818
    129  ND1       50.7650   37.0600   69.3720 N.ar  113  HIS113     -0.2268
    130  CD2       51.7470   35.1430   69.7390 C.ar  113  HIS113      0.1154
    131  CE1       52.0640   37.2760   69.3270 C.ar  113  HIS113      0.1986
    132  NE2       52.6830   36.1300   69.5500 N.ar  113  HIS113     -0.2212
    133  N         46.3990   35.4960   71.6840 N.am  114  VAL114     -0.1980
    134  CA        44.9450   35.3010   71.7010 C.3   114  VAL114      0.1595
    135  C         44.2580   36.4830   71.0370 C.2   114  VAL114      0.2287
    136  O         44.4310   37.6190   71.4800 O.2   114  VAL114     -0.2864
    137  CB        44.4030   35.1960   73.1570 C.3   114  VAL114      0.0276
    138  CG1       42.8940   34.9600   73.1650 C.3   114  VAL114      0.0022
    139  CG2       45.1050   34.1110   73.9170 C.3   114  VAL114      0.0022
    140  N         38.1500   36.5170   70.9800 N.3   118  ASN118     -0.1225
    141  CA        38.0490   35.1520   71.4430 C.3   118  ASN118      0.1785
    142  C         37.7680   35.1210   72.9310 C.2   118  ASN118      0.2597
    143  O         38.6600   35.0270   73.7670 O.2   118  ASN118     -0.2718
    144  CB        39.3090   34.3850   71.1000 C.3   118  ASN118      0.1169
    145  CG        39.2500   32.9710   71.5660 C.2   118  ASN118      0.2627
    146  OD1       38.3790   32.6090   72.3560 O.2   118  ASN118     -0.2716
    147  ND2       40.1760   32.1480   71.0850 N.am  118  ASN118     -0.0877
    148  N         36.4850   35.1700   73.2400 N.am  119  GLN119     -0.1965
    149  CA        36.0150   35.5020   74.5730 C.3   119  GLN119      0.1733
    150  C         36.2060   34.3590   75.5450 C.2   119  GLN119      0.2616
    151  O         36.6540   34.5780   76.6650 O.2   119  GLN119     -0.2715
    152  CB        34.5540   35.9340   74.4820 C.3   119  GLN119      0.0408
    153  CG        33.8690   36.2770   75.7780 C.3   119  GLN119      0.0908
    154  CD        32.4460   36.7920   75.5230 C.2   119  GLN119      0.2608
    155  OE1       32.0760   37.0790   74.3750 O.2   119  GLN119     -0.2717
    156  NE2       31.6530   36.9200   76.5870 N.am  119  GLN119     -0.0878
    157  N         35.8860   33.1340   75.1390 N.am  120  GLU120     -0.1963
    158  CA        36.1150   32.0240   76.0620 C.3   120  GLU120      0.1733
    159  C         37.6110   31.7920   76.3340 C.2   120  GLU120      0.2616
    160  O         37.9990   31.4820   77.4610 O.2   120  GLU120     -0.2715
    161  CB        35.3600   30.7340   75.6650 C.3   120  GLU120      0.0429
    162  CG        35.1960   30.4830   74.1690 C.3   120  GLU120      0.1163
    163  CD        34.2060   31.4460   73.4860 C.2   120  GLU120      0.3649
    164  OE1       34.6520   32.3310   72.7100 O.co2 120  GLU120     -0.2457
    165  OE2       32.9820   31.3140   73.7080 O.co2 120  GLU120     -0.2457
    166  N         38.4570   31.9870   75.3280 N.am  121  ALA121     -0.1977
    167  CA        39.8970   31.8070   75.5400 C.3   121  ALA121      0.1597
    168  C         40.4990   32.8690   76.4700 C.2   121  ALA121      0.2287
    169  O         41.3390   32.5550   77.3130 O.2   121  ALA121     -0.2864
    170  CB        40.6690   31.6970   74.2050 C.3   121  ALA121      0.0319
    171  N         38.9120   34.2480   78.9300 N.3   123  LEU123     -0.1231
    172  CA        38.4490   33.9240   80.2700 C.3   123  LEU123      0.1693
    173  C         39.1250   32.6720   80.8140 C.2   123  LEU123      0.2592
    174  O         39.4550   32.5860   81.9940 O.2   123  LEU123     -0.2718
    175  CB        36.9340   33.7470   80.2430 C.3   123  LEU123      0.0284
    176  CG        36.2630   35.0970   79.9910 C.3   123  LEU123      0.0019
    177  CD1       34.7740   34.9740   79.7170 C.3   123  LEU123      0.0001
    178  CD2       36.5330   35.9830   81.2010 C.3   123  LEU123      0.0001
    179  N         39.3270   31.7070   79.9260 N.am  124  PHE124     -0.1962
    180  CA        40.0500   30.4760   80.2170 C.3   124  PHE124      0.1771
    181  C         41.4880   30.7430   80.7130 C.2   124  PHE124      0.2619
    182  O         41.8640   30.3000   81.8100 O.2   124  PHE124     -0.2715
    183  CB        40.0170   29.6180   78.9520 C.3   124  PHE124      0.0574
    184  CG        40.6910   28.2880   79.0760 C.ar  124  PHE124     -0.0200
    185  CD1       40.1370   27.2750   79.8600 C.ar  124  PHE124     -0.0042
    186  CD2       41.8470   28.0190   78.3440 C.ar  124  PHE124     -0.0042
    187  CE1       40.7600   26.0100   79.9490 C.ar  124  PHE124     -0.0003
    188  CE2       42.4760   26.7790   78.4190 C.ar  124  PHE124     -0.0003
    189  CZ        41.9360   25.7670   79.2210 C.ar  124  PHE124     -0.0000
    190  N         42.2780   31.4900   79.9410 N.am  125  TYR125     -0.1974
    191  CA        43.6580   31.7940   80.3460 C.3   125  TYR125      0.1639
    192  C         43.7900   32.6390   81.6280 C.2   125  TYR125      0.2290
    193  O         44.7070   32.4190   82.4540 O.2   125  TYR125     -0.2864
    194  CB        44.4620   32.4070   79.1900 C.3   125  TYR125      0.0560
    195  CG        44.5690   31.4690   78.0170 C.ar  125  TYR125     -0.0198
    196  CD1       45.0400   30.1750   78.1940 C.ar  125  TYR125     -0.0009
    197  CD2       44.1850   31.8610   76.7420 C.ar  125  TYR125     -0.0009
    198  CE1       45.1240   29.2770   77.1210 C.ar  125  TYR125      0.0417
    199  CE2       44.2630   30.9740   75.6550 C.ar  125  TYR125      0.0417
    200  CZ        44.7370   29.6820   75.8570 C.ar  125  TYR125      0.1957
    201  OH        44.8340   28.7910   74.8030 O.3   125  TYR125     -0.2866
    202  N         41.6100   32.6460   84.0590 N.3   127  LYS127     -0.1231
    203  CA        41.2180   31.6780   85.0540 C.3   127  LYS127      0.1693
    204  C         42.3670   30.7260   85.4030 C.2   127  LYS127      0.2591
    205  O         42.6720   30.5310   86.5600 O.2   127  LYS127     -0.2718
    206  CB        40.0130   30.8900   84.5390 C.3   127  LYS127      0.0285
    207  CG        39.3630   30.0150   85.5900 C.3   127  LYS127      0.0035
    208  CD        39.1110   30.8080   86.8690 C.3   127  LYS127      0.0206
    209  CE        38.3580   29.9700   87.9060 C.3   127  LYS127      0.1093
    210  NZ        36.8970   29.7750   87.5790 N.3   127  LYS127     -0.1314
    211  N         43.0030   30.1330   84.4010 N.am  128  LEU128     -0.1980
    212  CA        44.0820   29.1900   84.6580 C.3   128  LEU128      0.1596
    213  C         45.3610   29.8290   85.1560 C.2   128  LEU128      0.2287
    214  O         46.3540   29.1370   85.3310 O.2   128  LEU128     -0.2864
    215  CB        44.3970   28.3650   83.4130 C.3   128  LEU128      0.0297
    216  CG        43.5600   27.0960   83.2720 C.3   128  LEU128      0.0022
    217  CD1       42.2200   27.1590   84.0460 C.3   128  LEU128      0.0001
    218  CD2       43.3370   26.8320   81.8120 C.3   128  LEU128      0.0001
@<TRIPOS>BOND
     1    11    10    2
     2    10     9    1
     3    12     9    1
     4    12    13    1
     5    14    13   ar
     6    14    16   ar
     7     9     8    1
     8    13    15   ar
     9     8     3   am
    10     1     2    1
    11    16    17   ar
    12     3     2    1
    13     3     4    2
    14    15    17   ar
    15    15    18   ar
    16     2     5    1
    17    28    27    2
    18    17    19   ar
    19    22    23    1
    20    24    25    2
    21    24    23    1
    22    18    20   ar
    23     5     6    1
    24     5     7    1
    25    27    29   am
    26    27    26    1
    27    23    26    1
    28    19    21   ar
    29    20    21   ar
    30   131   129   ar
    31   131   132   ar
    32   129   128   ar
    33    57    54    1
    34   132   130   ar
    35   128   127    1
    36   128   130   ar
    37   127   124    1
    38    75    73    1
    39   126   125    2
    40    42    41    1
    41    42    43    1
    42    54    53    1
    43    54    55    1
    44   140   141    1
    45   135   136    2
    46   135   134    1
    47   147   145   am
    48   144   141    1
    49   144   145    1
    50    48    47    2
    51   124   125    1
    52   124   123    1
    53   125   133   am
    54    41    32   am
    55    73    74    1
    56    73    72    2
    57   141   142    1
    58    45    43   am
    59    45    46    1
    60    53    47   am
    61   145   146    2
    62    47    46    1
    63    43    44    2
    64    55    56    2
    65    55    58   am
    66    61    60    2
    67   133   134    1
    68   134   137    1
    69    32    33    2
    70    32    31    1
    71    60    59    1
    72    58    59    1
    73    46    49    1
    74    31    30    1
    75    31    34    1
    76    72    71    1
    77   164   163   ar
    78    59    62    1
    79   142   148   am
    80   142   143    2
    81   137   138    1
    82   137   139    1
    83   148   149    1
    84   163   165   ar
    85   163   162    1
    86    49    51    1
    87    49    50    1
    88    34    35    1
    89    71    70    1
    90   162   161    1
    91   170   167    1
    92    62    63    1
    93    62    64    1
    94    50    52    1
    95   155   154    2
    96   152   149    1
    97   152   153    1
    98   149   150    1
    99    35    36   ar
   100    35    37   ar
   101    70    69    1
   102    36    38   ar
   103   201   200    1
   104   157   150   am
   105   157   158    1
   106   166   167    1
   107   166   159   am
   108   154   153    1
   109   154   156   am
   110    37    39   ar
   111   167   168    1
   112   150   151    2
   113   199   200   ar
   114   199   197   ar
   115   161   158    1
   116    38    40   ar
   117   200   198   ar
   118    69    66    1
   119    65    66    1
   120   158   159    1
   121   159   160    2
   122    39    40   ar
   123   168   169    2
   124   197   195   ar
   125    66    67    1
   126   198   196   ar
   127   106   104    1
   128   107   105    1
   129   195   196   ar
   130   195   194    1
   131    67    68    2
   132    67    76   am
   133    95    94    1
   134   186   188   ar
   135   186   184   ar
   136   104   105    1
   137   104   101    1
   138   188   189   ar
   139   109   108    1
   140   109   110    1
   141    94    93    1
   142   108   102   am
   143   171   172    1
   144   183   184    1
   145   183   180    1
   146    76    77    1
   147   184   185   ar
   148   194   191    1
   149   189   187   ar
   150   102   103    2
   151   102   101    1
   152    93    92    1
   153   101   100    1
   154   177   176    1
   155    81    82    1
   156    81    80    1
   157   111   110    2
   158   185   187   ar
   159   110   112   am
   160   179   180    1
   161   179   173   am
   162   190   191    1
   163   190   181   am
   164   176   175    1
   165   176   178    1
   166    92    91    1
   167   180   181    1
   168    82    83    1
   169   175   172    1
   170   172   173    1
   171   191   192    1
   172    77    80    1
   173    77    78    1
   174   100    98   am
   175   181   182    2
   176   173   174    2
   177    87    78   am
   178    87    88    1
   179   112   113    1
   180    91    88    1
   181    85    84    1
   182    78    79    2
   183    83    84    2
   184   192   193    2
   185    88    89    1
   186   218   216    1
   187    98    99    2
   188    98    97    1
   189    84    86    1
   190   113   114    1
   191   113   116    1
   192    96    89   am
   193    96    97    1
   194    89    90    2
   195   114   115    2
   196   216   215    1
   197   216   217    1
   198   215   212    1
   199   116   117    1
   200   202   203    1
   201   211   212    1
   202   211   204   am
   203   206   203    1
   204   206   207    1
   205   212   213    1
   206   117   118    1
   207   203   204    1
   208   213   214    2
   209   204   205    2
   210   207   208    1
   211   121   120    1
   212   120   122    1
   213   120   119    2
   214   118   119    1
   215   208   209    1
   216   210   209    1
