@<TRIPOS>MOLECULE
tmp/3ld4A00.pdb
 89 84 0 0 0
SMALL
GASTEIGER

@<TRIPOS>ATOM
      1  N         24.4530   21.8590   39.2490 N.3   159  PHE159     -0.1241
      2  CA        25.5910   21.8990   38.3600 C.3   159  PHE159      0.1605
      3  C         26.0890   20.4690   38.1370 C.2   159  PHE159      0.2264
      4  O         26.7780   19.8990   38.9660 O.2   159  PHE159     -0.2867
      5  CB        26.6850   22.8670   38.8650 C.3   159  PHE159      0.0534
      6  CG        27.7780   23.0840   37.8390 C.ar  159  PHE159     -0.0203
      7  CD1       27.4010   23.7260   36.6580 C.ar  159  PHE159     -0.0042
      8  CD2       29.0870   22.7240   37.9720 C.ar  159  PHE159     -0.0042
      9  CE1       28.3340   23.9510   35.6890 C.ar  159  PHE159     -0.0003
     10  CE2       30.0480   22.9240   36.9900 C.ar  159  PHE159     -0.0003
     11  CZ        29.6470   23.5510   35.8270 C.ar  159  PHE159     -0.0000
     12  N         29.0570   18.6110   33.3970 N.3   162  PHE162     -0.1241
     13  CA        30.2320   19.3080   32.9350 C.3   162  PHE162      0.1605
     14  C         31.3030   18.3180   32.4890 C.2   162  PHE162      0.2264
     15  O         31.2370   17.1180   32.8020 O.2   162  PHE162     -0.2867
     16  CB        30.8020   20.2910   33.9700 C.3   162  PHE162      0.0534
     17  CG        30.9270   19.6800   35.3680 C.ar  162  PHE162     -0.0203
     18  CD1       29.8720   19.7160   36.2350 C.ar  162  PHE162     -0.0042
     19  CD2       32.1160   19.1060   35.7320 C.ar  162  PHE162     -0.0042
     20  CE1       29.9950   19.1930   37.5220 C.ar  162  PHE162     -0.0003
     21  CE2       32.2430   18.5580   36.9980 C.ar  162  PHE162     -0.0003
     22  CZ        31.1830   18.5950   37.8740 C.ar  162  PHE162     -0.0000
     23  N         35.5570   17.7350   41.0230 N.3   170  LEU170     -0.1245
     24  CA        34.2860   18.2240   41.4870 C.3   170  LEU170      0.1561
     25  C         33.1600   17.2190   41.3440 C.2   170  LEU170      0.2260
     26  O         32.9640   16.7100   40.2060 O.2   170  LEU170     -0.2867
     27  CB        33.9110   19.5090   40.7120 C.3   170  LEU170      0.0270
     28  CG        32.6400   20.2320   41.1210 C.3   170  LEU170      0.0019
     29  CD1       32.7410   20.7040   42.5580 C.3   170  LEU170      0.0001
     30  CD2       32.3730   21.3880   40.1830 C.3   170  LEU170      0.0001
     31  N         22.4150   22.7560   45.2390 N.3   176  ARG176     -0.1245
     32  CA        23.4860   23.5240   45.8330 C.3   176  ARG176      0.1563
     33  C         22.9450   24.9570   46.1090 C.2   176  ARG176      0.2260
     34  O         21.9020   25.3560   45.6150 O.2   176  ARG176     -0.2867
     35  CB        24.7310   23.6400   44.9730 C.3   176  ARG176      0.0307
     36  CG        24.5350   24.4160   43.6890 C.3   176  ARG176      0.0489
     37  CD        25.7420   24.4740   42.7790 C.3   176  ARG176      0.2205
     38  NE        25.4430   25.3990   41.6680 N.pl3 176  ARG176     -0.0865
     39  CZ        26.3950   25.8100   40.8410 C.cat 176  ARG176      0.5346
     40  NH1       27.6490   25.4480   40.8840 N.pl3 176  ARG176      0.1354
     41  NH2       26.0280   26.6780   39.8750 N.pl3 176  ARG176      0.1354
     42  N         23.2310   26.3400   35.6690 N.3   226  SER226     -0.1202
     43  CA        24.5260   26.9470   35.7660 C.3   226  SER226      0.2020
     44  C         24.3720   28.4780   35.8660 C.2   226  SER226      0.2619
     45  O         23.3190   28.9820   35.5760 O.2   226  SER226     -0.2717
     46  CB        25.5050   26.6460   34.6250 C.3   226  SER226      0.2103
     47  OG        25.0180   27.1290   33.4360 O.3   226  SER226     -0.2182
     48  N         25.4590   29.1080   36.3330 N.am  227  VAL227     -0.1965
     49  CA        25.4430   30.5770   36.3250 C.3   227  VAL227      0.1727
     50  C         25.3090   31.0690   34.8730 C.2   227  VAL227      0.2616
     51  O         24.5370   31.9950   34.6150 O.2   227  VAL227     -0.2715
     52  CB        26.7260   31.0620   37.0030 C.3   227  VAL227      0.0290
     53  CG1       26.7800   32.6010   36.8920 C.3   227  VAL227      0.0023
     54  CG2       26.7980   30.6430   38.4480 C.3   227  VAL227      0.0023
     55  N         25.9980   30.4250   33.9740 N.am  228  GLN228     -0.1977
     56  CA        25.9760   30.7360   32.5340 C.3   228  GLN228      0.1601
     57  C         24.5630   30.8190   32.0210 C.2   228  GLN228      0.2287
     58  O         24.2000   31.7900   31.4200 O.2   228  GLN228     -0.2864
     59  CB        26.7520   29.6800   31.7680 C.3   228  GLN228      0.0394
     60  CG        28.2360   29.6710   31.9070 C.3   228  GLN228      0.0908
     61  CD        28.8710   28.9200   33.0600 C.2   228  GLN228      0.2608
     62  OE1       28.1980   28.7060   34.0770 O.2   228  GLN228     -0.2717
     63  NE2       30.1590   28.5840   32.9360 N.am  228  GLN228     -0.0878
     64  N         30.8860   33.1980   41.3210 N.3   254  ASN254     -0.1240
     65  CA        30.2070   32.1000   42.0250 C.3   254  ASN254      0.1653
     66  C         30.8680   32.0130   43.4010 C.2   254  ASN254      0.2266
     67  O         31.9870   31.5870   43.5450 O.2   254  ASN254     -0.2867
     68  CB        30.3550   30.8350   41.2070 C.3   254  ASN254      0.1155
     69  CG        29.4460   29.7230   41.6740 C.2   254  ASN254      0.2627
     70  OD1       28.6590   29.8930   42.5670 O.2   254  ASN254     -0.2716
     71  ND2       29.5800   28.5620   41.0350 N.am  254  ASN254     -0.0877
     72  N         31.3490   30.4680   46.5160 N.3   256  HIS256     -0.1241
     73  CA        31.0750   29.0810   46.8910 C.3   256  HIS256      0.1621
     74  C         30.7360   28.8900   48.3660 C.2   256  HIS256      0.2264
     75  O         31.3530   29.4930   49.2310 O.2   256  HIS256     -0.2867
     76  CB        32.2540   28.1890   46.5240 C.3   256  HIS256      0.0745
     77  CG        32.6990   28.3070   45.0830 C.ar  256  HIS256      0.0817
     78  ND1       31.9350   27.8920   44.0150 N.ar  256  HIS256     -0.2268
     79  CD2       33.8160   28.8320   44.5420 C.ar  256  HIS256      0.1154
     80  CE1       32.6350   28.1510   42.9080 C.ar  256  HIS256      0.1986
     81  NE2       33.7620   28.7220   43.1700 N.ar  256  HIS256     -0.2212
     82  N         32.0990   34.2440   36.0180 N.3   288  ILE288     -0.1245
     83  CA        31.3800   33.9160   34.7940 C.3   288  ILE288      0.1561
     84  C         30.9590   35.2220   34.1190 C.2   288  ILE288      0.2260
     85  O         30.3350   36.0610   34.7590 O.2   288  ILE288     -0.2867
     86  CB        30.1720   33.0240   35.1220 C.3   288  ILE288      0.0252
     87  CG1       30.4270   31.9020   36.1230 C.3   288  ILE288      0.0019
     88  CG2       29.5330   32.4770   33.8640 C.3   288  ILE288      0.0019
     89  CD1       31.5700   30.9870   35.8020 C.3   288  ILE288      0.0001
@<TRIPOS>BOND
     1    58    57    2
     2    59    60    1
     3    59    56    1
     4    60    61    1
     5    57    56    1
     6    14    15    2
     7    14    13    1
     8    56    55    1
     9    13    12    1
    10    13    16    1
    11    63    61   am
    12    61    62    2
    13    47    46    1
    14    88    86    1
    15    16    17    1
    16    55    50   am
    17    84    85    2
    18    84    83    1
    19    51    50    2
    20    46    43    1
    21    83    86    1
    22    83    82    1
    23    50    49    1
    24    86    87    1
    25    17    19   ar
    26    17    18   ar
    27    45    44    2
    28    42    43    1
    29     9    11   ar
    30     9     7   ar
    31    19    21   ar
    32    43    44    1
    33    89    87    1
    34    11    10   ar
    35    44    48   am
    36    18    20   ar
    37    49    48    1
    38    49    52    1
    39     7     6   ar
    40    53    52    1
    41    10     8   ar
    42    21    22   ar
    43    52    54    1
    44    20    22   ar
    45     6     8   ar
    46     6     5    1
    47     3     2    1
    48     3     4    2
    49     2     5    1
    50     2     1    1
    51    41    39    1
    52    30    28    1
    53    26    25    2
    54    27    28    1
    55    27    24    1
    56    39    40    1
    57    39    38    2
    58    23    24    1
    59    71    69   am
    60    28    29    1
    61    68    69    1
    62    68    65    1
    63    64    65    1
    64    25    24    1
    65    38    37    1
    66    69    70    2
    67    65    66    1
    68    37    36    1
    69    80    81   ar
    70    80    78   ar
    71    81    79   ar
    72    66    67    2
    73    36    35    1
    74    78    77   ar
    75    79    77   ar
    76    35    32    1
    77    77    76    1
    78    31    32    1
    79    34    33    2
    80    32    33    1
    81    72    73    1
    82    76    73    1
    83    73    74    1
    84    74    75    2
