@<TRIPOS>MOLECULE
tmp/3ldfA00.pdb
 219 215 0 0 0
SMALL
GASTEIGER

@<TRIPOS>ATOM
      1  N         20.2380   -8.7740    6.2770 N.3   188  MET188     -0.1245
      2  CA        21.4720   -8.0840    5.8840 C.3   188  MET188      0.1570
      3  C         21.5940   -8.0660    4.3530 C.2   188  MET188      0.2261
      4  O         20.9180   -8.8710    3.6830 O.2   188  MET188     -0.2867
      5  CB        22.6950   -8.8410    6.4180 C.3   188  MET188      0.0387
      6  CG        22.9160   -8.7060    7.9730 C.3   188  MET188      0.0595
      7  SD        24.4770   -9.4110    8.6030 S.3   188  MET188     -0.1393
      8  CE        24.0890  -11.1790    8.3860 C.3   188  MET188      0.0692
      9  N         26.6630   -5.5720    3.0650 N.3   191  ILE191     -0.1231
     10  CA        27.4370   -4.4360    3.5250 C.3   191  ILE191      0.1692
     11  C         26.6020   -3.6890    4.6120 C.2   191  ILE191      0.2592
     12  O         25.3810   -3.5960    4.4960 O.2   191  ILE191     -0.2718
     13  CB        27.7920   -3.4780    2.3190 C.3   191  ILE191      0.0266
     14  CG1       28.8340   -2.4300    2.7500 C.3   191  ILE191      0.0019
     15  CG2       26.5750   -2.7160    1.8050 C.3   191  ILE191      0.0020
     16  CD1       29.5930   -1.8540    1.5710 C.3   191  ILE191      0.0001
     17  N         27.2870   -3.1960    5.6450 N.am  192  PHE192     -0.1976
     18  CA        26.8270   -2.1880    6.5650 C.3   192  PHE192      0.1639
     19  C         27.3880   -0.8680    6.1060 C.2   192  PHE192      0.2290
     20  O         28.6060   -0.5690    6.2770 O.2   192  PHE192     -0.2864
     21  CB        27.3290   -2.5180    8.0170 C.3   192  PHE192      0.0560
     22  CG        26.6420   -3.7490    8.5890 C.ar  192  PHE192     -0.0200
     23  CD1       25.4430   -3.6070    9.3220 C.ar  192  PHE192     -0.0042
     24  CD2       27.1210   -5.0450    8.2830 C.ar  192  PHE192     -0.0042
     25  CE1       24.7560   -4.7640    9.8010 C.ar  192  PHE192     -0.0003
     26  CE2       26.4850   -6.1600    8.7450 C.ar  192  PHE192     -0.0003
     27  CZ        25.2660   -6.0350    9.5100 C.ar  192  PHE192     -0.0000
     28  N         29.6660    2.0370    8.0720 N.3   195  GLN195     -0.1245
     29  CA        31.1230    1.9680    8.2180 C.3   195  GLN195      0.1566
     30  C         31.8460    2.5630    7.0070 C.2   195  GLN195      0.2260
     31  O         33.0900    2.4390    6.8670 O.2   195  GLN195     -0.2867
     32  CB        31.5550    0.5030    8.5090 C.3   195  GLN195      0.0367
     33  CG        31.2040    0.1830   10.0090 C.3   195  GLN195      0.0905
     34  CD        31.0530   -1.2910   10.2330 C.2   195  GLN195      0.2608
     35  OE1       30.6480   -2.0020    9.3280 O.2   195  GLN195     -0.2717
     36  NE2       31.4780   -1.7810   11.3960 N.am  195  GLN195     -0.0878
     37  N         36.0240    2.3960    6.0710 N.3   199  ARG199     -0.1245
     38  CA        36.4350    1.8470    4.7480 C.3   199  ARG199      0.1563
     39  C         37.2140    2.8560    3.8990 C.2   199  ARG199      0.2260
     40  O         38.2500    2.5040    3.3350 O.2   199  ARG199     -0.2867
     41  CB        35.2560    1.2450    3.9570 C.3   199  ARG199      0.0307
     42  CG        34.8590   -0.1790    4.4680 C.3   199  ARG199      0.0489
     43  CD        33.7550   -0.8920    3.6740 C.3   199  ARG199      0.2205
     44  NE        32.5040   -0.1260    3.6750 N.pl3 199  ARG199     -0.0865
     45  CZ        31.4650   -0.3160    4.4890 C.cat 199  ARG199      0.5346
     46  NH1       31.4410   -1.2700    5.4470 N.pl3 199  ARG199      0.1354
     47  NH2       30.4190    0.4680    4.3370 N.pl3 199  ARG199      0.1354
     48  N         41.1720   -9.4500    9.5240 N.3   214  ASN214     -0.1225
     49  CA        39.7660   -8.9450    9.5900 C.3   214  ASN214      0.1785
     50  C         38.8890  -10.0160   10.2000 C.2   214  ASN214      0.2597
     51  O         38.6050  -11.0030    9.5440 O.2   214  ASN214     -0.2718
     52  CB        39.2530   -8.6210    8.1910 C.3   214  ASN214      0.1169
     53  CG        37.8720   -7.9230    8.1830 C.2   214  ASN214      0.2627
     54  OD1       37.3010   -7.5390    9.2520 O.2   214  ASN214     -0.2716
     55  ND2       37.3090   -7.7680    6.9540 N.am  214  ASN214     -0.0877
     56  N         38.4310   -9.7970   11.4300 N.am  215  LEU215     -0.1966
     57  CA        37.6910  -10.8110   12.2390 C.3   215  LEU215      0.1728
     58  C         36.1710  -10.5360   12.2090 C.2   215  LEU215      0.2616
     59  O         35.7630   -9.3600   12.3020 O.2   215  LEU215     -0.2715
     60  CB        38.1780  -10.7580   13.6930 C.3   215  LEU215      0.0311
     61  CG        39.6780  -11.0910   13.9030 C.3   215  LEU215      0.0022
     62  CD1       40.1170  -11.0040   15.3690 C.3   215  LEU215      0.0001
     63  CD2       39.9470  -12.5620   13.4340 C.3   215  LEU215      0.0001
     64  N         35.3690  -11.6040   12.1420 N.am  216  PHE216     -0.1960
     65  CA        33.9010  -11.5650   11.8670 C.3   216  PHE216      0.1771
     66  C         33.6720  -10.8170   10.5780 C.2   216  PHE216      0.2620
     67  O         32.8900   -9.8680   10.5680 O.2   216  PHE216     -0.2715
     68  CB        33.0950  -10.8990   13.0230 C.3   216  PHE216      0.0574
     69  CG        33.4780  -11.4200   14.4230 C.ar  216  PHE216     -0.0200
     70  CD1       32.6850  -12.4350   15.0440 C.ar  216  PHE216     -0.0042
     71  CD2       34.5850  -10.9230   15.1060 C.ar  216  PHE216     -0.0042
     72  CE1       32.9730  -12.9000   16.3460 C.ar  216  PHE216     -0.0003
     73  CE2       34.8920  -11.3800   16.4300 C.ar  216  PHE216     -0.0003
     74  CZ        34.0930  -12.3930   17.0280 C.ar  216  PHE216     -0.0000
     75  N         34.3690  -11.2650    9.4910 N.am  217  SER217     -0.1936
     76  CA        34.5000  -10.4540    8.2810 C.3   217  SER217      0.2055
     77  C         33.1940  -10.2600    7.4900 C.2   217  SER217      0.2643
     78  O         33.0450   -9.2320    6.7960 O.2   217  SER217     -0.2714
     79  CB        35.6000  -10.9990    7.3890 C.3   217  SER217      0.2130
     80  OG        35.3930  -12.3710    7.1550 O.3   217  SER217     -0.2179
     81  N         32.2440  -11.2260    7.6160 N.am  218  TYR218     -0.1959
     82  CA        30.9690  -11.2330    6.8760 C.3   218  TYR218      0.1771
     83  C         31.2240  -11.4300    5.3560 C.2   218  TYR218      0.2620
     84  O         31.3480  -12.5840    4.8820 O.2   218  TYR218     -0.2715
     85  CB        30.1140   -9.9720    7.2150 C.3   218  TYR218      0.0574
     86  CG        28.7690   -9.9350    6.5180 C.ar  218  TYR218     -0.0198
     87  CD1       28.0230  -11.1210    6.3390 C.ar  218  TYR218     -0.0009
     88  CD2       28.2610   -8.7270    5.9920 C.ar  218  TYR218     -0.0009
     89  CE1       26.7770  -11.1310    5.6480 C.ar  218  TYR218      0.0417
     90  CE2       26.9830   -8.7180    5.3160 C.ar  218  TYR218      0.0417
     91  CZ        26.2910   -9.9270    5.1360 C.ar  218  TYR218      0.1957
     92  OH        25.1060   -9.9270    4.4750 O.3   218  TYR218     -0.2866
     93  N         31.3680  -10.3330    4.6040 N.am  219  THR219     -0.1951
     94  CA        31.6760  -10.4560    3.1650 C.3   219  THR219      0.1897
     95  C         33.0130   -9.7300    2.8700 C.2   219  THR219      0.2313
     96  O         33.3010   -9.3500    1.7220 O.2   219  THR219     -0.2863
     97  CB        30.5460   -9.8780    2.2730 C.3   219  THR219      0.1794
     98  OG1       30.5070   -8.4600    2.4540 O.3   219  THR219     -0.2208
     99  CG2       29.1480  -10.4050    2.6750 C.3   219  THR219      0.0378
    100  N         34.1700   -6.7800    3.3990 N.3   221  ALA221     -0.1231
    101  CA        34.1770   -5.4070    2.8590 C.3   221  ALA221      0.1694
    102  C         35.3770   -4.5650    3.4090 C.2   221  ALA221      0.2592
    103  O         35.9450   -3.7240    2.6570 O.2   221  ALA221     -0.2718
    104  CB        32.8770   -4.7080    3.1860 C.3   221  ALA221      0.0304
    105  N         35.7640   -4.7780    4.6820 N.am  222  PHE222     -0.1976
    106  CA        36.9470   -4.0610    5.1710 C.3   222  PHE222      0.1639
    107  C         38.2690   -4.4970    4.4490 C.2   222  PHE222      0.2290
    108  O         39.1570   -3.6640    4.2530 O.2   222  PHE222     -0.2864
    109  CB        37.1440   -4.2180    6.7110 C.3   222  PHE222      0.0560
    110  CG        36.1950   -3.3670    7.6130 C.ar  222  PHE222     -0.0200
    111  CD1       36.1450   -1.9760    7.5100 C.ar  222  PHE222     -0.0042
    112  CD2       35.4850   -3.9840    8.6590 C.ar  222  PHE222     -0.0042
    113  CE1       35.3160   -1.2020    8.3950 C.ar  222  PHE222     -0.0003
    114  CE2       34.6930   -3.2520    9.5600 C.ar  222  PHE222     -0.0003
    115  CZ        34.5740   -1.8640    9.4270 C.ar  222  PHE222     -0.0000
    116  N         35.5060  -15.6700    9.0080 N.3   238  ASP238     -0.1225
    117  CA        34.0750  -15.6630    9.3690 C.3   238  ASP238      0.1805
    118  C         33.5900  -17.0710    9.5550 C.2   238  ASP238      0.2598
    119  O         34.0620  -18.0200    8.9180 O.2   238  ASP238     -0.2718
    120  CB        33.2510  -14.9470    8.2770 C.3   238  ASP238      0.1424
    121  CG        31.8560  -14.6310    8.7150 C.2   238  ASP238      0.3668
    122  OD1       31.6060  -13.5050    9.2140 O.co2 238  ASP238     -0.2456
    123  OD2       31.0010  -15.5360    8.6080 O.co2 238  ASP238     -0.2456
    124  N         32.6420  -17.2280   10.4680 N.am  239  LEU239     -0.1966
    125  CA        32.1750  -18.5700   10.8030 C.3   239  LEU239      0.1728
    126  C         31.3660  -19.1530    9.6320 C.2   239  LEU239      0.2616
    127  O         31.3090  -20.3350    9.4830 O.2   239  LEU239     -0.2715
    128  CB        31.3150  -18.5060   12.0600 C.3   239  LEU239      0.0311
    129  CG        30.8490  -19.8280   12.6470 C.3   239  LEU239      0.0022
    130  CD1       32.0320  -20.6990   13.1590 C.3   239  LEU239      0.0001
    131  CD2       29.8160  -19.5320   13.7570 C.3   239  LEU239      0.0001
    132  N         30.7530  -18.3010    8.8050 N.am  240  ALA240     -0.1977
    133  CA        29.7340  -18.7640    7.8540 C.3   240  ALA240      0.1597
    134  C         30.2960  -19.1200    6.4200 C.2   240  ALA240      0.2287
    135  O         31.0800  -18.3550    5.8230 O.2   240  ALA240     -0.2864
    136  CB        28.5770  -17.7120    7.7840 C.3   240  ALA240      0.0319
    137  N         29.0590  -19.0640    3.4520 N.3   242  ARG242     -0.1245
    138  CA        28.6240  -18.0880    2.4500 C.3   242  ARG242      0.1563
    139  C         29.6810  -16.9590    2.2730 C.2   242  ARG242      0.2260
    140  O         29.6810  -16.2690    1.2340 O.2   242  ARG242     -0.2867
    141  CB        27.2520  -17.5030    2.8600 C.3   242  ARG242      0.0307
    142  CG        27.4420  -16.4490    4.0370 C.3   242  ARG242      0.0489
    143  CD        26.1990  -15.7360    4.6860 C.3   242  ARG242      0.2205
    144  NE        26.6380  -15.0080    5.9050 N.pl3 242  ARG242     -0.0865
    145  CZ        25.8720  -14.6970    6.9770 C.cat 242  ARG242      0.5346
    146  NH1       24.5730  -14.9830    7.0150 N.pl3 242  ARG242      0.1354
    147  NH2       26.3970  -14.0450    8.0160 N.pl3 242  ARG242      0.1354
    148  N         35.8610  -20.2130    9.6710 N.3   266  MET266     -0.1230
    149  CA        36.3490  -20.5970   11.0210 C.3   266  MET266      0.1702
    150  C         35.7730  -19.7290   12.1250 C.2   266  MET266      0.2592
    151  O         35.5880  -18.5140   11.9520 O.2   266  MET266     -0.2718
    152  CB        37.8730  -20.4810   11.1280 C.3   266  MET266      0.0401
    153  CG        38.4500  -21.3600   12.2480 C.3   266  MET266      0.0596
    154  SD        40.2710  -21.4750   12.4030 S.3   266  MET266     -0.1393
    155  CE        40.6500  -22.0880   10.7870 C.3   266  MET266      0.0692
    156  N         35.4970  -20.3640   13.2750 N.am  267  ASP267     -0.1960
    157  CA        35.2240  -19.6650   14.5400 C.3   267  ASP267      0.1840
    158  C         36.4460  -18.8010   14.9790 C.2   267  ASP267      0.2622
    159  O         37.6030  -19.2830   15.0270 O.2   267  ASP267     -0.2715
    160  CB        34.8100  -20.6570   15.6360 C.3   267  ASP267      0.1450
    161  CG        34.3660  -19.9590   16.9580 C.2   267  ASP267      0.3671
    162  OD1       35.0140  -18.9690   17.3810 O.co2 267  ASP267     -0.2456
    163  OD2       33.3830  -20.4280   17.6000 O.co2 267  ASP267     -0.2456
    164  N         36.1660  -17.5350   15.2930 N.am  268  VAL268     -0.1963
    165  CA        37.1900  -16.5480   15.6110 C.3   268  VAL268      0.1727
    166  C         38.0130  -16.9900   16.8010 C.2   268  VAL268      0.2616
    167  O         39.2220  -16.8840   16.7180 O.2   268  VAL268     -0.2715
    168  CB        36.5980  -15.0860   15.7320 C.3   268  VAL268      0.0290
    169  CG1       37.4220  -14.1810   16.6750 C.3   268  VAL268      0.0023
    170  CG2       36.4830  -14.4480   14.3580 C.3   268  VAL268      0.0023
    171  N         37.3810  -17.5260   17.8720 N.am  269  PHE269     -0.1974
    172  CA        38.1270  -18.1740   19.0040 C.3   269  PHE269      0.1639
    173  C         39.0480  -19.3590   18.5940 C.2   269  PHE269      0.2290
    174  O         40.1720  -19.4910   19.1110 O.2   269  PHE269     -0.2864
    175  CB        37.1710  -18.5680   20.1760 C.3   269  PHE269      0.0560
    176  CG        36.4140  -17.3760   20.7330 C.ar  269  PHE269     -0.0200
    177  CD1       37.0280  -16.5110   21.6560 C.ar  269  PHE269     -0.0042
    178  CD2       35.1240  -17.0640   20.2710 C.ar  269  PHE269     -0.0042
    179  CE1       36.3450  -15.3510   22.1390 C.ar  269  PHE269     -0.0003
    180  CE2       34.4490  -15.9280   20.7550 C.ar  269  PHE269     -0.0003
    181  CZ        35.0700  -15.0840   21.7000 C.ar  269  PHE269     -0.0000
    182  N         35.0820   -6.7680   14.6520 N.3   288  ASP288     -0.1225
    183  CA        33.7240   -6.1990   14.4790 C.3   288  ASP288      0.1790
    184  C         32.6870   -7.2860   14.6050 C.2   288  ASP288      0.2440
    185  O         32.1010   -7.6820   13.6260 O.2   288  ASP288     -0.2733
    186  CB        33.6190   -5.4600   13.1450 C.3   288  ASP288      0.1423
    187  CG        32.3290   -4.6850   12.9980 C.2   288  ASP288      0.3668
    188  OD1       31.8320   -4.1060   14.0000 O.co2 288  ASP288     -0.2456
    189  OD2       31.8050   -4.6490   11.8560 O.co2 288  ASP288     -0.2456
    190  N         32.4140   -7.7500   15.8290 N.am  289  PRO289     -0.2718
    191  CA        31.5040   -8.8710   15.9410 C.3   289  PRO289      0.1520
    192  C         30.0330   -8.4160   15.9090 C.2   289  PRO289      0.2440
    193  O         29.7690   -7.2190   16.0430 O.2   289  PRO289     -0.2731
    194  CB        31.8300   -9.4260   17.3310 C.3   289  PRO289      0.0310
    195  CG        32.1640   -8.2150   18.1640 C.3   289  PRO289      0.0237
    196  CD        32.9320   -7.3220   17.1430 C.3   289  PRO289      0.0939
    197  N         29.0830   -9.3760   15.7450 N.am  290  PRO290     -0.2727
    198  CA        27.6860   -9.0090   15.9630 C.3   290  PRO290      0.1402
    199  C         27.4650   -8.7810   17.4820 C.2   290  PRO290      0.2269
    200  O         28.3180   -9.2030   18.3200 O.2   290  PRO290     -0.2865
    201  CB        26.9260  -10.2790   15.5300 C.3   290  PRO290      0.0296
    202  CG        27.8790  -11.4030   15.9100 C.3   290  PRO290      0.0237
    203  CD        29.2800  -10.8370   15.7310 C.3   290  PRO290      0.0939
    204  N         25.5600  -13.4010   19.3870 N.3   293  ALA293     -0.1245
    205  CA        25.6050  -14.5420   18.4570 C.3   293  ALA293      0.1562
    206  C         25.5390  -15.9050   19.1430 C.2   293  ALA293      0.2260
    207  O         26.0120  -16.0810   20.2660 O.2   293  ALA293     -0.2867
    208  CB        26.7900  -14.4550   17.5120 C.3   293  ALA293      0.0290
    209  N         28.2470  -15.7430   22.1430 N.3   299  PHE299     -0.1241
    210  CA        28.9360  -14.4890   22.2200 C.3   299  PHE299      0.1605
    211  C         28.0070  -13.3160   22.5130 C.2   299  PHE299      0.2264
    212  O         27.0420  -13.0700   21.7890 O.2   299  PHE299     -0.2867
    213  CB        29.7940  -14.2350   20.9770 C.3   299  PHE299      0.0534
    214  CG        30.4460  -12.9090   20.9970 C.ar  299  PHE299     -0.0203
    215  CD1       31.7150  -12.7660   21.5270 C.ar  299  PHE299     -0.0042
    216  CD2       29.7500  -11.7720   20.5310 C.ar  299  PHE299     -0.0042
    217  CE1       32.3160  -11.4980   21.5970 C.ar  299  PHE299     -0.0003
    218  CE2       30.3260  -10.4930   20.5920 C.ar  299  PHE299     -0.0003
    219  CZ        31.6170  -10.3480   21.1250 C.ar  299  PHE299     -0.0000
@<TRIPOS>BOND
     1   140   139    2
     2    16    14    1
     3    96    95    2
     4    15    13    1
     5    97    98    1
     6    97    99    1
     7    97    94    1
     8   139   138    1
     9    13    14    1
    10    13    10    1
    11   138   141    1
    12   138   137    1
    13   103   102    2
    14   101   104    1
    15   101   100    1
    16   101   102    1
    17   141   142    1
    18    95    94    1
    19     9    10    1
    20    94    93    1
    21    40    39    2
    22   102   105   am
    23    10    11    1
    24    43    44    1
    25    43    42    1
    26    44    45    2
    27     4     3    2
    28    39    38    1
    29    41    42    1
    30    41    38    1
    31   142   143    1
    32   108   107    2
    33    47    45    1
    34     3     2    1
    35   107   106    1
    36    92    91    1
    37    45    46    1
    38    12    11    2
    39    93    83   am
    40    11    17   am
    41   105   106    1
    42   143   144    1
    43    38    37    1
    44    84    83    2
    45    91    90   ar
    46    91    89   ar
    47   106   109    1
    48    90    88   ar
    49    83    82    1
    50    17    18    1
    51    89    87   ar
    52   135   134    2
    53     2     1    1
    54     2     5    1
    55   144   145    2
    56    88    86   ar
    57    19    20    2
    58    19    18    1
    59    87    86   ar
    60     5     6    1
    61   134   133    1
    62    86    85    1
    63    18    21    1
    64   109   110    1
    65    78    77    2
    66    31    30    2
    67    82    85    1
    68    82    81    1
    69    55    53   am
    70   145   146    1
    71   145   147    1
    72    30    29    1
    73    80    79    1
    74    79    76    1
    75    77    81   am
    76    77    76    1
    77   111   110   ar
    78   111   113   ar
    79   110   112   ar
    80   136   133    1
    81   133   132    1
    82     6     7    1
    83    21    22    1
    84    28    29    1
    85    53    52    1
    86    53    54    2
    87    52    49    1
    88    29    32    1
    89   120   121    1
    90   120   117    1
    91    76    75    1
    92    24    22   ar
    93    24    26   ar
    94     8     7    1
    95   113   115   ar
    96    32    33    1
    97    22    23   ar
    98   123   121   ar
    99   112   114   ar
   100   121   122   ar
   101    26    27   ar
   102   132   126   am
   103   119   118    2
   104   116   117    1
   105    23    25   ar
   106    35    34    2
   107   117   118    1
   108   115   114   ar
   109   127   126    2
   110    75    66   am
   111    27    25   ar
   112    48    49    1
   113    51    50    2
   114   118   124   am
   115    49    50    1
   116   126   125    1
   117   148   149    1
   118    33    34    1
   119    50    56   am
   120    34    36   am
   121   124   125    1
   122    67    66    2
   123    66    65    1
   124   155   154    1
   125   125   128    1
   126   149   152    1
   127   149   150    1
   128   152   153    1
   129    56    57    1
   130   189   187   ar
   131    65    64    1
   132    65    68    1
   133   151   150    2
   134   128   129    1
   135   150   156   am
   136    64    58   am
   137    58    57    1
   138    58    59    2
   139    57    60    1
   140   153   154    1
   141   129   130    1
   142   129   131    1
   143   187   186    1
   144   187   188   ar
   145    68    69    1
   146   186   183    1
   147   156   157    1
   148    63    61    1
   149   185   184    2
   150    60    61    1
   151    61    62    1
   152   170   168    1
   153    69    70   ar
   154    69    71   ar
   155   183   184    1
   156   183   182    1
   157   157   158    1
   158   157   160    1
   159   184   190   am
   160   158   159    2
   161   158   164   am
   162    70    72   ar
   163    71    73   ar
   164   164   165    1
   165   201   202    1
   166   201   198    1
   167   165   168    1
   168   165   166    1
   169   160   161    1
   170   203   197    1
   171   203   202    1
   172   168   169    1
   173   197   192   am
   174   197   198    1
   175   190   191    1
   176   190   196    1
   177   192   191    1
   178   192   193    2
   179   191   194    1
   180   198   199    1
   181    72    74   ar
   182    73    74   ar
   183   167   166    2
   184   166   171   am
   185   161   162   ar
   186   161   163   ar
   187   196   195    1
   188   194   195    1
   189   199   200    2
   190   208   205    1
   191   171   172    1
   192   205   206    1
   193   205   204    1
   194   173   172    1
   195   173   174    2
   196   172   175    1
   197   206   207    2
   198   175   176    1
   199   178   176   ar
   200   178   180   ar
   201   216   218   ar
   202   216   214   ar
   203   218   219   ar
   204   176   177   ar
   205   180   181   ar
   206   213   214    1
   207   213   210    1
   208   214   215   ar
   209   219   217   ar
   210   215   217   ar
   211   177   179   ar
   212   181   179   ar
   213   212   211    2
   214   209   210    1
   215   210   211    1
