@<TRIPOS>MOLECULE
tmp/3ldgA00.pdb
 172 171 0 0 0
SMALL
GASTEIGER

@<TRIPOS>ATOM
      1  N         70.2860   63.6780   38.3020 N.3   171  ALA171     -0.1231
      2  CA        69.1190   64.2360   38.9840 C.3   171  ALA171      0.1679
      3  C         68.6210   65.5260   38.3340 C.2   171  ALA171      0.2434
      4  O         68.5110   66.5650   38.9920 O.2   171  ALA171     -0.2733
      5  CB        69.4200   64.4680   40.4620 C.3   171  ALA171      0.0304
      6  N         68.3100   65.4590   37.0350 N.am  172  PRO172     -0.2718
      7  CA        67.7250   66.6200   36.3640 C.3   172  PRO172      0.1535
      8  C         66.3640   66.8970   36.9780 C.2   172  PRO172      0.2598
      9  O         65.6470   65.9600   37.3310 O.2   172  PRO172     -0.2715
     10  CB        67.5260   66.1410   34.9200 C.3   172  PRO172      0.0310
     11  CG        68.1650   64.7700   34.8380 C.3   172  PRO172      0.0237
     12  CD        68.2340   64.2370   36.2170 C.3   172  PRO172      0.0939
     13  N         66.0100   68.1610   37.1360 N.am  173  ILE173     -0.1978
     14  CA        64.6260   68.4730   37.4220 C.3   173  ILE173      0.1596
     15  C         63.8160   67.9160   36.2410 C.2   173  ILE173      0.2287
     16  O         64.2970   67.9170   35.1060 O.2   173  ILE173     -0.2864
     17  CB        64.4380   69.9780   37.5580 C.3   173  ILE173      0.0276
     18  CG1       63.1310   70.3040   38.2680 C.3   173  ILE173      0.0022
     19  CG2       64.5270   70.6580   36.2090 C.3   173  ILE173      0.0022
     20  CD1       63.0020   71.7920   38.5750 C.3   173  ILE173      0.0001
     21  N         71.5090   80.3230   35.3640 N.3   195  PRO195     -0.2102
     22  CA        72.9300   80.4080   35.7390 C.3   195  PRO195      0.1504
     23  C         73.4710   79.1590   36.4160 C.2   195  PRO195      0.2576
     24  O         74.6440   79.1520   36.8040 O.2   195  PRO195     -0.2718
     25  CB        72.9230   81.5510   36.7470 C.3   195  PRO195      0.0282
     26  CG        71.6360   81.2140   37.5570 C.3   195  PRO195      0.0208
     27  CD        70.6490   80.9650   36.3860 C.3   195  PRO195      0.0893
     28  N         72.6260   78.1360   36.5790 N.am  196  THR196     -0.1939
     29  CA        73.0410   76.8490   37.0940 C.3   196  THR196      0.2028
     30  C         72.4290   75.7490   36.2150 C.2   196  THR196      0.2642
     31  O         71.6880   74.9070   36.6970 O.2   196  THR196     -0.2714
     32  CB        72.5570   76.6660   38.5420 C.3   196  THR196      0.1808
     33  OG1       71.1490   76.9220   38.6010 O.3   196  THR196     -0.2208
     34  CG2       73.2660   77.6450   39.4650 C.3   196  THR196      0.0379
     35  N         72.7470   75.7600   34.9230 N.am  197  CYS197     -0.1953
     36  CA        71.8280   75.1850   33.9440 C.3   197  CYS197      0.1843
     37  C         71.7940   73.6690   33.9010 C.2   197  CYS197      0.2626
     38  O         70.8780   73.0940   33.3200 O.2   197  CYS197     -0.2714
     39  CB        72.0620   75.7600   32.5330 C.3   197  CYS197      0.0997
     40  SG        73.6210   75.2420   31.7170 S.3   197  CYS197     -0.0797
     41  N         72.7750   73.0220   34.5220 N.am  198  GLY198     -0.1940
     42  CA        72.8320   71.5730   34.4850 C.3   198  GLY198      0.2014
     43  C         72.6920   71.0730   33.0580 C.2   198  GLY198      0.2639
     44  O         73.3970   71.5370   32.1650 O.2   198  GLY198     -0.2714
     45  N         71.7650   70.1430   32.8470 N.am  199  SER199     -0.1949
     46  CA        71.5340   69.5180   31.5360 C.3   199  SER199      0.1924
     47  C         70.7080   70.3360   30.5310 C.2   199  SER199      0.2314
     48  O         70.3450   69.8190   29.4700 O.2   199  SER199     -0.2863
     49  CB        70.8470   68.1710   31.7430 C.3   199  SER199      0.2116
     50  OG        69.5670   68.3820   32.3100 O.3   199  SER199     -0.2180
     51  N         67.6270   71.9460   30.8820 N.3   201  THR201     -0.1203
     52  CA        66.1730   71.7650   30.9220 C.3   201  THR201      0.1994
     53  C         65.3860   73.0810   30.9200 C.2   201  THR201      0.2617
     54  O         64.4460   73.2550   30.1550 O.2   201  THR201     -0.2717
     55  CB        65.7890   70.9850   32.1870 C.3   201  THR201      0.1784
     56  OG1       66.7160   69.9110   32.3630 O.3   201  THR201     -0.2211
     57  CG2       64.3700   70.4520   32.0810 C.3   201  THR201      0.0376
     58  N         65.7820   74.0080   31.7770 N.am  202  PHE202     -0.1975
     59  CA        65.1100   75.3050   31.8110 C.3   202  PHE202      0.1639
     60  C         65.2210   76.0320   30.4610 C.2   202  PHE202      0.2290
     61  O         64.2290   76.5190   29.9340 O.2   202  PHE202     -0.2864
     62  CB        65.6110   76.1590   32.9770 C.3   202  PHE202      0.0560
     63  CG        64.9610   75.8070   34.2930 C.ar  202  PHE202     -0.0200
     64  CD1       63.6250   76.1080   34.5210 C.ar  202  PHE202     -0.0042
     65  CD2       65.6710   75.1590   35.2890 C.ar  202  PHE202     -0.0042
     66  CE1       63.0050   75.7850   35.7410 C.ar  202  PHE202     -0.0003
     67  CE2       65.0600   74.8200   36.5030 C.ar  202  PHE202     -0.0003
     68  CZ        63.7310   75.1390   36.7250 C.ar  202  PHE202     -0.0000
     69  N         74.2670   78.6050   31.7500 N.3   254  PHE254     -0.1227
     70  CA        75.6370   78.2080   31.9890 C.3   254  PHE254      0.1736
     71  C         75.7150   77.4310   33.2920 C.2   254  PHE254      0.2595
     72  O         74.7530   77.4040   34.0590 O.2   254  PHE254     -0.2718
     73  CB        76.5650   79.4320   31.9940 C.3   254  PHE254      0.0547
     74  CG        76.0180   80.6160   32.7430 C.ar  254  PHE254     -0.0202
     75  CD1       76.2230   80.7450   34.1090 C.ar  254  PHE254     -0.0042
     76  CD2       75.3310   81.6260   32.0710 C.ar  254  PHE254     -0.0042
     77  CE1       75.7210   81.8550   34.7990 C.ar  254  PHE254     -0.0003
     78  CE2       74.8380   82.7300   32.7620 C.ar  254  PHE254     -0.0003
     79  CZ        75.0390   82.8370   34.1170 C.ar  254  PHE254     -0.0000
     80  N         76.8580   76.7930   33.5070 N.am  255  ASP255     -0.1960
     81  CA        77.0970   75.8930   34.6340 C.3   255  ASP255      0.1840
     82  C         78.6070   75.8020   34.8100 C.2   255  ASP255      0.2622
     83  O         79.3460   75.7930   33.8220 O.2   255  ASP255     -0.2715
     84  CB        76.5470   74.5000   34.3010 C.3   255  ASP255      0.1450
     85  CG        76.4560   73.6010   35.5080 C.2   255  ASP255      0.3671
     86  OD1       77.5080   73.2920   36.1060 O.co2 255  ASP255     -0.2456
     87  OD2       75.3270   73.2200   35.8680 O.co2 255  ASP255     -0.2456
     88  N         79.0860   75.7550   36.0470 N.am  256  PHE256     -0.1960
     89  CA        80.5230   75.7040   36.2410 C.3   256  PHE256      0.1771
     90  C         81.0820   74.2970   36.0300 C.2   256  PHE256      0.2619
     91  O         82.2770   74.0890   36.1950 O.2   256  PHE256     -0.2715
     92  CB        80.9250   76.2560   37.6240 C.3   256  PHE256      0.0574
     93  CG        80.7810   75.2690   38.7490 C.ar  256  PHE256     -0.0200
     94  CD1       81.5950   75.3660   39.8710 C.ar  256  PHE256     -0.0042
     95  CD2       79.8160   74.2660   38.7090 C.ar  256  PHE256     -0.0042
     96  CE1       81.4660   74.4660   40.9370 C.ar  256  PHE256     -0.0003
     97  CE2       79.6840   73.3540   39.7700 C.ar  256  PHE256     -0.0003
     98  CZ        80.5120   73.4560   40.8850 C.ar  256  PHE256     -0.0000
     99  N         80.2180   73.3390   35.6780 N.am  257  ASP257     -0.1971
    100  CA        80.6620   71.9570   35.3990 C.3   257  ASP257      0.1709
    101  C         80.6170   71.6620   33.8920 C.2   257  ASP257      0.2293
    102  O         79.5360   71.5670   33.2820 O.2   257  ASP257     -0.2864
    103  CB        79.7970   70.9550   36.1800 C.3   257  ASP257      0.1436
    104  CG        80.2550   69.4990   36.0130 C.2   257  ASP257      0.3671
    105  OD1       81.1610   69.2070   35.2190 O.co2 257  ASP257     -0.2456
    106  OD2       79.6680   68.6370   36.6760 O.co2 257  ASP257     -0.2456
    107  N         81.3040   79.9780   35.8260 N.3   281  ARG281     -0.1231
    108  CA        80.8320   80.1700   37.2090 C.3   281  ARG281      0.1694
    109  C         79.7940   81.2790   37.2240 C.2   281  ARG281      0.2592
    110  O         79.9780   82.3060   36.5590 O.2   281  ARG281     -0.2718
    111  CB        81.9790   80.5720   38.1360 C.3   281  ARG281      0.0321
    112  CG        83.0750   79.5270   38.2430 C.3   281  ARG281      0.0489
    113  CD        84.2860   80.0670   39.0120 C.3   281  ARG281      0.2205
    114  NE        83.9360   80.5250   40.3550 N.pl3 281  ARG281     -0.0865
    115  CZ        83.9930   81.7920   40.7710 C.cat 281  ARG281      0.5346
    116  NH1       84.3980   82.7670   39.9550 N.pl3 281  ARG281      0.1354
    117  NH2       83.6500   82.0850   42.0200 N.pl3 281  ARG281      0.1354
    118  N         78.7020   81.0950   37.9630 N.am  282  LEU282     -0.1966
    119  CA        77.6750   82.1390   37.9660 C.3   282  LEU282      0.1728
    120  C         78.1850   83.4360   38.5960 C.2   282  LEU282      0.2616
    121  O         77.6410   84.5190   38.3550 O.2   282  LEU282     -0.2715
    122  CB        76.3940   81.6560   38.6750 C.3   282  LEU282      0.0311
    123  CG        76.5060   81.2960   40.1470 C.3   282  LEU282      0.0022
    124  CD1       76.4020   82.5290   40.9970 C.3   282  LEU282      0.0001
    125  CD2       75.4300   80.3150   40.5370 C.3   282  LEU282      0.0001
    126  N         79.2140   83.3200   39.4270 N.am  283  GLN283     -0.1977
    127  CA        79.7770   84.4940   40.1130 C.3   283  GLN283      0.1601
    128  C         80.3910   85.5040   39.1390 C.2   283  GLN283      0.2287
    129  O         80.5930   86.6730   39.4800 O.2   283  GLN283     -0.2864
    130  CB        80.8070   84.0730   41.1520 C.3   283  GLN283      0.0394
    131  CG        80.2100   83.2490   42.3170 C.3   283  GLN283      0.0908
    132  CD        80.2270   81.7450   42.0450 C.2   283  GLN283      0.2608
    133  OE1       80.2330   81.3000   40.8910 O.2   283  GLN283     -0.2717
    134  NE2       80.2460   80.9540   43.1160 N.am  283  GLN283     -0.0878
    135  N         67.8490   76.5810   39.6090 N.3   297  ASN297     -0.1226
    136  CA        67.6630   75.4530   40.5340 C.3   297  ASN297      0.1770
    137  C         69.0360   75.1230   41.1140 C.2   297  ASN297      0.2439
    138  O         69.6820   74.1870   40.6500 O.2   297  ASN297     -0.2733
    139  CB        67.1420   74.2170   39.7500 C.3   297  ASN297      0.1168
    140  CG        66.8370   73.0130   40.6600 C.2   297  ASN297      0.2627
    141  OD1       66.4270   73.1710   41.8090 O.2   297  ASN297     -0.2716
    142  ND2       67.0360   71.8070   40.1290 N.am  297  ASN297     -0.0877
    143  N         69.5170   75.9200   42.0940 N.am  298  PRO298     -0.2718
    144  CA        70.9120   75.7710   42.5360 C.3   298  PRO298      0.1520
    145  C         71.1200   74.5460   43.4270 C.2   298  PRO298      0.2440
    146  O         70.1390   73.9030   43.8010 O.2   298  PRO298     -0.2731
    147  CB        71.1640   77.0610   43.3410 C.3   298  PRO298      0.0310
    148  CG        69.8240   77.4510   43.8450 C.3   298  PRO298      0.0237
    149  CD        68.8890   77.1280   42.6650 C.3   298  PRO298      0.0939
    150  N         72.3820   74.2150   43.7390 N.am  299  PRO299     -0.2727
    151  CA        72.6510   73.1420   44.7060 C.3   299  PRO299      0.1402
    152  C         71.8040   73.3200   45.9700 C.2   299  PRO299      0.2269
    153  O         71.7000   74.4080   46.5360 O.2   299  PRO299     -0.2865
    154  CB        74.1320   73.3330   45.0370 C.3   299  PRO299      0.0296
    155  CG        74.7200   73.9340   43.7800 C.3   299  PRO299      0.0237
    156  CD        73.6210   74.7540   43.1420 C.3   299  PRO299      0.0939
    157  N         76.5750   69.1410   49.1670 N.3   305  LEU305     -0.1245
    158  CA        77.4940   70.2180   49.5030 C.3   305  LEU305      0.1561
    159  C         77.4150   70.5520   50.9920 C.2   305  LEU305      0.2260
    160  O         76.3180   70.6440   51.5560 O.2   305  LEU305     -0.2867
    161  CB        77.1120   71.4550   48.6840 C.3   305  LEU305      0.0270
    162  CG        78.2080   72.2510   47.9890 C.3   305  LEU305      0.0019
    163  CD1       78.9770   71.3340   47.0450 C.3   305  LEU305      0.0001
    164  CD2       77.6020   73.4540   47.2380 C.3   305  LEU305      0.0001
    165  N         77.7880   79.9140   48.5910 N.3   313  LEU313     -0.1245
    166  CA        77.2160   79.9090   47.2500 C.3   313  LEU313      0.1561
    167  C         76.0140   80.8420   47.1850 C.2   313  LEU313      0.2260
    168  O         75.9370   81.7250   46.3240 O.2   313  LEU313     -0.2867
    169  CB        76.7970   78.4990   46.8490 C.3   313  LEU313      0.0270
    170  CG        76.1520   78.4070   45.4630 C.3   313  LEU313      0.0019
    171  CD1       77.1070   78.9420   44.3970 C.3   313  LEU313      0.0001
    172  CD2       75.7420   76.9620   45.1530 C.3   313  LEU313      0.0001
@<TRIPOS>BOND
     1    48    47    2
     2    61    60    2
     3    54    53    2
     4    60    59    1
     5    47    46    1
     6    51    52    1
     7    53    52    1
     8    53    58   am
     9    52    55    1
    10    46    49    1
    11    46    45    1
    12    40    39    1
    13    49    50    1
    14    69    70    1
    15    58    59    1
    16    59    62    1
    17    70    73    1
    18    70    71    1
    19    73    74    1
    20    76    74   ar
    21    76    78   ar
    22    57    55    1
    23    44    43    2
    24    55    56    1
    25    39    36    1
    26    74    75   ar
    27    78    79   ar
    28    45    43   am
    29    62    63    1
    30    43    42    1
    31   102   101    2
    32    71    80   am
    33    71    72    2
    34    38    37    2
    35    80    81    1
    36    83    82    2
    37   101   100    1
    38    37    36    1
    39    37    41   am
    40    36    35    1
    41    75    77   ar
    42    79    77   ar
    43    63    64   ar
    44    63    65   ar
    45    84    81    1
    46    84    85    1
    47    42    41    1
    48    64    66   ar
    49    81    82    1
    50    82    88   am
    51    11    10    1
    52    11    12    1
    53    10     7    1
    54    35    30   am
    55    16    15    2
    56   105   104   ar
    57    65    67   ar
    58    21    22    1
    59    21    27    1
    60   100    99    1
    61   100   103    1
    62    85    87   ar
    63    85    86   ar
    64    99    90   am
    65    22    23    1
    66    22    25    1
    67    66    68   ar
    68   107   108    1
    69   104   103    1
    70   104   106   ar
    71    90    91    2
    72    90    89    1
    73    88    89    1
    74    19    17    1
    75    30    31    2
    76    30    29    1
    77    12     6    1
    78    89    92    1
    79    15    14    1
    80     7     8    1
    81     7     6    1
    82    27    26    1
    83    23    28   am
    84    23    24    2
    85    67    68   ar
    86   110   109    2
    87    28    29    1
    88    25    26    1
    89     8    13   am
    90     8     9    2
    91     6     3   am
    92    29    32    1
    93    13    14    1
    94   108   109    1
    95   108   111    1
    96   109   118   am
    97    14    17    1
    98    17    18    1
    99    92    93    1
   100   118   119    1
   101   119   120    1
   102   119   122    1
   103   111   112    1
   104   112   113    1
   105    18    20    1
   106     1     2    1
   107     3     2    1
   108     3     4    2
   109   121   120    2
   110    32    33    1
   111    32    34    1
   112   120   126   am
   113   122   123    1
   114    95    93   ar
   115    95    97   ar
   116    93    94   ar
   117     2     5    1
   118   113   114    1
   119   128   129    2
   120   128   127    1
   121   126   127    1
   122   135   136    1
   123   139   136    1
   124   139   140    1
   125    97    98   ar
   126    94    96   ar
   127   116   115    1
   128   127   130    1
   129   142   140   am
   130   123   125    1
   131   123   124    1
   132   114   115    2
   133   136   137    1
   134   138   137    2
   135   140   141    2
   136   115   117    1
   137    98    96   ar
   138   133   132    2
   139   137   143   am
   140   130   131    1
   141   132   131    1
   142   132   134   am
   143   143   144    1
   144   143   149    1
   145   144   147    1
   146   144   145    1
   147   149   148    1
   148   156   150    1
   149   156   155    1
   150   147   148    1
   151   145   150   am
   152   145   146    2
   153   150   151    1
   154   155   154    1
   155   171   170    1
   156   151   154    1
   157   151   152    1
   158   172   170    1
   159   170   169    1
   160   152   153    2
   161   168   167    2
   162   169   166    1
   163   163   162    1
   164   167   166    1
   165   164   162    1
   166   166   165    1
   167   162   161    1
   168   161   158    1
   169   157   158    1
   170   158   159    1
   171   159   160    2
