@<TRIPOS>MOLECULE
tmp/3ldkA00.pdb
 179 175 0 0 0
SMALL
GASTEIGER

@<TRIPOS>ATOM
      1  N         78.6760   12.8850   65.0480 N.3    40  GLY40      -0.1210
      2  CA        79.3850   13.3570   63.8690 C.3    40  GLY40       0.1956
      3  C         78.6840   12.9150   62.5930 C.2    40  GLY40       0.2611
      4  O         77.4460   12.8580   62.5400 O.2    40  GLY40      -0.2717
      5  N         79.4700   12.5900   61.5680 N.am   41  ASP41      -0.1973
      6  CA        78.9320   12.1570   60.2780 C.3    41  ASP41       0.1709
      7  C         78.0480   10.9260   60.3820 C.2    41  ASP41       0.2293
      8  O         78.3810    9.9650   61.0840 O.2    41  ASP41      -0.2864
      9  CB        80.0490   11.7550   59.3030 C.3    41  ASP41       0.1436
     10  CG        80.9190   12.9040   58.8700 C.2    41  ASP41       0.3671
     11  OD1       80.8170   14.0040   59.4470 O.co2  41  ASP41      -0.2456
     12  OD2       81.7300   12.6850   57.9470 O.co2  41  ASP41      -0.2456
     13  N         79.0460    8.6700   63.4030 N.3    59  LEU59      -0.1245
     14  CA        80.2310    8.8580   64.2280 C.3    59  LEU59       0.1561
     15  C         79.7210    9.4310   65.5450 C.2    59  LEU59       0.2260
     16  O         78.7770   10.2290   65.5590 O.2    59  LEU59      -0.2867
     17  CB        81.2030    9.8350   63.5630 C.3    59  LEU59       0.0270
     18  CG        81.8210    9.3620   62.2380 C.3    59  LEU59       0.0019
     19  CD1       82.8550   10.3960   61.7540 C.3    59  LEU59       0.0001
     20  CD2       82.4770    7.9770   62.4420 C.3    59  LEU59       0.0001
     21  N         87.0650    6.6350   60.9160 N.3    99  PHE99      -0.1227
     22  CA        86.2330    7.5700   60.1610 C.3    99  PHE99       0.1736
     23  C         85.0730    6.8770   59.4420 C.2    99  PHE99       0.2595
     24  O         84.8700    5.6710   59.6030 O.2    99  PHE99      -0.2718
     25  CB        87.1020    8.3500   59.1630 C.3    99  PHE99       0.0547
     26  CG        87.9140    9.4500   59.7980 C.ar   99  PHE99      -0.0202
     27  CD1       87.9250    9.6160   61.1830 C.ar   99  PHE99      -0.0042
     28  CD2       88.6690   10.3140   59.0190 C.ar   99  PHE99      -0.0042
     29  CE1       88.6700   10.6200   61.7830 C.ar   99  PHE99      -0.0003
     30  CE2       89.4240   11.3280   59.6090 C.ar   99  PHE99      -0.0003
     31  CZ        89.4230   11.4800   60.9980 C.ar   99  PHE99      -0.0000
     32  N         84.3530    7.7110   58.5930 N.am  100  ASP100     -0.1974
     33  CA        83.1740    7.2550   57.8420 C.3   100  ASP100      0.1709
     34  C         83.4220    5.9550   57.0670 C.2   100  ASP100      0.2293
     35  O         84.5620    5.6340   56.7040 O.2   100  ASP100     -0.2864
     36  CB        82.7240    8.3300   56.8460 C.3   100  ASP100      0.1436
     37  CG        82.4850    9.6800   57.4940 C.2   100  ASP100      0.3671
     38  OD1       83.3490   10.1440   58.2700 O.co2 100  ASP100     -0.2456
     39  OD2       81.4310   10.2900   57.2180 O.co2 100  ASP100     -0.2456
     40  N         97.0270   11.9100   62.6480 N.3   122  LEU122     -0.1245
     41  CA        96.2560   13.1410   62.6760 C.3   122  LEU122      0.1561
     42  C         97.2480   14.2680   62.9110 C.2   122  LEU122      0.2260
     43  O         98.3150   14.0620   63.4920 O.2   122  LEU122     -0.2867
     44  CB        95.2140   13.1250   63.7940 C.3   122  LEU122      0.0270
     45  CG        93.9830   12.2590   63.5270 C.3   122  LEU122      0.0019
     46  CD1       93.0830   12.2920   64.7500 C.3   122  LEU122      0.0001
     47  CD2       93.2450   12.7580   62.2950 C.3   122  LEU122      0.0001
     48  N         94.4410   15.6520   59.7410 N.3   124  ILE124     -0.1231
     49  CA        94.2600   15.4370   58.3110 C.3   124  ILE124      0.1692
     50  C         93.3930   16.5660   57.7480 C.2   124  ILE124      0.2592
     51  O         92.2060   16.6500   58.0480 O.2   124  ILE124     -0.2718
     52  CB        93.5440   14.1030   58.0060 C.3   124  ILE124      0.0266
     53  CG1       94.2570   12.9410   58.7140 C.3   124  ILE124      0.0019
     54  CG2       93.5180   13.8760   56.4810 C.3   124  ILE124      0.0020
     55  CD1       93.4850   11.6350   58.6660 C.3   124  ILE124      0.0001
     56  N         93.9800   17.4380   56.9360 N.am  125  HIS125     -0.1962
     57  CA        93.2040   18.5300   56.3490 C.3   125  HIS125      0.1787
     58  C         93.7280   18.8870   54.9690 C.2   125  HIS125      0.2620
     59  O         94.9380   18.8100   54.7120 O.2   125  HIS125     -0.2715
     60  CB        93.2470   19.7630   57.2570 C.3   125  HIS125      0.0785
     61  CG        92.2130   20.7850   56.9180 C.ar  125  HIS125      0.0821
     62  ND1       92.5240   21.9930   56.3340 N.ar  125  HIS125     -0.2267
     63  CD2       90.8630   20.7550   57.0280 C.ar  125  HIS125      0.1154
     64  CE1       91.4100   22.6630   56.0940 C.ar  125  HIS125      0.1986
     65  NE2       90.3870   21.9340   56.5040 N.ar  125  HIS125     -0.2212
     66  N         92.8290   19.2860   54.0780 N.am  126  TRP126     -0.1974
     67  CA        93.2540   19.6400   52.7340 C.3   126  TRP126      0.1640
     68  C         94.2750   20.7780   52.6950 C.2   126  TRP126      0.2290
     69  O         95.1060   20.8220   51.7900 O.2   126  TRP126     -0.2864
     70  CB        92.0570   20.0170   51.8600 C.3   126  TRP126      0.0576
     71  CG        91.2720   21.1690   52.3580 C.ar  126  TRP126      0.0006
     72  CD1       90.1120   21.1230   53.0700 C.ar  126  TRP126      0.0946
     73  CD2       91.5640   22.5580   52.1500 C.ar  126  TRP126      0.0152
     74  NE1       89.6540   22.3980   53.3150 N.ar  126  TRP126     -0.2442
     75  CE2       90.5250   23.2980   52.7600 C.ar  126  TRP126      0.0810
     76  CE3       92.6010   23.2460   51.5060 C.ar  126  TRP126      0.0012
     77  CZ2       90.4880   24.6960   52.7430 C.ar  126  TRP126      0.0191
     78  CZ3       92.5700   24.6410   51.4880 C.ar  126  TRP126      0.0001
     79  CH2       91.5160   25.3520   52.1030 C.ar  126  TRP126      0.0015
     80  N         89.2050    9.2420   52.0410 N.3   171  ARG171     -0.1231
     81  CA        88.3050    8.6490   53.0200 C.3   171  ARG171      0.1694
     82  C         86.8020    8.6010   52.6820 C.2   171  ARG171      0.2591
     83  O         86.3670    9.0480   51.6270 O.2   171  ARG171     -0.2718
     84  CB        88.5010    9.3990   54.3440 C.3   171  ARG171      0.0321
     85  CG        88.3570   10.9250   54.2190 C.3   171  ARG171      0.0489
     86  CD        88.2840   11.6460   55.5870 C.3   171  ARG171      0.2205
     87  NE        88.0760   13.0890   55.4310 N.pl3 171  ARG171     -0.0865
     88  CZ        89.0540   13.9790   55.2440 C.cat 171  ARG171      0.5346
     89  NH1       90.3160   13.5780   55.1990 N.pl3 171  ARG171      0.1354
     90  NH2       88.7710   15.2690   55.0800 N.pl3 171  ARG171      0.1354
     91  N         86.0260    8.0480   53.6120 N.am  172  ALA172     -0.1980
     92  CA        84.5700    7.9190   53.4840 C.3   172  ALA172      0.1597
     93  C         84.1390    7.0330   52.3250 C.2   172  ALA172      0.2287
     94  O         83.3330    7.4420   51.4930 O.2   172  ALA172     -0.2864
     95  CB        83.9400    9.2900   53.3390 C.3   172  ALA172      0.0319
     96  N         84.0530   15.6350   50.1170 N.3   273  GLU273     -0.1231
     97  CA        83.8640   14.7970   51.2770 C.3   273  GLU273      0.1699
     98  C         82.5840   13.9820   51.2070 C.2   273  GLU273      0.2592
     99  O         81.6410   14.3370   50.4970 O.2   273  GLU273     -0.2718
    100  CB        83.8440   15.6420   52.5500 C.3   273  GLU273      0.0402
    101  CG        85.1080   16.4190   52.7860 C.3   273  GLU273      0.1161
    102  CD        85.3090   16.7540   54.2490 C.2   273  GLU273      0.3649
    103  OE1       84.6050   17.6470   54.7720 O.co2 273  GLU273     -0.2457
    104  OE2       86.1740   16.1030   54.8770 O.co2 273  GLU273     -0.2457
    105  N         82.6350   12.8050   51.7600 N.am  274  THR274     -0.1953
    106  CA        81.5440   11.8960   52.0420 C.3   274  THR274      0.1897
    107  C         80.5950   11.6300   50.8860 C.2   274  THR274      0.2313
    108  O         79.3970   11.9040   50.9900 O.2   274  THR274     -0.2863
    109  CB        80.7230   12.4390   53.2270 C.3   274  THR274      0.1794
    110  OG1       80.0610   13.6500   52.8310 O.3   274  THR274     -0.2208
    111  CG2       81.6490   12.7290   54.4300 C.3   274  THR274      0.0378
    112  N         84.5440   21.3760   50.7050 N.3   299  GLU299     -0.1245
    113  CA        85.1580   22.2710   51.6860 C.3   299  GLU299      0.1567
    114  C         85.7240   23.5210   51.0390 C.2   299  GLU299      0.2260
    115  O         86.6140   23.4440   50.1930 O.2   299  GLU299     -0.2867
    116  CB        86.2890   21.5540   52.4150 C.3   299  GLU299      0.0388
    117  CG        85.8840   20.2860   53.1120 C.3   299  GLU299      0.1160
    118  CD        87.0210   19.7170   53.9110 C.2   299  GLU299      0.3649
    119  OE1       87.5860   18.6810   53.5040 O.co2 299  GLU299     -0.2457
    120  OE2       87.3580   20.3280   54.9410 O.co2 299  GLU299     -0.2457
    121  N         88.1480   25.1340   57.4950 N.3   310  SER310     -0.1217
    122  CA        87.3600   25.1680   56.2670 C.3   310  SER310      0.1889
    123  C         86.2180   26.1090   56.6110 C.2   310  SER310      0.2288
    124  O         85.3340   25.7530   57.3870 O.2   310  SER310     -0.2866
    125  CB        86.7950   23.7860   55.9290 C.3   310  SER310      0.2089
    126  OG        87.8040   22.8420   55.6320 O.3   310  SER310     -0.2183
    127  N         81.2830   24.6900   54.3980 N.3   313  HIS313     -0.1241
    128  CA        80.9850   23.2540   54.3140 C.3   313  HIS313      0.1621
    129  C         79.6710   23.0970   53.5320 C.2   313  HIS313      0.2264
    130  O         78.5900   23.1040   54.1130 O.2   313  HIS313     -0.2867
    131  CB        80.8090   22.6330   55.7040 C.3   313  HIS313      0.0745
    132  CG        82.0740   22.5400   56.5030 C.ar  313  HIS313      0.0817
    133  ND1       82.6050   23.6120   57.1870 N.ar  313  HIS313     -0.2268
    134  CD2       82.9110   21.4980   56.7290 C.ar  313  HIS313      0.1154
    135  CE1       83.7150   23.2350   57.7980 C.ar  313  HIS313      0.1986
    136  NE2       83.9240   21.9560   57.5370 N.ar  313  HIS313     -0.2212
    137  N         75.5040   19.0860   56.5120 N.3   350  TYR350     -0.1227
    138  CA        76.7120   18.6290   55.8370 C.3   350  TYR350      0.1736
    139  C         76.8780   17.1070   55.9160 C.2   350  TYR350      0.2595
    140  O         75.9660   16.3750   56.3190 O.2   350  TYR350     -0.2718
    141  CB        77.9010   19.2980   56.5300 C.3   350  TYR350      0.0548
    142  CG        79.1870   19.4060   55.7460 C.ar  350  TYR350     -0.0200
    143  CD1       80.3880   18.9270   56.2820 C.ar  350  TYR350     -0.0009
    144  CD2       79.2320   20.0860   54.5220 C.ar  350  TYR350     -0.0009
    145  CE1       81.6140   19.1310   55.6240 C.ar  350  TYR350      0.0417
    146  CE2       80.4400   20.2950   53.8570 C.ar  350  TYR350      0.0417
    147  CZ        81.6290   19.8190   54.4140 C.ar  350  TYR350      0.1957
    148  OH        82.8260   20.0620   53.7770 O.3   350  TYR350     -0.2866
    149  N         77.8760   16.6550   55.2650 N.am  351  ALA351     -0.1980
    150  CA        78.2020   15.2350   55.3550 C.3   351  ALA351      0.1597
    151  C         77.0770   14.2120   55.1990 C.2   351  ALA351      0.2287
    152  O         76.9330   13.3100   56.0290 O.2   351  ALA351     -0.2864
    153  CB        78.9300   14.9850   56.6670 C.3   351  ALA351      0.0319
    154  N         73.7500   15.5910   58.1540 N.3   379  TRP379     -0.1241
    155  CA        74.2880   15.9740   59.4490 C.3   379  TRP379      0.1605
    156  C         74.0220   17.4450   59.7410 C.2   379  TRP379      0.2264
    157  O         74.0980   18.2940   58.8530 O.2   379  TRP379     -0.2867
    158  CB        75.8050   15.7360   59.4810 C.3   379  TRP379      0.0550
    159  CG        76.4450   16.0950   60.7930 C.ar  379  TRP379      0.0003
    160  CD1       75.9400   15.8440   62.0320 C.ar  379  TRP379      0.0946
    161  CD2       77.7710   16.6240   61.0000 C.ar  379  TRP379      0.0152
    162  NE1       76.8650   16.1640   63.0000 N.ar  379  TRP379     -0.2442
    163  CE2       77.9990   16.6440   62.3950 C.ar  379  TRP379      0.0810
    164  CE3       78.7850   17.0730   60.1440 C.ar  379  TRP379      0.0012
    165  CZ2       79.2070   17.0920   62.9590 C.ar  379  TRP379      0.0191
    166  CZ3       79.9920   17.5220   60.7010 C.ar  379  TRP379      0.0001
    167  CH2       80.1900   17.5240   62.1000 C.ar  379  TRP379      0.0015
    168  N         80.8920   23.0540   63.0710 N.3   385  TYR385     -0.1241
    169  CA        82.1030   22.3110   62.7370 C.3   385  TYR385      0.1605
    170  C         83.2520   22.5840   63.7200 C.2   385  TYR385      0.2264
    171  O         84.4200   22.6190   63.3350 O.2   385  TYR385     -0.2867
    172  CB        82.5250   22.6570   61.2990 C.3   385  TYR385      0.0534
    173  CG        81.3690   22.5550   60.3180 C.ar  385  TYR385     -0.0201
    174  CD1       80.9280   21.3150   59.8540 C.ar  385  TYR385     -0.0009
    175  CD2       80.6720   23.6950   59.9090 C.ar  385  TYR385     -0.0009
    176  CE1       79.8240   21.2100   59.0150 C.ar  385  TYR385      0.0417
    177  CE2       79.5660   23.5980   59.0710 C.ar  385  TYR385      0.0417
    178  CZ        79.1450   22.3490   58.6320 C.ar  385  TYR385      0.1957
    179  OH        78.0200   22.2350   57.8450 O.3   385  TYR385     -0.2866
@<TRIPOS>BOND
     1    96    97    1
     2   115   114    2
     3    99    98    2
     4   112   113    1
     5   107   108    2
     6   107   106    1
     7   114   113    1
     8    98    97    1
     9    98   105   am
    10    97   100    1
    11    78    76   ar
    12    78    79   ar
    13    94    93    2
    14    76    73   ar
    15    83    82    2
    16   113   116    1
    17   105   106    1
    18    69    68    2
    19    70    71    1
    20    70    67    1
    21    80    81    1
    22   106   109    1
    23    79    77   ar
    24    73    71   ar
    25    73    75   ar
    26    93    92    1
    27    71    72   ar
    28   116   117    1
    29   100   101    1
    30    82    81    1
    31    82    91   am
    32    68    67    1
    33    67    66    1
    34    77    75   ar
    35    75    74   ar
    36   101   102    1
    37   110   109    1
    38    81    84    1
    39    72    74   ar
    40   117   118    1
    41   109   111    1
    42    95    92    1
    43    92    91    1
    44   119   118   ar
    45   129   130    2
    46   129   128    1
    47   148   147    1
    48   146   147   ar
    49   146   144   ar
    50   118   120   ar
    51    66    58   am
    52    85    84    1
    53    85    86    1
    54   102   103   ar
    55   102   104   ar
    56   128   127    1
    57   128   131    1
    58   147   145   ar
    59   144   142   ar
    60    59    58    2
    61    58    57    1
    62    90    88    1
    63   151   150    1
    64   151   152    2
    65    89    88    1
    66    88    87    2
    67   149   150    1
    68   149   139   am
    69   150   153    1
    70    87    86    1
    71   145   143   ar
    72   126   125    1
    73   131   132    1
    74   142   143   ar
    75   142   141    1
    76   138   139    1
    77   138   137    1
    78   138   141    1
    79   139   140    2
    80   125   122    1
    81    64    62   ar
    82    64    65   ar
    83   122   123    1
    84   122   121    1
    85    62    61   ar
    86    57    56    1
    87    57    60    1
    88    54    52    1
    89   132   134   ar
    90   132   133   ar
    91    65    63   ar
    92   123   124    2
    93    35    34    2
    94   134   136   ar
    95    36    37    1
    96    36    33    1
    97    61    63   ar
    98    61    60    1
    99    56    50   am
   100    34    33    1
   101   133   135   ar
   102    39    37   ar
   103    37    38   ar
   104   136   135   ar
   105    50    51    2
   106    50    49    1
   107    33    32    1
   108   179   178    1
   109    12    10   ar
   110    52    49    1
   111    52    53    1
   112   154   155    1
   113    49    48    1
   114    32    23   am
   115   178   176   ar
   116   178   177   ar
   117    55    53    1
   118   157   156    2
   119    10     9    1
   120    10    11   ar
   121   176   174   ar
   122    28    30   ar
   123    28    26   ar
   124   177   175   ar
   125    25    26    1
   126    25    22    1
   127     9     6    1
   128    23    24    2
   129    23    22    1
   130   155   158    1
   131   155   156    1
   132   158   159    1
   133    30    31   ar
   134    26    27   ar
   135   174   173   ar
   136   175   173   ar
   137   164   166   ar
   138   164   161   ar
   139    22    21    1
   140     6     7    1
   141     6     5    1
   142   173   172    1
   143     7     8    2
   144   166   167   ar
   145   159   161   ar
   146   159   160   ar
   147    31    29   ar
   148   161   163   ar
   149    27    29   ar
   150   172   169    1
   151     5     3   am
   152    19    18    1
   153   160   162   ar
   154   167   165   ar
   155    18    20    1
   156    18    17    1
   157    47    45    1
   158   163   165   ar
   159   163   162   ar
   160     4     3    2
   161     3     2    1
   162    40    41    1
   163    41    42    1
   164    41    44    1
   165   169   168    1
   166   169   170    1
   167    42    43    2
   168   171   170    2
   169    13    14    1
   170    45    44    1
   171    45    46    1
   172    17    14    1
   173     2     1    1
   174    14    15    1
   175    15    16    2
