@<TRIPOS>MOLECULE
tmp/3ldoA00.pdb
 179 166 0 0 0
SMALL
GASTEIGER

@<TRIPOS>ATOM
      1  N         24.5900    0.4390   -6.2020 N.3     9  ASP9       -0.1239
      2  CA        23.9140    0.9910   -5.0460 C.3     9  ASP9        0.1674
      3  C         24.8670    1.0100   -3.8330 C.2     9  ASP9        0.2266
      4  O         25.3310   -0.0330   -3.3340 O.2     9  ASP9       -0.2867
      5  CB        22.5710    0.2650   -4.7980 C.3     9  ASP9        0.1410
      6  CG        22.0030    0.4860   -3.3890 C.2     9  ASP9        0.3668
      7  OD1       22.2600    1.5140   -2.7390 O.co2   9  ASP9       -0.2456
      8  OD2       21.2890   -0.4170   -2.9090 O.co2   9  ASP9       -0.2456
      9  N         24.8180    1.6710   -0.2680 N.3    11  GLY11      -0.1210
     10  CA        23.8060    1.8100    0.7660 C.3    11  GLY11       0.1956
     11  C         24.4120    2.1970    2.0800 C.2    11  GLY11       0.2613
     12  O         25.6180    2.0650    2.2720 O.2    11  GLY11      -0.2717
     13  N         23.6120    2.7070    2.9980 N.am   12  THR12      -0.1938
     14  CA        24.1390    2.9710    4.3480 C.3    12  THR12       0.2028
     15  C         24.6610    1.6600    4.9510 C.2    12  THR12       0.2643
     16  O         25.7300    1.6170    5.5530 O.2    12  THR12      -0.2714
     17  CB        23.0800    3.5900    5.3000 C.3    12  THR12       0.1808
     18  OG1       22.3670    4.6510    4.6230 O.3    12  THR12      -0.2208
     19  CG2       23.7670    4.1800    6.5840 C.3    12  THR12       0.0379
     20  N         23.8980    0.5990    4.7880 N.am   13  THR13      -0.1936
     21  CA        24.1520   -0.6850    5.4610 C.3    13  THR13       0.2028
     22  C         24.6050   -1.8360    4.5180 C.2    13  THR13       0.2642
     23  O         25.4500   -2.6750    4.9120 O.2    13  THR13      -0.2714
     24  CB        22.9480   -1.1190    6.3370 C.3    13  THR13       0.1808
     25  OG1       21.7680   -1.2130    5.5420 O.3    13  THR13      -0.2208
     26  CG2       22.6770   -0.0880    7.5110 C.3    13  THR13       0.0379
     27  N         24.0650   -1.8710    3.2860 N.am   14  TYR14      -0.1973
     28  CA        24.3580   -2.8990    2.2640 C.3    14  TYR14       0.1639
     29  C         24.4210   -2.3250    0.8650 C.2    14  TYR14       0.2290
     30  O         23.5730   -1.5260    0.4710 O.2    14  TYR14      -0.2864
     31  CB        23.2650   -4.0160    2.2530 C.3    14  TYR14       0.0560
     32  CG        23.3100   -4.9230    3.4580 C.ar   14  TYR14      -0.0198
     33  CD1       22.6300   -4.5760    4.6580 C.ar   14  TYR14      -0.0009
     34  CD2       24.0900   -6.0830    3.4450 C.ar   14  TYR14      -0.0009
     35  CE1       22.7090   -5.3820    5.7880 C.ar   14  TYR14       0.0417
     36  CE2       24.1520   -6.9080    4.5560 C.ar   14  TYR14       0.0417
     37  CZ        23.4680   -6.5580    5.7190 C.ar   14  TYR14       0.1957
     38  OH        23.5660   -7.4000    6.8250 O.3    14  TYR14      -0.2866
     39  N         24.1030   -8.9240   -1.9830 N.3    36  ILE36      -0.1245
     40  CA        24.3900   -7.6460   -1.3120 C.3    36  ILE36       0.1561
     41  C         25.6020   -7.8250   -0.3660 C.2    36  ILE36       0.2260
     42  O         25.9130   -8.9460    0.1160 O.2    36  ILE36      -0.2867
     43  CB        23.1380   -6.9780   -0.6190 C.3    36  ILE36       0.0252
     44  CG1       22.7160   -7.6550    0.6740 C.3    36  ILE36       0.0019
     45  CG2       21.8890   -6.8500   -1.6250 C.3    36  ILE36       0.0019
     46  CD1       21.9500   -8.9700    0.4990 C.3    36  ILE36       0.0001
     47  N         28.0840    6.5340    5.2060 N.3    71  LYS71      -0.1245
     48  CA        27.1550    7.3250    4.4120 C.3    71  LYS71       0.1561
     49  C         26.4780    8.4320    5.2250 C.2    71  LYS71       0.2260
     50  O         26.0710    9.4570    4.6750 O.2    71  LYS71      -0.2867
     51  CB        26.1230    6.4030    3.7990 C.3    71  LYS71       0.0271
     52  CG        25.3610    7.0240    2.6040 C.3    71  LYS71       0.0035
     53  CD        24.4790    5.9920    1.9480 C.3    71  LYS71       0.0206
     54  CE        23.6190    6.6650    0.8360 C.3    71  LYS71       0.1093
     55  NZ        22.6870    5.6860    0.2030 N.3    71  LYS71      -0.1314
     56  N         10.9520    3.3920    0.6390 N.3   199  ASP199     -0.1239
     57  CA        12.3240    2.7530    0.6660 C.3   199  ASP199      0.1674
     58  C         12.7900    2.5110    2.1210 C.2   199  ASP199      0.2266
     59  O         13.2830    3.4160    2.7950 O.2   199  ASP199     -0.2867
     60  CB        13.3120    3.6220   -0.1470 C.3   199  ASP199      0.1410
     61  CG        14.7350    3.0580   -0.2320 C.2   199  ASP199      0.3668
     62  OD1       15.1130    2.1430    0.5110 O.co2 199  ASP199     -0.2456
     63  OD2       15.5240    3.5760   -1.0690 O.co2 199  ASP199     -0.2456
     64  N         15.2460    0.4360    4.4780 N.3   201  GLY201     -0.1210
     65  CA        16.5130   -0.3050    4.3370 C.3   201  GLY201      0.1956
     66  C         16.9300   -0.8390    5.6770 C.2   201  GLY201      0.2612
     67  O         16.0810   -1.2930    6.4500 O.2   201  GLY201     -0.2717
     68  N         18.2350   -0.8020    5.9290 N.am  202  GLY202     -0.1942
     69  CA        18.8610   -1.2980    7.1630 C.3   202  GLY202      0.2014
     70  C         18.9280   -0.1910    8.1880 C.2   202  GLY202      0.2639
     71  O         18.6300   -0.4070    9.3680 O.2   202  GLY202     -0.2714
     72  N         19.3350    0.9930    7.7440 N.am  203  GLY203     -0.1939
     73  CA        19.5060    2.1240    8.6670 C.3   203  GLY203      0.2014
     74  C         18.5140    3.2650    8.4880 C.2   203  GLY203      0.2639
     75  O         18.3290    4.0760    9.4100 O.2   203  GLY203     -0.2714
     76  N         17.8800    3.3520    7.3190 N.am  204  THR204     -0.1950
     77  CA        17.1130    4.5710    6.9680 C.3   204  THR204      0.1897
     78  C         15.7850    4.2450    6.2970 C.2   204  THR204      0.2313
     79  O         15.6360    3.1660    5.6950 O.2   204  THR204     -0.2863
     80  CB        17.9140    5.5670    6.0730 C.3   204  THR204      0.1794
     81  OG1       18.0160    5.0470    4.7340 O.3   204  THR204     -0.2208
     82  CG2       19.3580    5.8360    6.6220 C.3   204  THR204      0.0378
     83  N         15.8520   -1.6260    9.1640 N.3   230  GLY230     -0.1210
     84  CA        15.9270   -3.0660    9.5340 C.3   230  GLY230      0.1956
     85  C         16.7370   -3.3270   10.7760 C.2   230  GLY230      0.2611
     86  O         16.4250   -4.2430   11.5600 O.2   230  GLY230     -0.2717
     87  N         17.8000   -2.5470   10.9690 N.am  231  GLU231     -0.1979
     88  CA        18.6160   -2.6820   12.1940 C.3   231  GLU231      0.1602
     89  C         17.8180   -2.4180   13.4750 C.2   231  GLU231      0.2287
     90  O         18.1030   -3.0190   14.5290 O.2   231  GLU231     -0.2864
     91  CB        19.8400   -1.7440   12.1650 C.3   231  GLU231      0.0415
     92  CG        20.8090   -2.1310   11.0570 C.3   231  GLU231      0.1163
     93  CD        22.0090   -1.2460   10.9910 C.2   231  GLU231      0.3649
     94  OE1       21.8550   -0.0100   11.2590 O.co2 231  GLU231     -0.2457
     95  OE2       23.0860   -1.8130   10.6540 O.co2 231  GLU231     -0.2457
     96  N         15.8680   -5.5330   14.2650 N.3   234  ASP234     -0.1239
     97  CA        16.7920   -6.4870   14.9010 C.3   234  ASP234      0.1674
     98  C         16.9670   -6.1820   16.3890 C.2   234  ASP234      0.2266
     99  O         16.9320   -7.0840   17.2180 O.2   234  ASP234     -0.2867
    100  CB        18.1690   -6.4490   14.2780 C.3   234  ASP234      0.1410
    101  CG        18.1720   -6.8140   12.8140 C.2   234  ASP234      0.3668
    102  OD1       17.1480   -7.2920   12.2900 O.co2 234  ASP234     -0.2456
    103  OD2       19.2200   -6.5920   12.1730 O.co2 234  ASP234     -0.2456
    104  N         19.3620  -11.4300   12.9750 N.3   268  GLU268     -0.1245
    105  CA        19.3340  -10.9120   11.6120 C.3   268  GLU268      0.1567
    106  C         18.8940  -11.9900   10.6060 C.2   268  GLU268      0.2260
    107  O         17.9240  -11.8170    9.8520 O.2   268  GLU268     -0.2867
    108  CB        20.6940  -10.2770   11.2740 C.3   268  GLU268      0.0388
    109  CG        21.0320  -10.2290    9.8150 C.3   268  GLU268      0.1160
    110  CD        20.0880   -9.3930    9.0380 C.2   268  GLU268      0.3649
    111  OE1       19.5060   -8.4580    9.6400 O.co2 268  GLU268     -0.2457
    112  OE2       19.9490   -9.6630    7.8150 O.co2 268  GLU268     -0.2457
    113  N         15.1910  -13.1170   11.2380 N.3   271  LYS271     -0.1231
    114  CA        14.2700  -12.0990   10.7100 C.3   271  LYS271      0.1693
    115  C         14.0920  -12.3060    9.2110 C.2   271  LYS271      0.2591
    116  O         12.9800  -12.2840    8.7130 O.2   271  LYS271     -0.2718
    117  CB        14.8270  -10.6900   10.9650 C.3   271  LYS271      0.0285
    118  CG        14.0910   -9.5860   10.2150 C.3   271  LYS271      0.0035
    119  CD        14.7510   -8.2480   10.4430 C.3   271  LYS271      0.0206
    120  CE        16.1190   -8.1550    9.7100 C.3   271  LYS271      0.1093
    121  NZ        16.5130   -6.7400    9.8170 N.3   271  LYS271     -0.1314
    122  N         15.1900  -12.5390    8.4970 N.am  272  ARG272     -0.1980
    123  CA        15.0930  -12.7530    7.0520 C.3   272  ARG272      0.1597
    124  C         14.2660  -14.0080    6.7540 C.2   272  ARG272      0.2287
    125  O         13.4230  -13.9940    5.8630 O.2   272  ARG272     -0.2864
    126  CB        16.4770  -12.7890    6.3810 C.3   272  ARG272      0.0334
    127  CG        17.1980  -11.4370    6.3540 C.3   272  ARG272      0.0492
    128  CD        18.5640  -11.5050    5.6850 C.3   272  ARG272      0.2205
    129  NE        19.2560  -12.7580    5.9720 N.pl3 272  ARG272     -0.0865
    130  CZ        20.5280  -13.0360    5.6920 C.cat 272  ARG272      0.5346
    131  NH1       21.3270  -12.1320    5.1280 N.pl3 272  ARG272      0.1354
    132  NH2       21.0170  -14.2280    5.9990 N.pl3 272  ARG272      0.1354
    133  N         10.4460  -13.6940    6.7240 N.3   275  SER275     -0.1217
    134  CA         9.7560  -13.1400    5.5640 C.3   275  SER275      0.1889
    135  C          9.2180  -14.2750    4.6830 C.2   275  SER275      0.2288
    136  O          8.3360  -14.0530    3.8540 O.2   275  SER275     -0.2866
    137  CB        10.6560  -12.1890    4.7840 C.3   275  SER275      0.2089
    138  OG        10.8910  -11.0090    5.5470 O.3   275  SER275     -0.2183
    139  N         14.2740   -1.4230   -0.7830 N.3   338  GLY338     -0.1210
    140  CA        14.9660   -1.7300    0.4670 C.3   338  GLY338      0.1956
    141  C         14.6310   -3.0830    1.0320 C.2   338  GLY338      0.2612
    142  O         13.4730   -3.5170    0.9900 O.2   338  GLY338     -0.2717
    143  N         15.6550   -3.7460    1.5820 N.am  339  GLY339     -0.1942
    144  CA        15.5150   -5.0960    2.1080 C.3   339  GLY339      0.2014
    145  C         14.3870   -5.2810    3.1260 C.2   339  GLY339      0.2639
    146  O         13.7960   -6.3680    3.1940 O.2   339  GLY339     -0.2714
    147  N         14.0420   -4.2240    3.8610 N.am  340  SER340     -0.1949
    148  CA        13.0060   -4.3520    4.8980 C.3   340  SER340      0.1924
    149  C         11.6200   -4.4010    4.2670 C.2   340  SER340      0.2314
    150  O         10.6780   -4.8650    4.8920 O.2   340  SER340     -0.2863
    151  CB        13.1030   -3.2650    6.0130 C.3   340  SER340      0.2116
    152  OG        14.3080   -3.3940    6.7880 O.3   340  SER340     -0.2180
    153  N         10.8030   -6.5280    2.1760 N.3   342  ARG342     -0.1231
    154  CA        10.4870   -7.9640    2.0600 C.3   342  ARG342      0.1694
    155  C          9.6010   -8.5170    3.1960 C.2   342  ARG342      0.2591
    156  O          9.0400   -9.6030    3.0250 O.2   342  ARG342     -0.2718
    157  CB        11.7550   -8.8340    1.9510 C.3   342  ARG342      0.0321
    158  CG        12.6270   -8.6160    0.6830 C.3   342  ARG342      0.0489
    159  CD        13.9730   -9.2490    0.9190 C.3   342  ARG342      0.2205
    160  NE        14.8950   -9.2990   -0.2130 N.pl3 342  ARG342     -0.0865
    161  CZ        15.0910  -10.3730   -0.9670 C.cat 342  ARG342      0.5346
    162  NH1       14.3810  -11.4780   -0.7340 N.pl3 342  ARG342      0.1354
    163  NH2       15.9680  -10.3400   -1.9670 N.pl3 342  ARG342      0.1354
    164  N          9.4760   -7.7790    4.3210 N.am  343  ILE343     -0.1980
    165  CA         8.7020   -8.1620    5.4950 C.3   343  ILE343      0.1595
    166  C          7.2140   -8.1170    5.1240 C.2   343  ILE343      0.2287
    167  O          6.7490   -7.0750    4.6550 O.2   343  ILE343     -0.2864
    168  CB         8.9510   -7.2120    6.6870 C.3   343  ILE343      0.0276
    169  CG1       10.4370   -7.2100    7.1050 C.3   343  ILE343      0.0022
    170  CG2        8.0440   -7.5970    7.9120 C.3   343  ILE343      0.0022
    171  CD1       10.8150   -6.0490    8.1650 C.3   343  ILE343      0.0001
    172  N         15.7880   -4.9840   -2.3710 N.3   366  ASP366     -0.1239
    173  CA        17.1540   -4.6140   -1.9830 C.3   366  ASP366      0.1674
    174  C         18.1180   -4.5760   -3.1590 C.2   366  ASP366      0.2266
    175  O         19.2650   -4.1760   -3.0030 O.2   366  ASP366     -0.2867
    176  CB        17.6990   -5.4600   -0.7930 C.3   366  ASP366      0.1410
    177  CG        17.6430   -6.9690   -1.0340 C.2   366  ASP366      0.3668
    178  OD1       16.7670   -7.4520   -1.7960 O.co2 366  ASP366     -0.2456
    179  OD2       18.4760   -7.6920   -0.4180 O.co2 366  ASP366     -0.2456
@<TRIPOS>BOND
     1     1     2    1
     2     2     5    1
     3     2     3    1
     4     5     6    1
     5     3     4    2
     6     6     8   ar
     7     6     7   ar
     8   174   175    2
     9   174   173    1
    10   172   173    1
    11    39    40    1
    12   173   176    1
    13   163   161    1
    14   178   177   ar
    15    45    43    1
    16    40    43    1
    17    40    41    1
    18    63    61   ar
    19   177   176    1
    20   177   179   ar
    21   161   162    1
    22   161   160    2
    23   139   140    1
    24    43    44    1
    25    41    42    2
    26     9    10    1
    27    61    60    1
    28    61    62   ar
    29   160   159    1
    30    60    57    1
    31    55    54    1
    32   140   141    1
    33    30    29    2
    34    46    44    1
    35    56    57    1
    36    57    58    1
    37   158   159    1
    38   158   157    1
    39    10    11    1
    40    54    53    1
    41    29    28    1
    42   142   141    2
    43   141   143   am
    44   143   144    1
    45    53    52    1
    46   157   154    1
    47   154   153    1
    48   154   155    1
    49    11    12    2
    50    11    13   am
    51   144   145    1
    52    58    59    2
    53    31    28    1
    54    31    32    1
    55    28    27    1
    56    52    51    1
    57    13    14    1
    58   156   155    2
    59   145   146    2
    60   145   147   am
    61   155   164   am
    62    27    22   am
    63    34    32   ar
    64    34    36   ar
    65    32    33   ar
    66    51    48    1
    67   136   135    2
    68   147   148    1
    69   149   150    2
    70   149   148    1
    71   164   165    1
    72    65    64    1
    73    65    66    1
    74    14    15    1
    75    14    17    1
    76    48    47    1
    77    48    49    1
    78    22    23    2
    79    22    21    1
    80    36    37   ar
    81    18    17    1
    82   167   166    2
    83    33    35   ar
    84    50    49    2
    85   135   134    1
    86    81    80    1
    87   137   138    1
    88   137   134    1
    89    20    15   am
    90    20    21    1
    91   148   151    1
    92    15    16    2
    93   166   165    1
    94   131   130    1
    95    17    19    1
    96    21    24    1
    97   165   168    1
    98    25    24    1
    99   134   133    1
   100    66    68   am
   101    66    67    2
   102   128   129    1
   103   128   127    1
   104   130   129    2
   105   130   132    1
   106    79    78    2
   107    37    35   ar
   108    37    38    1
   109   125   124    2
   110    68    69    1
   111   151   152    1
   112    80    82    1
   113    80    77    1
   114    78    77    1
   115    24    26    1
   116   127   126    1
   117   126   123    1
   118   168   169    1
   119   168   170    1
   120   124   123    1
   121    77    76    1
   122   123   122    1
   123   169   171    1
   124    69    70    1
   125    76    74   am
   126    72    70   am
   127    72    73    1
   128   112   110   ar
   129    70    71    2
   130    74    73    1
   131    74    75    2
   132   122   115   am
   133   116   115    2
   134   110   111   ar
   135   110   109    1
   136    83    84    1
   137   115   114    1
   138    84    85    1
   139   120   121    1
   140   120   119    1
   141   109   108    1
   142   107   106    2
   143   118   119    1
   144   118   117    1
   145   106   105    1
   146    95    93   ar
   147   114   117    1
   148   114   113    1
   149    85    87   am
   150    85    86    2
   151    87    88    1
   152    93    92    1
   153    93    94   ar
   154    92    91    1
   155   108   105    1
   156   105   104    1
   157    91    88    1
   158   103   101   ar
   159    88    89    1
   160   102   101   ar
   161   101   100    1
   162    89    90    2
   163    96    97    1
   164   100    97    1
   165    97    98    1
   166    98    99    2
