@<TRIPOS>MOLECULE
tmp/3ldpB00.pdb
 151 140 0 0 0
SMALL
GASTEIGER

@<TRIPOS>ATOM
      1  N          1.2940   -9.7920  -43.9830 N.3    13  THR13      -0.1203
      2  CA         1.0200   -8.5130  -44.6600 C.3    13  THR13       0.1994
      3  C          2.1800   -7.4950  -44.4910 C.2    13  THR13       0.2617
      4  O          2.5270   -6.7840  -45.4510 O.2    13  THR13      -0.2717
      5  CB        -0.3440   -7.9390  -44.2290 C.3    13  THR13       0.1784
      6  OG1       -0.3430   -7.6880  -42.8200 O.3    13  THR13      -0.2211
      7  CG2       -1.4340   -8.9510  -44.5120 C.3    13  THR13       0.0376
      8  N          2.8120   -7.4830  -43.3090 N.am   14  TYR14      -0.1975
      9  CA         3.9690   -6.5890  -43.0560 C.3    14  TYR14       0.1639
     10  C          5.1680   -7.2670  -42.4120 C.2    14  TYR14       0.2290
     11  O          5.0140   -8.2000  -41.6070 O.2    14  TYR14      -0.2864
     12  CB         3.5520   -5.4530  -42.1630 C.3    14  TYR14       0.0560
     13  CG         2.6890   -4.4090  -42.8380 C.ar   14  TYR14      -0.0198
     14  CD1        1.2940   -4.5320  -42.8520 C.ar   14  TYR14      -0.0009
     15  CD2        3.2650   -3.2790  -43.4180 C.ar   14  TYR14      -0.0009
     16  CE1        0.5020   -3.5650  -43.4420 C.ar   14  TYR14       0.0417
     17  CE2        2.4800   -2.2910  -44.0100 C.ar   14  TYR14       0.0417
     18  CZ         1.0960   -2.4400  -44.0070 C.ar   14  TYR14       0.1957
     19  OH         0.3230   -1.4810  -44.5970 O.3    14  TYR14      -0.2866
     20  N          8.9450    4.3430  -42.8720 N.3    34  ASN34      -0.1240
     21  CA         8.0310    3.4260  -42.2210 C.3    34  ASN34       0.1653
     22  C          8.7630    2.3570  -41.3640 C.2    34  ASN34       0.2266
     23  O          9.7200    1.7200  -41.8190 O.2    34  ASN34      -0.2867
     24  CB         7.1090    2.7680  -43.2430 C.3    34  ASN34       0.1155
     25  CG         6.2120    3.7790  -43.9870 C.2    34  ASN34       0.2627
     26  OD1        5.5580    4.6330  -43.3640 O.2    34  ASN34      -0.2716
     27  ND2        6.1790    3.6790  -45.3260 N.am   34  ASN34      -0.0877
     28  N          7.4050   -0.3370  -40.3770 N.3    36  ILE36      -0.1245
     29  CA         7.0040   -1.6250  -41.0020 C.3    36  ILE36       0.1561
     30  C          6.9190   -1.5210  -42.5480 C.2    36  ILE36       0.2260
     31  O          6.5550   -0.4470  -43.1370 O.2    36  ILE36      -0.2867
     32  CB         5.7750   -2.3500  -40.3050 C.3    36  ILE36       0.0252
     33  CG1        4.3910   -1.8770  -40.7860 C.3    36  ILE36       0.0019
     34  CG2        5.8730   -2.2790  -38.7850 C.3    36  ILE36       0.0019
     35  CD1        3.9520   -0.4490  -40.4510 C.3    36  ILE36       0.0001
     36  N         -3.4190   -9.3410  -36.9290 N.3   201  GLY201     -0.1210
     37  CA        -2.6200   -8.5300  -37.8420 C.3   201  GLY201      0.1956
     38  C         -3.3880   -8.2420  -39.1140 C.2   201  GLY201      0.2612
     39  O         -4.6140   -8.2100  -39.0890 O.2   201  GLY201     -0.2717
     40  N         -2.6730   -8.0630  -40.2250 N.am  202  GLY202     -0.1956
     41  CA        -3.3160   -7.5970  -41.4670 C.3   202  GLY202      0.1869
     42  C         -4.2800   -8.5980  -42.0560 C.2   202  GLY202      0.2309
     43  O         -5.3360   -8.2260  -42.6000 O.2   202  GLY202     -0.2863
     44  N         -7.0670   -7.1250  -40.1170 N.3   230  GLY230     -0.1210
     45  CA        -7.3200   -5.7310  -40.4880 C.3   230  GLY230      0.1956
     46  C         -7.8810   -5.4650  -41.8800 C.2   230  GLY230      0.2611
     47  O         -8.6650   -4.5500  -42.0430 O.2   230  GLY230     -0.2717
     48  N         -7.4730   -6.2640  -42.8670 N.am  231  GLU231     -0.1979
     49  CA        -7.8800   -6.0920  -44.2750 C.3   231  GLU231      0.1602
     50  C         -9.3290   -6.4390  -44.5150 C.2   231  GLU231      0.2287
     51  O         -9.9570   -5.8900  -45.3940 O.2   231  GLU231     -0.2864
     52  CB        -7.0080   -6.9210  -45.2170 C.3   231  GLU231      0.0415
     53  CG        -5.5690   -6.4040  -45.3070 C.3   231  GLU231      0.1163
     54  CD        -4.6270   -7.3210  -46.0940 C.2   231  GLU231      0.3649
     55  OE1       -4.9420   -8.5470  -46.2340 O.co2 231  GLU231     -0.2457
     56  OE2       -3.5630   -6.7990  -46.5330 O.co2 231  GLU231     -0.2457
     57  N        -11.2120   -3.4770  -43.3360 N.3   234  ASP234     -0.1239
     58  CA       -11.0810   -2.5830  -44.4680 C.3   234  ASP234      0.1674
     59  C        -12.1200   -2.8470  -45.5640 C.2   234  ASP234      0.2266
     60  O        -12.8860   -1.9440  -45.9640 O.2   234  ASP234     -0.2867
     61  CB        -9.6810   -2.7550  -45.0490 C.3   234  ASP234      0.1410
     62  CG        -8.6580   -1.9720  -44.2890 C.2   234  ASP234      0.3668
     63  OD1       -9.1160   -1.1870  -43.4350 O.co2 234  ASP234     -0.2456
     64  OD2       -7.4300   -2.1170  -44.5380 O.co2 234  ASP234     -0.2456
     65  N         -7.9970    2.2240  -45.3570 N.3   268  GLU268     -0.1231
     66  CA        -7.0310    1.8100  -44.3320 C.3   268  GLU268      0.1699
     67  C         -6.6010    3.0300  -43.5190 C.2   268  GLU268      0.2592
     68  O         -6.5050    2.9570  -42.2950 O.2   268  GLU268     -0.2718
     69  CB        -5.8000    1.1580  -44.9550 C.3   268  GLU268      0.0402
     70  CG        -4.4780    1.6070  -44.2870 C.3   268  GLU268      0.1161
     71  CD        -3.8100    0.4990  -43.5100 C.2   268  GLU268      0.3649
     72  OE1       -3.3740   -0.4780  -44.1570 O.co2 268  GLU268     -0.2457
     73  OE2       -3.7010    0.5980  -42.2630 O.co2 268  GLU268     -0.2457
     74  N         -6.3600    4.1430  -44.2150 N.am  269  LYS269     -0.1980
     75  CA        -5.9590    5.4050  -43.5660 C.3   269  LYS269      0.1596
     76  C         -7.0610    5.8010  -42.5710 C.2   269  LYS269      0.2287
     77  O         -6.8000    5.9940  -41.3870 O.2   269  LYS269     -0.2864
     78  CB        -5.7250    6.5170  -44.6110 C.3   269  LYS269      0.0298
     79  CG        -4.3610    7.2390  -44.5080 C.3   269  LYS269      0.0038
     80  CD        -3.3980    6.9320  -45.7010 C.3   269  LYS269      0.0206
     81  CE        -3.6180    7.8860  -46.8960 C.3   269  LYS269      0.1093
     82  NZ        -2.4840    7.8780  -47.8880 N.3   269  LYS269     -0.1314
     83  N         -9.5540    3.9540  -41.2140 N.3   271  LYS271     -0.1231
     84  CA        -9.6180    2.9350  -40.1460 C.3   271  LYS271      0.1693
     85  C         -8.7010    3.2120  -38.9670 C.2   271  LYS271      0.2591
     86  O         -9.1340    3.1960  -37.8140 O.2   271  LYS271     -0.2718
     87  CB        -9.2990    1.5460  -40.6850 C.3   271  LYS271      0.0285
     88  CG        -9.6470    0.4180  -39.6950 C.3   271  LYS271      0.0035
     89  CD        -9.1180   -0.9440  -40.1370 C.3   271  LYS271      0.0206
     90  CE        -7.6100   -0.9000  -40.3420 C.3   271  LYS271      0.1093
     91  NZ        -7.2220   -2.0050  -41.2140 N.3   271  LYS271     -0.1314
     92  N         -7.4390    3.4710  -39.2750 N.am  272  ARG272     -0.1980
     93  CA        -6.4450    3.7300  -38.2680 C.3   272  ARG272      0.1597
     94  C         -6.7830    4.9310  -37.3930 C.2   272  ARG272      0.2287
     95  O         -6.6090    4.8670  -36.1790 O.2   272  ARG272     -0.2864
     96  CB        -5.0890    3.9030  -38.9190 C.3   272  ARG272      0.0334
     97  CG        -4.7900    2.7870  -39.8770 C.3   272  ARG272      0.0492
     98  CD        -3.3920    2.2800  -39.7400 C.3   272  ARG272      0.2205
     99  NE        -2.4250    3.0820  -40.4730 N.pl3 272  ARG272     -0.0865
    100  CZ        -2.1290    4.3550  -40.2110 C.cat 272  ARG272      0.5346
    101  NH1       -2.7620    5.0140  -39.2420 N.pl3 272  ARG272      0.1354
    102  NH2       -1.2110    4.9840  -40.9410 N.pl3 272  ARG272      0.1354
    103  N         -9.5790    4.6990  -34.2350 N.3   275  SER275     -0.1202
    104  CA        -9.2340    3.9700  -33.0190 C.3   275  SER275      0.2020
    105  C         -8.6820    4.9860  -32.0270 C.2   275  SER275      0.2619
    106  O         -8.6170    4.7220  -30.8160 O.2   275  SER275     -0.2717
    107  CB        -8.2060    2.8650  -33.3170 C.3   275  SER275      0.2103
    108  OG        -7.1910    3.2880  -34.2280 O.3   275  SER275     -0.2182
    109  N         -8.2990    6.1430  -32.5710 N.am  276  SER276     -0.1951
    110  CA        -7.7750    7.2630  -31.8180 C.3   276  SER276      0.1924
    111  C         -8.8500    8.3300  -31.6480 C.2   276  SER276      0.2314
    112  O         -8.8720    9.0340  -30.6310 O.2   276  SER276     -0.2863
    113  CB        -6.5610    7.8710  -32.5340 C.3   276  SER276      0.2116
    114  OG        -5.7340    6.8640  -33.1050 O.3   276  SER276     -0.2180
    115  N         -1.0500   -4.6480  -35.5450 N.3   339  GLY339     -0.1210
    116  CA        -1.7020   -3.3280  -35.6120 C.3   339  GLY339      0.1956
    117  C         -3.1920   -3.3100  -35.3040 C.2   339  GLY339      0.2612
    118  O         -3.6980   -2.3260  -34.7660 O.2   339  GLY339     -0.2717
    119  N         -3.9100   -4.3970  -35.5830 N.am  340  SER340     -0.1952
    120  CA        -5.3630   -4.3440  -35.4070 C.3   340  SER340      0.1924
    121  C         -5.7980   -4.2940  -33.9550 C.2   340  SER340      0.2314
    122  O         -6.9540   -3.8990  -33.6570 O.2   340  SER340     -0.2863
    123  CB        -6.0730   -5.4950  -36.1000 C.3   340  SER340      0.2116
    124  OG        -5.7510   -5.4830  -37.4570 O.3   340  SER340     -0.2180
    125  N         -4.8390   -2.1920  -31.8000 N.3   342  ARG342     -0.1231
    126  CA        -5.2020   -0.7620  -31.5500 C.3   342  ARG342      0.1694
    127  C         -6.7030   -0.3750  -31.5190 C.2   342  ARG342      0.2591
    128  O         -7.0450    0.7330  -31.1120 O.2   342  ARG342     -0.2718
    129  CB        -4.5280    0.1370  -32.5590 C.3   342  ARG342      0.0321
    130  CG        -3.1850    0.6090  -32.1170 C.3   342  ARG342      0.0489
    131  CD        -2.1340   -0.1480  -32.8230 C.3   342  ARG342      0.2205
    132  NE        -1.0460    0.7250  -33.1930 N.pl3 342  ARG342     -0.0865
    133  CZ        -0.1920    0.4720  -34.1800 C.cat 342  ARG342      0.5346
    134  NH1       -0.3070   -0.6530  -34.9120 N.pl3 342  ARG342      0.1354
    135  NH2        0.7810    1.3550  -34.4400 N.pl3 342  ARG342      0.1354
    136  N         -7.5710   -1.2730  -31.9690 N.am  343  ILE343     -0.1980
    137  CA        -8.9770   -0.9810  -32.1740 C.3   343  ILE343      0.1595
    138  C         -9.7070   -1.1190  -30.8350 C.2   343  ILE343      0.2287
    139  O         -9.8340   -2.2470  -30.2950 O.2   343  ILE343     -0.2864
    140  CB        -9.6040   -1.8910  -33.3060 C.3   343  ILE343      0.0276
    141  CG1       -9.0250   -1.5230  -34.6780 C.3   343  ILE343      0.0022
    142  CG2      -11.1400   -1.8130  -33.3530 C.3   343  ILE343      0.0022
    143  CD1       -9.2400   -2.5950  -35.7570 C.3   343  ILE343      0.0001
    144  N          2.5610   -3.5220  -33.4460 N.3   366  ASP366     -0.1239
    145  CA         3.2600   -3.6700  -34.7320 C.3   366  ASP366      0.1674
    146  C          4.6120   -4.3460  -34.6110 C.2   366  ASP366      0.2266
    147  O          5.0220   -5.1010  -35.4580 O.2   366  ASP366     -0.2867
    148  CB         3.6370   -2.2770  -35.2390 C.3   366  ASP366      0.1410
    149  CG         2.5000   -1.5330  -35.8380 C.2   366  ASP366      0.3668
    150  OD1        1.5720   -2.1840  -36.4090 O.co2 366  ASP366     -0.2456
    151  OD2        2.5700   -0.2810  -35.7580 O.co2 366  ASP366     -0.2456
@<TRIPOS>BOND
     1    82    81    1
     2    81    80    1
     3    56    54   ar
     4    55    54   ar
     5    54    53    1
     6    60    59    2
     7    80    79    1
     8    59    58    1
     9     4     3    2
    10    51    50    2
    11    65    66    1
    12    27    25   am
    13    53    52    1
    14    52    49    1
    15    61    58    1
    16    61    62    1
    17    69    66    1
    18    69    70    1
    19     2     3    1
    20     2     5    1
    21     2     1    1
    22    78    79    1
    23    78    75    1
    24    19    18    1
    25    64    62   ar
    26    50    49    1
    27     7     5    1
    28     3     8   am
    29    58    57    1
    30    66    67    1
    31    62    63   ar
    32    70    71    1
    33    49    48    1
    34     5     6    1
    35    74    75    1
    36    74    67   am
    37    72    71   ar
    38    17    18   ar
    39    17    15   ar
    40    18    16   ar
    41    25    26    2
    42    25    24    1
    43    75    76    1
    44    67    68    2
    45    71    73   ar
    46    16    14   ar
    47    15    13   ar
    48     8     9    1
    49    24    21    1
    50    31    30    2
    51     9    10    1
    52     9    12    1
    53    20    21    1
    54    48    46   am
    55    14    13   ar
    56    13    12    1
    57    43    42    2
    58    76    77    2
    59    30    29    1
    60    10    11    2
    61    21    22    1
    62    42    41    1
    63    47    46    2
    64    46    45    1
    65    23    22    2
    66    41    40    1
    67    91    90    1
    68    83    84    1
    69    29    28    1
    70    29    32    1
    71   102   100    1
    72    33    35    1
    73    33    32    1
    74    87    84    1
    75    87    88    1
    76    45    44    1
    77    99   100    2
    78    99    98    1
    79    90    89    1
    80    32    34    1
    81    40    38   am
    82   100   101    1
    83    84    85    1
    84    89    88    1
    85    97    98    1
    86    97    96    1
    87    92    85   am
    88    92    93    1
    89    38    39    2
    90    38    37    1
    91    85    86    2
    92    96    93    1
    93    93    94    1
    94    37    36    1
    95   124   123    1
    96    94    95    2
    97   150   149   ar
    98   123   120    1
    99   149   151   ar
   100   149   148    1
   101   143   141    1
   102   116   115    1
   103   116   117    1
   104   119   120    1
   105   119   117   am
   106   147   146    2
   107   120   121    1
   108   117   118    2
   109   148   145    1
   110   134   133    1
   111   145   146    1
   112   145   144    1
   113   141   140    1
   114   135   133    1
   115   103   104    1
   116   108   107    1
   117   133   132    2
   118   121   122    2
   119   142   140    1
   120   107   104    1
   121   140   137    1
   122   132   131    1
   123   114   113    1
   124   104   105    1
   125   131   130    1
   126   109   105   am
   127   109   110    1
   128   129   130    1
   129   129   126    1
   130   113   110    1
   131   137   136    1
   132   137   138    1
   133   105   106    2
   134   136   127   am
   135   110   111    1
   136   125   126    1
   137   111   112    2
   138   126   127    1
   139   127   128    2
   140   138   139    2
