@<TRIPOS>MOLECULE
tmp/3ldqA00.pdb
 113 104 0 0 0
SMALL
GASTEIGER

@<TRIPOS>ATOM
      1  N         15.1990    4.9180    9.7890 N.3    11  TYR11      -0.1241
      2  CA        16.6240    5.3040    9.7090 C.3    11  TYR11       0.1605
      3  C         16.7370    6.7520    9.2950 C.2    11  TYR11       0.2264
      4  O         15.8910    7.2090    8.5150 O.2    11  TYR11      -0.2867
      5  CB        17.3500    4.5000    8.6200 C.3    11  TYR11       0.0534
      6  CG        17.7210    3.1340    9.0680 C.ar   11  TYR11      -0.0201
      7  CD1       18.8820    2.9310    9.8130 C.ar   11  TYR11      -0.0009
      8  CD2       16.9220    2.0260    8.7540 C.ar   11  TYR11      -0.0009
      9  CE1       19.2440    1.6740   10.2430 C.ar   11  TYR11       0.0417
     10  CE2       17.2910    0.7470    9.1960 C.ar   11  TYR11       0.0417
     11  CZ        18.4500    0.6080    9.9550 C.ar   11  TYR11       0.1957
     12  OH        18.8510   -0.6100   10.4120 O.3    11  TYR11      -0.2866
     13  N         10.5700    1.4020    0.5620 N.3   197  GLY197     -0.1210
     14  CA        11.5280    1.0650    1.6490 C.3   197  GLY197      0.1956
     15  C         11.3560   -0.3490    2.2190 C.2   197  GLY197      0.2612
     16  O         10.9720   -1.2800    1.5020 O.2   197  GLY197     -0.2717
     17  N         11.6340   -0.5050    3.5220 N.am  198  GLY198     -0.1956
     18  CA        11.4590   -1.8090    4.2210 C.3   198  GLY198      0.1869
     19  C         10.0370   -2.0300    4.6870 C.2   198  GLY198      0.2309
     20  O          9.5670   -3.1890    4.8320 O.2   198  GLY198     -0.2863
     21  N         10.0870   -4.0360    1.6760 N.3   226  GLY226     -0.1210
     22  CA        10.9910   -5.1840    1.7280 C.3   226  GLY226      0.1956
     23  C         10.6560   -6.2500    2.7660 C.2   226  GLY226      0.2611
     24  O         10.8440   -7.4370    2.4910 O.2   226  GLY226     -0.2717
     25  N         10.1630   -5.8770    3.9600 N.am  227  GLU227     -0.1979
     26  CA         9.7450   -6.9250    4.9550 C.3   227  GLU227      0.1602
     27  C          8.7440   -7.9130    4.3750 C.2   227  GLU227      0.2287
     28  O          8.7990   -9.1230    4.6700 O.2   227  GLU227     -0.2864
     29  CB         9.1510   -6.3680    6.2710 C.3   227  GLU227      0.0415
     30  CG         9.9190   -5.2640    6.9840 C.3   227  GLU227      0.1163
     31  CD        11.3930   -5.5150    7.1180 C.2   227  GLU227      0.3649
     32  OE1       11.7730   -6.4390    7.8740 O.co2 227  GLU227     -0.2457
     33  OE2       12.1810   -4.7550    6.4890 O.co2 227  GLU227     -0.2457
     34  N         10.5320  -10.4740    2.2180 N.3   230  ASP230     -0.1239
     35  CA        11.2340  -11.4150    3.1110 C.3   230  ASP230      0.1674
     36  C         10.2680  -12.4490    3.6180 C.2   230  ASP230      0.2266
     37  O         10.5760  -13.6410    3.6520 O.2   230  ASP230     -0.2867
     38  CB        11.8430  -10.7110    4.3440 C.3   230  ASP230      0.1410
     39  CG        12.8600   -9.6310    3.9770 C.2   230  ASP230      0.3668
     40  OD1       13.2930   -9.5730    2.7990 O.co2 230  ASP230     -0.2456
     41  OD2       13.1960   -8.8160    4.8650 O.co2 230  ASP230     -0.2456
     42  N         16.4570  -12.2200    4.3050 N.3   264  GLU264     -0.1245
     43  CA        16.6550  -10.8160    3.9920 C.3   264  GLU264      0.1567
     44  C         18.0260  -10.6280    3.3180 C.2   264  GLU264      0.2260
     45  O         18.1600   -9.8690    2.3870 O.2   264  GLU264     -0.2867
     46  CB        16.5640   -9.9090    5.2470 C.3   264  GLU264      0.0388
     47  CG        16.5260   -8.3590    4.9130 C.3   264  GLU264      0.1160
     48  CD        17.9240   -7.7300    4.6770 C.2   264  GLU264      0.3649
     49  OE1       17.9770   -6.5780    4.1670 O.co2 264  GLU264     -0.2457
     50  OE2       18.9640   -8.3690    5.0230 O.co2 264  GLU264     -0.2457
     51  N         17.8620  -12.1730   -0.2450 N.3   267  LYS267     -0.1231
     52  CA        17.1970  -11.1770   -1.0570 C.3   267  LYS267      0.1693
     53  C         18.1250  -10.1150   -1.6280 C.2   267  LYS267      0.2591
     54  O         18.0820   -9.8160   -2.8490 O.2   267  LYS267     -0.2718
     55  CB        16.0390  -10.5190   -0.2960 C.3   267  LYS267      0.0285
     56  CG        15.4280   -9.3310   -1.0640 C.3   267  LYS267      0.0035
     57  CD        14.3220   -8.5990   -0.2250 C.3   267  LYS267      0.0206
     58  CE        14.9550   -7.9640    0.9930 C.3   267  LYS267      0.1093
     59  NZ        13.9780   -7.1100    1.7150 N.3   267  LYS267     -0.1314
     60  N         18.9500   -9.5210   -0.7550 N.am  268  ARG268     -0.1980
     61  CA        19.8980   -8.4910   -1.1980 C.3   268  ARG268      0.1597
     62  C         20.9000   -9.0680   -2.2210 C.2   268  ARG268      0.2287
     63  O         21.1810   -8.4350   -3.2300 O.2   268  ARG268     -0.2864
     64  CB        20.6140   -7.8210    0.0060 C.3   268  ARG268      0.0334
     65  CG        19.6620   -6.9660    0.9310 C.3   268  ARG268      0.0492
     66  CD        20.2140   -6.7650    2.4530 C.3   268  ARG268      0.2205
     67  NE        21.6340   -6.8820    2.4760 N.pl3 268  ARG268     -0.0865
     68  CZ        22.3910   -7.4780    3.3680 C.cat 268  ARG268      0.5346
     69  NH1       21.9310   -8.0650    4.4820 N.pl3 268  ARG268      0.1354
     70  NH2       23.6700   -7.4540    3.0960 N.pl3 268  ARG268      0.1354
     71  N         19.6740   -9.2190   -5.8390 N.3   271  SER271     -0.1217
     72  CA        19.5760   -8.0040   -6.6280 C.3   271  SER271      0.1889
     73  C         20.7900   -7.8440   -7.5420 C.2   271  SER271      0.2288
     74  O         20.7310   -7.0540   -8.4870 O.2   271  SER271     -0.2866
     75  CB        19.3940   -6.7730   -5.7530 C.3   271  SER271      0.2089
     76  OG        18.1260   -6.8230   -5.1320 O.3   271  SER271     -0.2183
     77  N         15.4590    1.5360   -0.2960 N.3   335  GLY335     -0.1210
     78  CA        16.3560    0.4180   -0.4860 C.3   335  GLY335      0.1956
     79  C         15.7730   -0.7130   -1.3250 C.2   335  GLY335      0.2612
     80  O         16.5290   -1.4310   -1.9650 O.2   335  GLY335     -0.2717
     81  N         14.4450   -0.8880   -1.3340 N.am  336  SER336     -0.1952
     82  CA        13.8680   -2.0080   -2.1040 C.3   336  SER336      0.1924
     83  C         13.7870   -1.7250   -3.6210 C.2   336  SER336      0.2314
     84  O         13.5300   -2.6440   -4.3970 O.2   336  SER336     -0.2863
     85  CB        12.4610   -2.3760   -1.6090 C.3   336  SER336      0.2116
     86  OG        12.5030   -2.7380   -0.2310 O.3   336  SER336     -0.2180
     87  N         16.2080   -1.3920   -5.4590 N.3   338  ARG338     -0.1231
     88  CA        17.3390   -2.1510   -6.0420 C.3   338  ARG338      0.1694
     89  C         16.9170   -3.4820   -6.7020 C.2   338  ARG338      0.2591
     90  O         17.6860   -4.0570   -7.4330 O.2   338  ARG338     -0.2718
     91  CB        18.3930   -2.4500   -4.9740 C.3   338  ARG338      0.0321
     92  CG        19.2490   -1.2300   -4.5310 C.3   338  ARG338      0.0489
     93  CD        20.2140   -1.6320   -3.4340 C.3   338  ARG338      0.2205
     94  NE        21.0080   -0.5040   -2.9690 N.pl3 338  ARG338     -0.0865
     95  CZ        20.7290    0.1930   -1.8780 C.cat 338  ARG338      0.5346
     96  NH1       19.6950   -0.1300   -1.1120 N.pl3 338  ARG338      0.1354
     97  NH2       21.4840    1.2260   -1.5680 N.pl3 338  ARG338      0.1354
     98  N         15.7170   -3.9740   -6.4100 N.am  339  ILE339     -0.1980
     99  CA        15.2060   -5.2490   -6.9950 C.3   339  ILE339      0.1595
    100  C         15.0470   -5.1380   -8.5210 C.2   339  ILE339      0.2287
    101  O         14.2380   -4.3180   -8.9890 O.2   339  ILE339     -0.2864
    102  CB        13.8600   -5.6650   -6.3060 C.3   339  ILE339      0.0276
    103  CG1       14.1060   -5.9620   -4.8300 C.3   339  ILE339      0.0022
    104  CG2       13.2500   -6.9130   -6.9730 C.3   339  ILE339      0.0022
    105  CD1       12.8390   -6.2140   -4.0170 C.3   339  ILE339      0.0001
    106  N         19.0180    4.7470   -0.7030 N.3   362  ASP362     -0.1239
    107  CA        18.8920    5.0360    0.7330 C.3   362  ASP362      0.1674
    108  C         19.4230    6.4130    1.1000 C.2   362  ASP362      0.2266
    109  O         19.0840    6.9130    2.1360 O.2   362  ASP362     -0.2867
    110  CB        19.6830    4.0250    1.5670 C.3   362  ASP362      0.1410
    111  CG        19.2330    2.5850    1.3410 C.2   362  ASP362      0.3668
    112  OD1       18.0120    2.2870    1.4510 O.co2 362  ASP362     -0.2456
    113  OD2       20.1180    1.7530    1.0750 O.co2 362  ASP362     -0.2456
@<TRIPOS>BOND
     1   101   100    2
     2   100    99    1
     3    74    73    2
     4    73    72    1
     5    90    89    2
     6    99    98    1
     7    99   102    1
     8   104   102    1
     9    89    98   am
    10    89    88    1
    11    72    71    1
    12    72    75    1
    13   102   103    1
    14    88    87    1
    15    88    91    1
    16    75    76    1
    17    91    92    1
    18   103   105    1
    19    92    93    1
    20    84    83    2
    21    83    82    1
    22    93    94    1
    23    63    62    2
    24    94    95    2
    25    54    53    2
    26    62    61    1
    27    82    85    1
    28    82    81    1
    29    80    79    2
    30    95    97    1
    31    95    96    1
    32    53    52    1
    33    53    60   am
    34    85    86    1
    35    81    79   am
    36    79    78    1
    37    61    60    1
    38    61    64    1
    39    56    55    1
    40    56    57    1
    41    52    55    1
    42    52    51    1
    43   106   107    1
    44    78    77    1
    45    57    58    1
    46    64    65    1
    47    13    14    1
    48   107   108    1
    49   107   110    1
    50    65    66    1
    51    58    59    1
    52   113   111   ar
    53   108   109    2
    54   111   112   ar
    55   111   110    1
    56    16    15    2
    57    14    15    1
    58    21    22    1
    59    22    23    1
    60    34    35    1
    61    15    17   am
    62    45    44    2
    63    66    67    1
    64    67    68    2
    65    24    23    2
    66    23    25   am
    67    40    39   ar
    68    70    68    1
    69    35    36    1
    70    35    38    1
    71    44    43    1
    72    68    69    1
    73    17    18    1
    74    36    37    2
    75    25    26    1
    76    39    38    1
    77    39    41   ar
    78    43    42    1
    79    43    46    1
    80    49    48   ar
    81    18    19    1
    82    27    28    2
    83    27    26    1
    84    48    47    1
    85    48    50   ar
    86    19    20    2
    87    47    46    1
    88    26    29    1
    89    29    30    1
    90    33    31   ar
    91    30    31    1
    92    31    32   ar
    93     4     3    2
    94     5     6    1
    95     5     2    1
    96     8     6   ar
    97     8    10   ar
    98     6     7   ar
    99    10    11   ar
   100     3     2    1
   101     2     1    1
   102     7     9   ar
   103    11     9   ar
   104    11    12    1
