@<TRIPOS>MOLECULE
tmp/3ldrA00.pdb
 195 190 0 0 0
SMALL
GASTEIGER

@<TRIPOS>ATOM
      1  N         79.1460   12.6890   61.2560 N.3    41  ASP41      -0.1239
      2  CA        78.6400   12.1510   59.9980 C.3    41  ASP41       0.1674
      3  C         77.8090   10.8940   60.1040 C.2    41  ASP41       0.2266
      4  O         78.2030    9.9330   60.7730 O.2    41  ASP41      -0.2867
      5  CB        79.7660   11.7580   59.0610 C.3    41  ASP41       0.1410
      6  CG        80.5730   12.9080   58.6000 C.2    41  ASP41       0.3668
      7  OD1       80.4120   14.0170   59.1440 O.co2  41  ASP41      -0.2456
      8  OD2       81.3840   12.6770   57.6840 O.co2  41  ASP41      -0.2456
      9  N         78.8470    8.6830   63.1370 N.3    59  LEU59      -0.1245
     10  CA        80.0260    8.8520   63.9700 C.3    59  LEU59       0.1561
     11  C         79.5040    9.4130   65.2770 C.2    59  LEU59       0.2260
     12  O         78.5500   10.2020   65.2880 O.2    59  LEU59      -0.2867
     13  CB        80.9980    9.8300   63.3320 C.3    59  LEU59       0.0270
     14  CG        81.5320    9.4400   61.9520 C.3    59  LEU59       0.0019
     15  CD1       82.6080   10.4530   61.5300 C.3    59  LEU59       0.0001
     16  CD2       82.1170    8.0260   61.9940 C.3    59  LEU59       0.0001
     17  N         86.6900    6.6530   60.6630 N.3    99  PHE99      -0.1227
     18  CA        85.8930    7.6230   59.9160 C.3    99  PHE99       0.1736
     19  C         84.7180    6.9320   59.2030 C.2    99  PHE99       0.2595
     20  O         84.4480    5.7550   59.4500 O.2    99  PHE99      -0.2718
     21  CB        86.7880    8.3810   58.9140 C.3    99  PHE99       0.0547
     22  CG        87.6720    9.4480   59.5520 C.ar   99  PHE99      -0.0202
     23  CD1       87.6910    9.6370   60.9360 C.ar   99  PHE99      -0.0042
     24  CD2       88.4710   10.2700   58.7630 C.ar   99  PHE99      -0.0042
     25  CE1       88.4830   10.6210   61.5200 C.ar   99  PHE99      -0.0003
     26  CE2       89.2700   11.2600   59.3380 C.ar   99  PHE99      -0.0003
     27  CZ        89.2750   11.4340   60.7270 C.ar   99  PHE99      -0.0000
     28  N         84.0240    7.6550   58.3290 N.am  100  ASP100     -0.1974
     29  CA        82.8560    7.1110   57.6200 C.3   100  ASP100      0.1709
     30  C         83.1180    5.8140   56.8640 C.2   100  ASP100      0.2293
     31  O         84.2510    5.5190   56.4730 O.2   100  ASP100     -0.2864
     32  CB        82.3040    8.1250   56.6200 C.3   100  ASP100      0.1436
     33  CG        82.1330    9.4980   57.2080 C.2   100  ASP100      0.3671
     34  OD1       82.9850    9.9190   58.0180 O.co2 100  ASP100     -0.2456
     35  OD2       81.1570   10.1750   56.8420 O.co2 100  ASP100     -0.2456
     36  N         96.9930   11.9310   62.2920 N.3   122  LEU122     -0.1231
     37  CA        96.2520   13.1920   62.3390 C.3   122  LEU122      0.1678
     38  C         97.2790   14.3020   62.5130 C.2   122  LEU122      0.2434
     39  O         98.3650   14.0710   63.0380 O.2   122  LEU122     -0.2733
     40  CB        95.2610   13.2180   63.5090 C.3   122  LEU122      0.0284
     41  CG        93.9540   12.4610   63.2810 C.3   122  LEU122      0.0019
     42  CD1       93.0390   12.6380   64.4840 C.3   122  LEU122      0.0001
     43  CD2       93.2750   12.9740   62.0210 C.3   122  LEU122      0.0001
     44  N         96.9520   15.5280   62.0840 N.am  123  PRO123     -0.2718
     45  CA        95.6970   15.9450   61.4560 C.3   123  PRO123      0.1535
     46  C         95.6290   15.6050   59.9750 C.2   123  PRO123      0.2598
     47  O         96.6140   15.1820   59.3700 O.2   123  PRO123     -0.2715
     48  CB        95.6950   17.4500   61.6890 C.3   123  PRO123      0.0310
     49  CG        97.1440   17.7830   61.4730 C.3   123  PRO123      0.0237
     50  CD        97.8540   16.6850   62.2580 C.3   123  PRO123      0.0939
     51  N         94.4500   15.8070   59.3990 N.am  124  ILE124     -0.1964
     52  CA        94.2200   15.5450   57.9890 C.3   124  ILE124      0.1727
     53  C         93.3360   16.6660   57.4620 C.2   124  ILE124      0.2616
     54  O         92.2080   16.8180   57.9050 O.2   124  ILE124     -0.2715
     55  CB        93.4690   14.2130   57.7800 C.3   124  ILE124      0.0290
     56  CG1       94.2680   13.0590   58.3870 C.3   124  ILE124      0.0022
     57  CG2       93.2200   13.9870   56.2880 C.3   124  ILE124      0.0023
     58  CD1       93.4490   11.8010   58.5780 C.3   124  ILE124      0.0001
     59  N         93.8380   17.4570   56.5240 N.am  125  HIS125     -0.1973
     60  CA        93.0370   18.5440   55.9750 C.3   125  HIS125      0.1656
     61  C         93.5740   18.9030   54.6050 C.2   125  HIS125      0.2291
     62  O         94.7850   18.7880   54.3490 O.2   125  HIS125     -0.2864
     63  CB        93.0870   19.7520   56.9130 C.3   125  HIS125      0.0771
     64  CG        92.0330   20.7760   56.6340 C.ar  125  HIS125      0.0820
     65  ND1       92.2900   21.9400   55.9430 N.ar  125  HIS125     -0.2267
     66  CD2       90.7060   20.7890   56.9130 C.ar  125  HIS125      0.1154
     67  CE1       91.1670   22.6250   55.8050 C.ar  125  HIS125      0.1986
     68  NE2       90.1910   21.9490   56.3840 N.ar  125  HIS125     -0.2212
     69  N         89.0860    9.3300   51.8630 N.3   171  ARG171     -0.1231
     70  CA        88.1900    8.6950   52.8280 C.3   171  ARG171      0.1694
     71  C         86.7010    8.6270   52.4500 C.2   171  ARG171      0.2591
     72  O         86.2880    9.0710   51.3800 O.2   171  ARG171     -0.2718
     73  CB        88.3340    9.4330   54.1670 C.3   171  ARG171      0.0321
     74  CG        88.0760   10.9510   54.0590 C.3   171  ARG171      0.0489
     75  CD        88.0600   11.6550   55.4200 C.3   171  ARG171      0.2205
     76  NE        87.8740   13.0980   55.2470 N.pl3 171  ARG171     -0.0865
     77  CZ        88.8610   13.9640   55.0240 C.cat 171  ARG171      0.5346
     78  NH1       90.1190   13.5390   54.9620 N.pl3 171  ARG171      0.1354
     79  NH2       88.5900   15.2540   54.8280 N.pl3 171  ARG171      0.1354
     80  N         85.7760    8.0990   53.3640 N.am  172  ALA172     -0.1980
     81  CA        84.3270    7.9440   53.2040 C.3   172  ALA172      0.1597
     82  C         83.9240    7.0330   52.0420 C.2   172  ALA172      0.2287
     83  O         83.1760    7.4310   51.1640 O.2   172  ALA172     -0.2864
     84  CB        83.6710    9.3150   53.0440 C.3   172  ALA172      0.0319
     85  N         83.8060   15.6020   49.9250 N.3   273  GLU273     -0.1231
     86  CA        83.6180   14.7560   51.0860 C.3   273  GLU273      0.1699
     87  C         82.3180   13.9590   50.9810 C.2   273  GLU273      0.2592
     88  O         81.4100   14.3200   50.2340 O.2   273  GLU273     -0.2718
     89  CB        83.6150   15.5950   52.3660 C.3   273  GLU273      0.0402
     90  CG        84.9500   16.2420   52.6500 C.3   273  GLU273      0.1161
     91  CD        85.0630   16.7910   54.0580 C.2   273  GLU273      0.3649
     92  OE1       84.2980   17.7160   54.4040 O.co2 273  GLU273     -0.2457
     93  OE2       85.9290   16.2910   54.8130 O.co2 273  GLU273     -0.2457
     94  N         82.2640   12.8970   51.6860 N.am  274  THR274     -0.1953
     95  CA        81.2120   11.8940   51.7970 C.3   274  THR274      0.1897
     96  C         80.3690   11.6480   50.5490 C.2   274  THR274      0.2313
     97  O         79.1410   11.7910   50.5840 O.2   274  THR274     -0.2863
     98  CB        80.2670   12.2770   52.9390 C.3   274  THR274      0.1794
     99  OG1       79.6240   13.5170   52.6130 O.3   274  THR274     -0.2208
    100  CG2       81.0590   12.4440   54.2560 C.3   274  THR274      0.0378
    101  N         84.3060   21.2830   50.6570 N.3   299  GLU299     -0.1245
    102  CA        84.9160   22.1650   51.6490 C.3   299  GLU299      0.1567
    103  C         85.4880   23.3700   50.9310 C.2   299  GLU299      0.2260
    104  O         86.3630   23.2250   50.0750 O.2   299  GLU299     -0.2867
    105  CB        86.0560   21.4500   52.3730 C.3   299  GLU299      0.0388
    106  CG        85.6270   20.3580   53.3230 C.3   299  GLU299      0.1160
    107  CD        86.8160   19.6810   53.9750 C.2   299  GLU299      0.3649
    108  OE1       87.3740   18.7270   53.3810 O.co2 299  GLU299     -0.2457
    109  OE2       87.2000   20.1170   55.0800 O.co2 299  GLU299     -0.2457
    110  N         93.8800   24.5730   58.0560 N.3   308  GLN308     -0.1245
    111  CA        93.0980   23.6360   58.8470 C.3   308  GLN308      0.1566
    112  C         91.6720   24.0650   59.1530 C.2   308  GLN308      0.2260
    113  O         90.9840   23.4440   59.9620 O.2   308  GLN308     -0.2867
    114  CB        93.8600   23.2540   60.1230 C.3   308  GLN308      0.0367
    115  CG        95.1500   22.4870   59.7960 C.3   308  GLN308      0.0905
    116  CD        95.9860   22.1320   61.0110 C.2   308  GLN308      0.2608
    117  OE1       95.6090   21.2840   61.8120 O.2   308  GLN308     -0.2717
    118  NE2       97.1340   22.7840   61.1480 N.am  308  GLN308     -0.0878
    119  N         87.9420   24.9910   57.2650 N.3   310  SER310     -0.1217
    120  CA        87.1060   24.9720   56.0660 C.3   310  SER310      0.1889
    121  C         85.9940   25.9350   56.4350 C.2   310  SER310      0.2288
    122  O         85.1160   25.5900   57.2190 O.2   310  SER310     -0.2866
    123  CB        86.5030   23.5870   55.8310 C.3   310  SER310      0.2089
    124  OG        87.4890   22.6490   55.4580 O.3   310  SER310     -0.2183
    125  N         80.9550   24.8100   54.1520 N.3   313  HIS313     -0.1241
    126  CA        80.6010   23.3990   54.0060 C.3   313  HIS313      0.1621
    127  C         79.3060   23.2870   53.1870 C.2   313  HIS313      0.2264
    128  O         78.2050   23.3760   53.7360 O.2   313  HIS313     -0.2867
    129  CB        80.3980   22.7410   55.3730 C.3   313  HIS313      0.0745
    130  CG        81.6450   22.6500   56.1970 C.ar  313  HIS313      0.0817
    131  ND1       82.1660   23.7240   56.8860 N.ar  313  HIS313     -0.2268
    132  CD2       82.4810   21.6100   56.4340 C.ar  313  HIS313      0.1154
    133  CE1       83.2670   23.3510   57.5110 C.ar  313  HIS313      0.1986
    134  NE2       83.4810   22.0730   57.2530 N.ar  313  HIS313     -0.2212
    135  N         75.0520   19.1780   56.2360 N.3   350  TYR350     -0.1227
    136  CA        76.2700   18.7010   55.5960 C.3   350  TYR350      0.1736
    137  C         76.4700   17.1920   55.7030 C.2   350  TYR350      0.2595
    138  O         75.6370   16.4700   56.2530 O.2   350  TYR350     -0.2718
    139  CB        77.4900   19.4280   56.1670 C.3   350  TYR350      0.0548
    140  CG        78.7660   19.1900   55.3910 C.ar  350  TYR350     -0.0200
    141  CD1       79.7200   18.2900   55.8460 C.ar  350  TYR350     -0.0009
    142  CD2       79.0140   19.8630   54.2030 C.ar  350  TYR350     -0.0009
    143  CE1       80.8880   18.0680   55.1390 C.ar  350  TYR350      0.0417
    144  CE2       80.1790   19.6480   53.4890 C.ar  350  TYR350      0.0417
    145  CZ        81.1120   18.7500   53.9630 C.ar  350  TYR350      0.1957
    146  OH        82.2720   18.5340   53.2560 O.3   350  TYR350     -0.2866
    147  N         77.5340   16.5330   55.1180 N.am  351  ALA351     -0.1980
    148  CA        77.8300   15.1070   55.1780 C.3   351  ALA351      0.1597
    149  C         76.6640   14.1180   55.0570 C.2   351  ALA351      0.2287
    150  O         76.5290   13.1930   55.8670 O.2   351  ALA351     -0.2864
    151  CB        78.6180   14.8200   56.4690 C.3   351  ALA351      0.0319
    152  N         73.3760   15.5790   57.9790 N.3   379  TRP379     -0.1241
    153  CA        73.9290   15.9250   59.2830 C.3   379  TRP379      0.1605
    154  C         73.7330   17.4080   59.5670 C.2   379  TRP379      0.2264
    155  O         73.8960   18.2350   58.6750 O.2   379  TRP379     -0.2867
    156  CB        75.4340   15.6080   59.3190 C.3   379  TRP379      0.0550
    157  CG        76.1230   15.9970   60.6060 C.ar  379  TRP379      0.0003
    158  CD1       75.6890   15.7310   61.8690 C.ar  379  TRP379      0.0946
    159  CD2       77.4110   16.6290   60.7500 C.ar  379  TRP379      0.0152
    160  NE1       76.6180   16.1480   62.7900 N.ar  379  TRP379     -0.2442
    161  CE2       77.6860   16.7010   62.1320 C.ar  379  TRP379      0.0810
    162  CE3       78.3540   17.1330   59.8480 C.ar  379  TRP379      0.0012
    163  CZ2       78.8760   17.2580   62.6390 C.ar  379  TRP379      0.0191
    164  CZ3       79.5440   17.6890   60.3510 C.ar  379  TRP379      0.0001
    165  CH2       79.7890   17.7450   61.7340 C.ar  379  TRP379      0.0015
    166  N         80.5410   23.1370   62.8830 N.3   385  TYR385     -0.1227
    167  CA        81.7390   22.3700   62.5650 C.3   385  TYR385      0.1736
    168  C         82.9030   22.6970   63.5130 C.2   385  TYR385      0.2595
    169  O         84.0480   22.8670   63.0880 O.2   385  TYR385     -0.2718
    170  CB        82.1360   22.6300   61.1100 C.3   385  TYR385      0.0548
    171  CG        80.9620   22.5430   60.1480 C.ar  385  TYR385     -0.0200
    172  CD1       80.5000   21.3130   59.6850 C.ar  385  TYR385     -0.0009
    173  CD2       80.2990   23.6990   59.7190 C.ar  385  TYR385     -0.0009
    174  CE1       79.4050   21.2320   58.8170 C.ar  385  TYR385      0.0417
    175  CE2       79.2090   23.6310   58.8540 C.ar  385  TYR385      0.0417
    176  CZ        78.7670   22.3910   58.4090 C.ar  385  TYR385      0.1957
    177  OH        77.6790   22.3140   57.5650 O.3   385  TYR385     -0.2866
    178  N         82.5830   22.7720   64.8000 N.am  386  GLU386     -0.1965
    179  CA        83.5550   23.0540   65.8470 C.3   386  GLU386      0.1733
    180  C         84.2630   24.3980   65.7330 C.2   386  GLU386      0.2616
    181  O         85.4050   24.5350   66.1670 O.2   386  GLU386     -0.2715
    182  CB        84.5920   21.9280   65.9120 C.3   386  GLU386      0.0429
    183  CG        84.0170   20.5970   66.3600 C.3   386  GLU386      0.1163
    184  CD        84.9230   19.4250   66.0100 C.2   386  GLU386      0.3649
    185  OE1       86.1300   19.4880   66.3390 O.co2 386  GLU386     -0.2457
    186  OE2       84.4260   18.4440   65.4060 O.co2 386  GLU386     -0.2457
    187  N         83.5940   25.3840   65.1420 N.am  387  GLN387     -0.1977
    188  CA        84.1630   26.7250   65.0360 C.3   387  GLN387      0.1601
    189  C         83.2870   27.6930   65.8310 C.2   387  GLN387      0.2287
    190  O         83.5050   28.9020   65.8040 O.2   387  GLN387     -0.2864
    191  CB        84.2360   27.1840   63.5750 C.3   387  GLN387      0.0394
    192  CG        85.2490   26.4320   62.7220 C.3   387  GLN387      0.0908
    193  CD        86.6490   26.4350   63.3210 C.2   387  GLN387      0.2608
    194  OE1       87.2010   27.4890   63.6560 O.2   387  GLN387     -0.2717
    195  NE2       87.2350   25.2480   63.4510 N.am  387  GLN387     -0.0878
@<TRIPOS>BOND
     1    85    86    1
     2   104   103    2
     3    88    87    2
     4    96    97    2
     5    96    95    1
     6   101   102    1
     7   103   102    1
     8    87    86    1
     9    87    94   am
    10    86    89    1
    11    83    82    2
    12    72    71    2
    13   102   105    1
    14    94    95    1
    15    95    98    1
    16    69    70    1
    17    82    81    1
    18    89    90    1
    19   105   106    1
    20    71    70    1
    21    71    80   am
    22    99    98    1
    23    90    91    1
    24    70    73    1
    25    98   100    1
    26    84    81    1
    27   127   128    2
    28   127   126    1
    29    81    80    1
    30   146   145    1
    31   106   107    1
    32   108   107   ar
    33   144   145   ar
    34   144   142   ar
    35   145   143   ar
    36   107   109   ar
    37   126   125    1
    38   126   129    1
    39    91    92   ar
    40    91    93   ar
    41    74    73    1
    42    74    75    1
    43   142   140   ar
    44    62    61    2
    45    61    60    1
    46    79    77    1
    47    78    77    1
    48    77    76    2
    49   149   148    1
    50   149   150    2
    51   147   148    1
    52   147   137   am
    53   143   141   ar
    54   148   151    1
    55    76    75    1
    56   129   130    1
    57   140   141   ar
    58   140   139    1
    59   124   123    1
    60   136   137    1
    61   136   139    1
    62   136   135    1
    63   137   138    2
    64    67    65   ar
    65    67    68   ar
    66   123   120    1
    67    65    64   ar
    68    60    59    1
    69    60    63    1
    70   120   121    1
    71   120   119    1
    72   130   132   ar
    73   130   131   ar
    74    57    55    1
    75    68    66   ar
    76   132   134   ar
    77   121   122    2
    78    31    30    2
    79    59    53   am
    80    32    33    1
    81    32    29    1
    82    64    66   ar
    83    64    63    1
    84    35    33   ar
    85    30    29    1
    86   131   133   ar
    87    33    34   ar
    88   134   133   ar
    89    53    54    2
    90    53    52    1
    91   177   176    1
    92    29    28    1
    93     8     6   ar
    94    55    52    1
    95    55    56    1
    96   152   153    1
    97    52    51    1
    98   110   111    1
    99    28    19   am
   100    56    58    1
   101   176   174   ar
   102   176   175   ar
   103     6     5    1
   104     6     7   ar
   105   155   154    2
   106    24    26   ar
   107    24    22   ar
   108   174   172   ar
   109   111   112    1
   110   111   114    1
   111   175   173   ar
   112    21    22    1
   113    21    18    1
   114     5     2    1
   115   112   113    2
   116    19    20    2
   117    19    18    1
   118   153   156    1
   119   153   154    1
   120   156   157    1
   121    26    27   ar
   122    47    46    2
   123    51    46   am
   124    22    23   ar
   125   172   171   ar
   126   173   171   ar
   127   115   114    1
   128   115   116    1
   129   162   164   ar
   130   162   159   ar
   131    18    17    1
   132    46    45    1
   133     2     3    1
   134     2     1    1
   135     3     4    2
   136   171   170    1
   137   164   165   ar
   138   157   159   ar
   139   157   158   ar
   140    27    25   ar
   141   159   161   ar
   142    23    25   ar
   143   116   118   am
   144   116   117    2
   145   170   167    1
   146    45    48    1
   147    45    44    1
   148    49    48    1
   149    49    50    1
   150    15    14    1
   151   165   163   ar
   152   158   160   ar
   153    14    16    1
   154    14    13    1
   155    43    41    1
   156    44    50    1
   157    44    38   am
   158   161   163   ar
   159   161   160   ar
   160    36    37    1
   161    37    38    1
   162    37    40    1
   163    38    39    2
   164   167   166    1
   165   167   168    1
   166   192   193    1
   167   192   191    1
   168   169   168    2
   169     9    10    1
   170    41    40    1
   171    41    42    1
   172   193   195   am
   173   193   194    2
   174    13    10    1
   175   168   178   am
   176   191   188    1
   177    10    11    1
   178   178   179    1
   179   188   187    1
   180   188   189    1
   181   187   180   am
   182    11    12    2
   183   186   184   ar
   184   180   179    1
   185   180   181    2
   186   190   189    2
   187   179   182    1
   188   182   183    1
   189   184   185   ar
   190   184   183    1
