@<TRIPOS>MOLECULE
tmp/3lduA00.pdb
 187 185 0 0 0
SMALL
GASTEIGER

@<TRIPOS>ATOM
      1  N         10.3820   28.2710   31.5490 N.3   167  LYS167     -0.1231
      2  CA        10.6750   27.2270   32.5260 C.3   167  LYS167      0.1693
      3  C         10.9930   25.8950   31.8500 C.2   167  LYS167      0.2592
      4  O         12.1010   25.6860   31.3500 O.2   167  LYS167     -0.2718
      5  CB         9.5100   27.0640   33.4950 C.3   167  LYS167      0.0285
      6  CG         8.8060   28.3890   33.8490 C.3   167  LYS167      0.0035
      7  CD         7.5440   28.1850   34.6810 C.3   167  LYS167      0.0206
      8  CE         6.6010   27.1150   34.0970 C.3   167  LYS167      0.1093
      9  NZ         6.0620   27.4320   32.7490 N.3   167  LYS167     -0.1314
     10  N         10.0160   24.9950   31.8450 N.am  168  ALA168     -0.1966
     11  CA        10.1930   23.6730   31.2530 C.3   168  ALA168      0.1713
     12  C          8.9510   23.2530   30.4700 C.2   168  ALA168      0.2458
     13  O          8.1000   22.5230   30.9770 O.2   168  ALA168     -0.2730
     14  CB        10.5230   22.6480   32.3320 C.3   168  ALA168      0.0333
     15  N          8.8520   23.7080   29.2160 N.am  169  PRO169     -0.2716
     16  CA         7.6300   23.5030   28.4380 C.3   169  PRO169      0.1536
     17  C          7.5330   22.0540   27.9960 C.2   169  PRO169      0.2598
     18  O          8.5610   21.4430   27.6970 O.2   169  PRO169     -0.2715
     19  CB         7.8410   24.4070   27.2080 C.3   169  PRO169      0.0310
     20  CG         9.0520   25.2640   27.5380 C.3   169  PRO169      0.0237
     21  CD         9.8830   24.4010   28.4310 C.3   169  PRO169      0.0939
     22  N          6.3210   21.5120   27.9690 N.am  170  ILE170     -0.1978
     23  CA         6.0840   20.2020   27.3820 C.3   170  ILE170      0.1596
     24  C          6.4630   20.2530   25.9010 C.2   170  ILE170      0.2287
     25  O          6.3370   21.2870   25.2620 O.2   170  ILE170     -0.2864
     26  CB         4.6030   19.7920   27.5570 C.3   170  ILE170      0.0276
     27  CG1        4.3580   18.3690   27.0700 C.3   170  ILE170      0.0022
     28  CG2        3.6600   20.7620   26.8390 C.3   170  ILE170      0.0022
     29  CD1        2.9700   17.8680   27.4540 C.3   170  ILE170      0.0001
     30  N         -6.8920   24.7220   30.0780 N.3   192  ASP192     -0.1225
     31  CA        -5.6680   24.2250   30.7090 C.3   192  ASP192      0.1790
     32  C         -5.3640   25.1990   31.8420 C.2   192  ASP192      0.2439
     33  O         -4.8230   26.2830   31.5990 O.2   192  ASP192     -0.2733
     34  CB        -4.4960   24.2070   29.7120 C.3   192  ASP192      0.1423
     35  CG        -3.1980   23.7290   30.3510 C.2   192  ASP192      0.3668
     36  OD1       -3.1770   23.5810   31.5910 O.co2 192  ASP192     -0.2456
     37  OD2       -2.1960   23.5110   29.6250 O.co2 192  ASP192     -0.2456
     38  N         -5.7020   24.8200   33.0860 N.am  193  PRO193     -0.2729
     39  CA        -5.6290   25.7500   34.2230 C.3   193  PRO193      0.1401
     40  C         -4.2360   25.8850   34.8530 C.2   193  PRO193      0.2269
     41  O         -4.0930   26.5840   35.8610 O.2   193  PRO193     -0.2865
     42  CB        -6.6270   25.1460   35.2210 C.3   193  PRO193      0.0296
     43  CG        -6.5190   23.6770   35.0000 C.3   193  PRO193      0.0237
     44  CD        -6.2400   23.5080   33.4780 C.3   193  PRO193      0.0939
     45  N         -1.2980   26.4060   32.5580 N.3   194  CYS194     -0.1221
     46  CA        -0.9590   26.3420   31.1410 C.3   194  CYS194      0.1808
     47  C          0.4900   26.6580   30.8050 C.2   194  CYS194      0.2602
     48  O          0.9330   26.3760   29.6880 O.2   194  CYS194     -0.2717
     49  CB        -1.8850   27.2570   30.3500 C.3   194  CYS194      0.0970
     50  SG        -1.6480   29.0010   30.7190 S.3   194  CYS194     -0.0800
     51  N          1.2200   27.2550   31.7440 N.am  195  GLY195     -0.1942
     52  CA         2.5940   27.6550   31.4950 C.3   195  GLY195      0.2014
     53  C          2.6930   28.5240   30.2490 C.2   195  GLY195      0.2640
     54  O          1.9080   29.4480   30.0790 O.2   195  GLY195     -0.2714
     55  N          3.6320   28.2150   29.3610 N.am  196  SER196     -0.1935
     56  CA         3.8190   29.0380   28.1610 C.3   196  SER196      0.2055
     57  C          2.8490   28.6780   27.0330 C.2   196  SER196      0.2644
     58  O          3.0030   29.1380   25.8960 O.2   196  SER196     -0.2714
     59  CB         5.2630   28.9590   27.6780 C.3   196  SER196      0.2130
     60  OG         5.6520   27.6080   27.5680 O.3   196  SER196     -0.2179
     61  N          1.8690   27.8380   27.3460 N.am  197  GLY197     -0.1939
     62  CA         0.6800   27.7210   26.5200 C.3   197  GLY197      0.2014
     63  C          0.6930   26.6660   25.4340 C.2   197  GLY197      0.2640
     64  O         -0.1890   26.6420   24.5780 O.2   197  GLY197     -0.2714
     65  N          1.6750   25.7730   25.4950 N.am  198  THR198     -0.1936
     66  CA         1.9230   24.8080   24.4190 C.3   198  THR198      0.2028
     67  C          0.7170   23.9140   24.1290 C.2   198  THR198      0.2642
     68  O          0.3520   23.7120   22.9730 O.2   198  THR198     -0.2714
     69  CB         3.1100   23.9150   24.7850 C.3   198  THR198      0.1808
     70  OG1        4.2640   24.7370   24.9910 O.3   198  THR198     -0.2208
     71  CG2        3.4070   22.9250   23.6610 C.3   198  THR198      0.0379
     72  N          0.1050   23.3780   25.1820 N.am  199  ILE199     -0.1977
     73  CA        -1.0260   22.4880   24.9970 C.3   199  ILE199      0.1596
     74  C         -2.1580   23.2030   24.2660 C.2   199  ILE199      0.2287
     75  O         -2.7490   22.6500   23.3460 O.2   199  ILE199     -0.2864
     76  CB        -1.5010   21.9090   26.3490 C.3   199  ILE199      0.0276
     77  CG1       -0.4620   20.8930   26.8330 C.3   199  ILE199      0.0022
     78  CG2       -2.8750   21.2440   26.2090 C.3   199  ILE199      0.0022
     79  CD1       -0.7750   20.3040   28.1980 C.3   199  ILE199      0.0001
     80  N         -4.9700   29.1930   32.2610 N.3   251  TYR251     -0.1227
     81  CA        -4.6370   29.9280   33.4830 C.3   251  TYR251      0.1736
     82  C         -3.3000   29.4540   34.0240 C.2   251  TYR251      0.2595
     83  O         -2.9390   28.2900   33.8570 O.2   251  TYR251     -0.2718
     84  CB        -5.7100   29.7200   34.5620 C.3   251  TYR251      0.0548
     85  CG        -7.0740   30.1350   34.0960 C.ar  251  TYR251     -0.0200
     86  CD1       -7.4760   31.4590   34.1760 C.ar  251  TYR251     -0.0009
     87  CD2       -7.9540   29.2080   33.5530 C.ar  251  TYR251     -0.0009
     88  CE1       -8.7100   31.8520   33.7250 C.ar  251  TYR251      0.0417
     89  CE2       -9.2000   29.5900   33.1030 C.ar  251  TYR251      0.0417
     90  CZ        -9.5740   30.9140   33.2010 C.ar  251  TYR251      0.1957
     91  OH       -10.8060   31.3180   32.7520 O.3   251  TYR251     -0.2866
     92  N         -2.5700   30.3520   34.6810 N.am  252  ASP252     -0.1960
     93  CA        -1.3590   29.9650   35.4030 C.3   252  ASP252      0.1840
     94  C         -1.1310   31.0090   36.4920 C.2   252  ASP252      0.2622
     95  O         -1.5900   32.1400   36.3580 O.2   252  ASP252     -0.2715
     96  CB        -0.1580   29.9080   34.4380 C.3   252  ASP252      0.1450
     97  CG         0.9860   29.0650   34.9790 C.2   252  ASP252      0.3671
     98  OD1        1.2330   27.9700   34.4230 O.co2 252  ASP252     -0.2456
     99  OD2        1.6360   29.4880   35.9610 O.co2 252  ASP252     -0.2456
    100  N         -0.4490   30.6410   37.5740 N.am  253  ILE253     -0.1963
    101  CA        -0.1130   31.6370   38.5940 C.3   253  ILE253      0.1727
    102  C          1.2000   32.3670   38.3010 C.2   253  ILE253      0.2616
    103  O          1.5380   33.3430   38.9800 O.2   253  ILE253     -0.2715
    104  CB        -0.0560   31.0490   40.0210 C.3   253  ILE253      0.0290
    105  CG1        1.0270   29.9650   40.1080 C.3   253  ILE253      0.0022
    106  CG2       -1.4350   30.5480   40.4530 C.3   253  ILE253      0.0023
    107  CD1        1.2470   29.4430   41.5100 C.3   253  ILE253      0.0001
    108  N          1.9430   31.8860   37.3020 N.am  254  ASP254     -0.1971
    109  CA         3.1860   32.5330   36.8820 C.3   254  ASP254      0.1709
    110  C          2.8550   33.5750   35.8120 C.2   254  ASP254      0.2293
    111  O          2.5930   33.2380   34.6580 O.2   254  ASP254     -0.2864
    112  CB         4.1770   31.4800   36.3440 C.3   254  ASP254      0.1436
    113  CG         5.5460   32.0710   35.9550 C.2   254  ASP254      0.3671
    114  OD1        5.6510   33.2800   35.6900 O.co2 254  ASP254     -0.2456
    115  OD2        6.5310   31.3070   35.9140 O.co2 254  ASP254     -0.2456
    116  N          4.7070   33.5780   32.6340 N.3   257  SER257     -0.1217
    117  CA         4.3200   32.5020   31.7310 C.3   257  SER257      0.1889
    118  C          3.1160   32.8870   30.8860 C.2   257  SER257      0.2288
    119  O          3.0440   32.5450   29.7100 O.2   257  SER257     -0.2866
    120  CB         4.0550   31.1990   32.4930 C.3   257  SER257      0.2089
    121  OG         5.2820   30.6520   32.9390 O.3   257  SER257     -0.2183
    122  N         -4.3840   32.8990   36.9650 N.3   279  GLY279     -0.1210
    123  CA        -5.4370   32.2520   37.7250 C.3   279  GLY279      0.1956
    124  C         -4.8900   31.0500   38.4720 C.2   279  GLY279      0.2612
    125  O         -3.8260   30.5290   38.1330 O.2   279  GLY279     -0.2717
    126  N         -5.6280   30.6180   39.4950 N.am  280  ASP280     -0.1959
    127  CA        -5.2560   29.5000   40.3610 C.3   280  ASP280      0.1840
    128  C         -6.1530   28.2950   40.0310 C.2   280  ASP280      0.2622
    129  O         -7.3580   28.3360   40.2670 O.2   280  ASP280     -0.2715
    130  CB        -5.4450   29.9660   41.8230 C.3   280  ASP280      0.1450
    131  CG        -5.0300   28.9260   42.8680 C.2   280  ASP280      0.3671
    132  OD1       -4.6800   27.7760   42.5230 O.co2 280  ASP280     -0.2456
    133  OD2       -5.0690   29.2870   44.0710 O.co2 280  ASP280     -0.2456
    134  N         -5.5630   27.2340   39.4710 N.am  281  ALA281     -0.1963
    135  CA        -6.2920   26.0210   39.0820 C.3   281  ALA281      0.1728
    136  C         -7.1090   25.4000   40.2210 C.2   281  ALA281      0.2616
    137  O         -8.1400   24.7760   39.9690 O.2   281  ALA281     -0.2715
    138  CB        -5.3190   24.9780   38.5350 C.3   281  ALA281      0.0334
    139  N         -6.6180   25.5340   41.4520 N.am  282  THR282     -0.1951
    140  CA        -7.3110   24.9620   42.6190 C.3   282  THR282      0.1897
    141  C         -8.6160   25.6860   42.9360 C.2   282  THR282      0.2313
    142  O         -9.4230   25.2050   43.7350 O.2   282  THR282     -0.2863
    143  CB        -6.4210   24.9130   43.8920 C.3   282  THR282      0.1794
    144  OG1       -6.1530   26.2360   44.3550 O.3   282  THR282     -0.2208
    145  CG2       -5.1010   24.1840   43.6030 C.3   282  THR282      0.0378
    146  N         -0.7390   19.8900   32.2330 N.3   296  ASN296     -0.1226
    147  CA         0.5760   19.3560   32.5680 C.3   296  ASN296      0.1770
    148  C          1.0280   20.0220   33.8800 C.2   296  ASN296      0.2439
    149  O          1.6880   21.0650   33.8660 O.2   296  ASN296     -0.2733
    150  CB         1.5080   19.6720   31.3690 C.3   296  ASN296      0.1168
    151  CG         2.9660   19.3440   31.6110 C.2   296  ASN296      0.2627
    152  OD1        3.8560   20.1370   31.2650 O.2   296  ASN296     -0.2716
    153  ND2        3.2320   18.1730   32.1360 N.am  296  ASN296     -0.0877
    154  N          0.6010   19.4670   35.0330 N.am  297  PRO297     -0.2718
    155  CA         0.9150   20.1030   36.3260 C.3   297  PRO297      0.1520
    156  C          2.3840   19.9120   36.6960 C.2   297  PRO297      0.2440
    157  O          3.0660   19.1160   36.0560 O.2   297  PRO297     -0.2731
    158  CB         0.0380   19.3210   37.3210 C.3   297  PRO297      0.0310
    159  CG        -0.1330   17.9640   36.6670 C.3   297  PRO297      0.0237
    160  CD        -0.2610   18.2790   35.1920 C.3   297  PRO297      0.0939
    161  N          2.8590   20.6130   37.7340 N.am  298  PRO298     -0.2716
    162  CA         4.1910   20.3140   38.2780 C.3   298  PRO298      0.1536
    163  C          4.2730   18.8250   38.6430 C.2   298  PRO298      0.2598
    164  O          3.2630   18.2630   39.0570 O.2   298  PRO298     -0.2715
    165  CB         4.2530   21.1640   39.5490 C.3   298  PRO298      0.0310
    166  CG         3.1780   22.1990   39.4000 C.3   298  PRO298      0.0237
    167  CD         2.1160   21.5900   38.5480 C.3   298  PRO298      0.0939
    168  N          5.4430   18.2060   38.4930 N.am  299  TYR299     -0.1974
    169  CA         5.6010   16.7690   38.7430 C.3   299  TYR299      0.1639
    170  C          6.0540   16.4310   40.1610 C.2   299  TYR299      0.2290
    171  O          5.9360   15.2810   40.6020 O.2   299  TYR299     -0.2864
    172  CB         6.6230   16.1600   37.7830 C.3   299  TYR299      0.0560
    173  CG         6.2820   16.2630   36.3060 C.ar  299  TYR299     -0.0198
    174  CD1        7.2450   15.9830   35.3330 C.ar  299  TYR299     -0.0009
    175  CD2        5.0080   16.6170   35.8850 C.ar  299  TYR299     -0.0009
    176  CE1        6.9480   16.0610   33.9700 C.ar  299  TYR299      0.0417
    177  CE2        4.6940   16.6950   34.5220 C.ar  299  TYR299      0.0417
    178  CZ         5.6720   16.4290   33.5720 C.ar  299  TYR299      0.1957
    179  OH         5.3560   16.5050   32.2350 O.3   299  TYR299     -0.2866
    180  N         -1.3520   19.9180   45.9210 N.3   312  LEU312     -0.1245
    181  CA        -1.9140   20.4550   44.6930 C.3   312  LEU312      0.1561
    182  C         -2.8180   19.4120   44.0360 C.2   312  LEU312      0.2260
    183  O         -3.9480   19.7040   43.6490 O.2   312  LEU312     -0.2867
    184  CB        -0.7950   20.8610   43.7330 C.3   312  LEU312      0.0270
    185  CG        -1.2720   21.2400   42.3320 C.3   312  LEU312      0.0019
    186  CD1       -2.1410   22.4840   42.3960 C.3   312  LEU312      0.0001
    187  CD2       -0.0760   21.4670   41.4120 C.3   312  LEU312      0.0001
@<TRIPOS>BOND
     1    68    67    2
     2    75    74    2
     3    71    69    1
     4    67    66    1
     5    67    72   am
     6    74    73    1
     7    66    69    1
     8    66    65    1
     9    64    63    2
    10    69    70    1
    11    73    72    1
    12    73    76    1
    13    25    24    2
    14    63    65   am
    15    63    62    1
    16    58    57    2
    17    24    23    1
    18    78    76    1
    19    76    77    1
    20    62    61    1
    21    77    79    1
    22    28    26    1
    23    57    61   am
    24    57    56    1
    25    27    29    1
    26    27    26    1
    27    19    20    1
    28    19    16    1
    29    23    26    1
    30    23    22    1
    31    20    21    1
    32    60    59    1
    33    59    56    1
    34    18    17    2
    35    22    17   am
    36    17    16    1
    37    56    55    1
    38    21    15    1
    39    16    15    1
    40    15    12   am
    41    55    53   am
    42    37    35   ar
    43    48    47    2
    44   119   118    2
    45    34    35    1
    46    34    31    1
    47    30    31    1
    48    54    53    2
    49    53    52    1
    50    49    50    1
    51    49    46    1
    52    35    36   ar
    53    12    13    2
    54    12    11    1
    55    31    32    1
    56    47    46    1
    57    47    51   am
    58   118   117    1
    59    46    45    1
    60    11    10    1
    61    11    14    1
    62   152   151    2
    63     4     3    2
    64   150   151    1
    65   150   147    1
    66    52    51    1
    67     1     2    1
    68    33    32    2
    69   151   153   am
    70   117   120    1
    71   117   116    1
    72    32    38   am
    73    10     3   am
    74     3     2    1
    75   146   147    1
    76   179   178    1
    77    80    81    1
    78   120   121    1
    79     2     5    1
    80   147   148    1
    81     9     8    1
    82    91    90    1
    83    38    44    1
    84    38    39    1
    85    89    90   ar
    86    89    87   ar
    87    90    88   ar
    88    44    43    1
    89    81    82    1
    90    81    84    1
    91     5     6    1
    92    87    85   ar
    93   178   176   ar
    94   178   177   ar
    95    88    86   ar
    96     6     7    1
    97    83    82    2
    98   149   148    2
    99   148   154   am
   100   176   174   ar
   101    82    92   am
   102    85    86   ar
   103    85    84    1
   104     8     7    1
   105    39    40    1
   106    39    42    1
   107    98    97   ar
   108    96    97    1
   109    96    93    1
   110   177   175   ar
   111   111   110    2
   112    92    93    1
   113    40    41    2
   114    97    99   ar
   115    43    42    1
   116   154   160    1
   117   154   155    1
   118   160   159    1
   119   174   173   ar
   120    93    94    1
   121   114   113   ar
   122   110   109    1
   123   175   173   ar
   124   115   113   ar
   125   113   112    1
   126   157   156    2
   127   173   172    1
   128   155   156    1
   129   155   158    1
   130   112   109    1
   131    95    94    2
   132    94   100   am
   133   159   158    1
   134   156   161   am
   135   109   108    1
   136   122   123    1
   137   108   102   am
   138   100   101    1
   139   123   124    1
   140   161   162    1
   141   161   167    1
   142   172   169    1
   143   125   124    2
   144   162   163    1
   145   162   165    1
   146   102   101    1
   147   102   103    2
   148   124   126   am
   149   168   163   am
   150   168   169    1
   151   138   135    1
   152   167   166    1
   153   101   104    1
   154   163   164    2
   155   169   170    1
   156   135   134    1
   157   135   136    1
   158   166   165    1
   159   134   128   am
   160   126   127    1
   161   137   136    2
   162   104   105    1
   163   104   106    1
   164   128   129    2
   165   128   127    1
   166   105   107    1
   167   170   171    2
   168   136   139   am
   169   127   130    1
   170   187   185    1
   171   139   140    1
   172   130   131    1
   173   185   186    1
   174   185   184    1
   175   132   131   ar
   176   140   141    1
   177   140   143    1
   178   131   133   ar
   179   141   142    2
   180   145   143    1
   181   183   182    2
   182   184   181    1
   183   143   144    1
   184   182   181    1
   185   181   180    1
