@<TRIPOS>MOLECULE
tmp/3ldxB00.pdb
 214 215 0 0 0
SMALL
GASTEIGER

@<TRIPOS>ATOM
      1  N         22.3400   -7.0000   18.7160 N.3    43  HIS43      -0.1241
      2  CA        22.1690   -8.3650   18.2870 C.3    43  HIS43       0.1621
      3  C         21.4250   -8.4460   16.9370 C.2    43  HIS43       0.2264
      4  O         21.4750   -9.4750   16.2750 O.2    43  HIS43      -0.2867
      5  CB        21.5340   -9.2240   19.3840 C.3    43  HIS43       0.0745
      6  CG        20.0410   -9.2060   19.3940 C.ar   43  HIS43       0.0817
      7  ND1       19.3120   -8.4470   20.2870 N.ar   43  HIS43      -0.2268
      8  CD2       19.1370   -9.8860   18.6460 C.ar   43  HIS43       0.1154
      9  CE1       18.0210   -8.6660   20.0900 C.ar   43  HIS43       0.1986
     10  NE2       17.8910   -9.5260   19.0940 N.ar   43  HIS43      -0.2212
     11  N         25.7280  -11.0980   15.7400 N.3    47  TYR47      -0.1241
     12  CA        25.5040  -12.2280   16.6230 C.3    47  TYR47       0.1605
     13  C         26.1350  -13.4810   16.0360 C.2    47  TYR47       0.2264
     14  O         25.4550  -14.3150   15.4440 O.2    47  TYR47      -0.2867
     15  CB        24.0200  -12.4400   16.9110 C.3    47  TYR47       0.0534
     16  CG        23.8080  -13.3620   18.0740 C.ar   47  TYR47      -0.0201
     17  CD1       24.2760  -13.0150   19.3410 C.ar   47  TYR47      -0.0009
     18  CD2       23.1770  -14.5960   17.9150 C.ar   47  TYR47      -0.0009
     19  CE1       24.1180  -13.8690   20.4310 C.ar   47  TYR47       0.0417
     20  CE2       23.0060  -15.4520   19.0040 C.ar   47  TYR47       0.0417
     21  CZ        23.4880  -15.0760   20.2560 C.ar   47  TYR47       0.1957
     22  OH        23.3450  -15.9020   21.3370 O.3    47  TYR47      -0.2866
     23  N         24.9680  -17.1920   15.5660 N.3    50  TRP50      -0.1241
     24  CA        24.0680  -17.5310   14.4560 C.3    50  TRP50       0.1605
     25  C         24.6270  -17.0600   13.1190 C.2    50  TRP50       0.2264
     26  O         23.8810  -16.8990   12.1620 O.2    50  TRP50      -0.2867
     27  CB        22.6690  -16.9360   14.6570 C.3    50  TRP50       0.0550
     28  CG        21.9390  -17.4500   15.8850 C.ar   50  TRP50       0.0003
     29  CD1       22.2830  -18.5280   16.6570 C.ar   50  TRP50       0.0946
     30  CD2       20.7420  -16.9060   16.4670 C.ar   50  TRP50       0.0152
     31  NE1       21.3750  -18.6840   17.6850 N.ar   50  TRP50      -0.2442
     32  CE2       20.4190  -17.7060   17.5870 C.ar   50  TRP50       0.0810
     33  CE3       19.9070  -15.8300   16.1450 C.ar   50  TRP50       0.0012
     34  CZ2       19.3010  -17.4540   18.3910 C.ar   50  TRP50       0.0191
     35  CZ3       18.7990  -15.5860   16.9390 C.ar   50  TRP50       0.0001
     36  CH2       18.5060  -16.3950   18.0520 C.ar   50  TRP50       0.0015
     37  N         25.5040  -14.2080   12.2700 N.3    52  LYS52      -0.1245
     38  CA        24.9130  -12.9380   11.8720 C.3    52  LYS52       0.1561
     39  C         25.9770  -11.8530   11.9830 C.2    52  LYS52       0.2260
     40  O         26.5620  -11.6590   13.0460 O.2    52  LYS52      -0.2867
     41  CB        23.6900  -12.6220   12.7340 C.3    52  LYS52       0.0271
     42  CG        22.7660  -11.5550   12.1240 C.3    52  LYS52       0.0035
     43  CD        21.7840  -10.9790   13.1430 C.3    52  LYS52       0.0206
     44  CE        20.5130  -11.8150   13.2450 C.3    52  LYS52       0.1093
     45  NZ        19.7700  -11.4120   14.4840 N.3    52  LYS52      -0.1314
     46  N         27.9970  -10.3210   23.3710 N.3    92  TRP92      -0.1227
     47  CA        27.2350  -11.3260   22.6390 C.3    92  TRP92       0.1737
     48  C         27.5910  -12.7470   23.0690 C.2    92  TRP92       0.2595
     49  O         26.8920  -13.6900   22.7120 O.2    92  TRP92      -0.2718
     50  CB        27.4450  -11.1830   21.1200 C.3    92  TRP92       0.0564
     51  CG        28.9050  -11.2040   20.6680 C.ar   92  TRP92       0.0003
     52  CD1       29.7030  -10.1090   20.3820 C.ar   92  TRP92       0.0946
     53  CD2       29.7270  -12.3650   20.4450 C.ar   92  TRP92       0.0152
     54  NE1       30.9650  -10.5310   20.0080 N.ar   92  TRP92      -0.2442
     55  CE2       31.0020  -11.9050   20.0290 C.ar   92  TRP92       0.0810
     56  CE3       29.5070  -13.7430   20.5460 C.ar   92  TRP92       0.0012
     57  CZ2       32.0520  -12.7800   19.7290 C.ar   92  TRP92       0.0191
     58  CZ3       30.5490  -14.6180   20.2290 C.ar   92  TRP92       0.0001
     59  CH2       31.8060  -14.1340   19.8390 C.ar   92  TRP92       0.0015
     60  N         28.6730  -12.9020   23.8240 N.am   93  ARG93      -0.1966
     61  CA        29.1320  -14.2310   24.2340 C.3    93  ARG93       0.1729
     62  C         28.2850  -14.8030   25.3360 C.2    93  ARG93       0.2616
     63  O         28.1170  -16.0090   25.4300 O.2    93  ARG93      -0.2715
     64  CB        30.5830  -14.2030   24.7230 C.3    93  ARG93       0.0348
     65  CG        31.5650  -13.8060   23.6580 C.3    93  ARG93       0.0492
     66  CD        32.9610  -14.0120   24.1290 C.3    93  ARG93       0.2205
     67  NE        33.8410  -14.1130   22.9750 N.pl3  93  ARG93      -0.0865
     68  CZ        34.2150  -15.2660   22.4280 C.cat  93  ARG93       0.5346
     69  NH1       35.0160  -15.2530   21.3640 N.pl3  93  ARG93       0.1354
     70  NH2       33.7960  -16.4270   22.9480 N.pl3  93  ARG93       0.1354
     71  N         27.7460  -13.9410   26.1820 N.am   94  GLU94      -0.1963
     72  CA        27.1460  -14.4360   27.4020 C.3    94  GLU94       0.1733
     73  C         25.6520  -14.1130   27.5900 C.2    94  GLU94       0.2616
     74  O         24.8040  -15.0170   27.5450 O.2    94  GLU94      -0.2715
     75  CB        27.9460  -13.9190   28.5820 C.3    94  GLU94       0.0429
     76  CG        27.6070  -14.5920   29.8610 C.3    94  GLU94       0.1163
     77  CD        28.2300  -13.8970   31.0550 C.2    94  GLU94       0.3649
     78  OE1       29.2210  -13.1330   30.8600 O.co2  94  GLU94      -0.2457
     79  OE2       27.7240  -14.1280   32.1830 O.co2  94  GLU94      -0.2457
     80  N         25.3350  -12.8380   27.8170 N.am   95  ASN95      -0.1958
     81  CA        23.9860  -12.4430   28.2330 C.3    95  ASN95       0.1819
     82  C         23.4240  -11.2550   27.4510 C.2    95  ASN95       0.2621
     83  O         22.4440  -10.6590   27.8700 O.2    95  ASN95      -0.2715
     84  CB        23.9870  -12.1070   29.7310 C.3    95  ASN95       0.1195
     85  CG        25.0770  -11.1000   30.0920 C.2    95  ASN95       0.2630
     86  OD1       25.7670  -10.5750   29.2140 O.2    95  ASN95      -0.2716
     87  ND2       25.2390  -10.8270   31.3790 N.am   95  ASN95      -0.0877
     88  N         24.0480  -10.9000   26.3330 N.am   96  LEU96      -0.1977
     89  CA        23.6170   -9.7350   25.5470 C.3    96  LEU96       0.1596
     90  C         23.7160   -8.4210   26.3440 C.2    96  LEU96       0.2287
     91  O         23.0470   -7.4290   26.0380 O.2    96  LEU96      -0.2864
     92  CB        22.1940   -9.9210   24.9660 C.3    96  LEU96       0.0297
     93  CG        22.0400  -11.0110   23.8870 C.3    96  LEU96       0.0022
     94  CD1       20.6950  -10.9390   23.1070 C.3    96  LEU96       0.0001
     95  CD2       23.2060  -10.9590   22.9090 C.3    96  LEU96       0.0001
     96  N         20.1560  -16.8960   33.2160 N.3   171  ILE171     -0.1245
     97  CA        20.9870  -15.8510   32.6260 C.3   171  ILE171      0.1561
     98  C         21.4010  -14.8180   33.6610 C.2   171  ILE171      0.2260
     99  O         20.5610  -14.3390   34.4260 O.2   171  ILE171     -0.2867
    100  CB        20.2320  -15.1010   31.4940 C.3   171  ILE171      0.0252
    101  CG1       19.8560  -16.0700   30.3730 C.3   171  ILE171      0.0019
    102  CG2       21.0650  -13.9480   30.9710 C.3   171  ILE171      0.0019
    103  CD1       20.9970  -16.9580   29.9400 C.3   171  ILE171      0.0001
    104  N          4.1010  -10.1150   25.2520 N.3   191  ASP191     -0.1225
    105  CA         5.5440  -10.0600   25.2220 C.3   191  ASP191      0.1805
    106  C          5.9500   -9.6460   23.8030 C.2   191  ASP191      0.2598
    107  O          5.1290   -9.6840   22.8760 O.2   191  ASP191     -0.2718
    108  CB         6.0730  -11.4490   25.5880 C.3   191  ASP191      0.1424
    109  CG         7.5630  -11.4850   25.7740 C.2   191  ASP191      0.3668
    110  OD1        8.1970  -10.4130   25.7560 O.co2 191  ASP191     -0.2456
    111  OD2        8.1050  -12.6020   25.9270 O.co2 191  ASP191     -0.2456
    112  N          7.1970   -9.2210   23.6390 N.am  192  ALA192     -0.1966
    113  CA         7.7990   -9.1430   22.3230 C.3   192  ALA192      0.1728
    114  C          8.1980  -10.5680   21.8940 C.2   192  ALA192      0.2616
    115  O          8.0950  -11.5210   22.6590 O.2   192  ALA192     -0.2715
    116  CB         9.0080   -8.2180   22.3470 C.3   192  ALA192      0.0334
    117  N          8.6580  -10.7160   20.6680 N.am  193  CYS193     -0.1954
    118  CA         9.0520  -12.0190   20.1870 C.3   193  CYS193      0.1843
    119  C         10.0330  -11.7940   19.0370 C.2   193  CYS193      0.2625
    120  O         10.4980  -10.6640   18.8190 O.2   193  CYS193     -0.2714
    121  CB         7.8140  -12.7850   19.7300 C.3   193  CYS193      0.0997
    122  SG         7.9850  -14.6150   19.6970 S.3   193  CYS193     -0.0797
    123  N         10.3530  -12.8640   18.3210 N.am  194  GLU194     -0.1977
    124  CA        11.2710  -12.8030   17.2000 C.3   194  GLU194      0.1602
    125  C         10.8140  -11.7600   16.1970 C.2   194  GLU194      0.2287
    126  O          9.6150  -11.6330   15.9450 O.2   194  GLU194     -0.2864
    127  CB        11.3410  -14.1770   16.5230 C.3   194  GLU194      0.0415
    128  CG        12.1720  -14.2040   15.2410 C.3   194  GLU194      0.1163
    129  CD        12.7440  -15.5890   14.9090 C.2   194  GLU194      0.3649
    130  OE1       12.6390  -16.5140   15.7580 O.co2 194  GLU194     -0.2457
    131  OE2       13.3130  -15.7370   13.7970 O.co2 194  GLU194     -0.2457
    132  N         12.9180   -7.6120   18.0660 N.3   197  SER197     -0.1217
    133  CA        14.2380   -7.1480   18.4880 C.3   197  SER197      0.1889
    134  C         14.5940   -5.7520   17.9300 C.2   197  SER197      0.2288
    135  O         14.3390   -5.4530   16.7570 O.2   197  SER197     -0.2866
    136  CB        15.3320   -8.1500   18.0700 C.3   197  SER197      0.2089
    137  OG        15.2040   -9.3990   18.7280 O.3   197  SER197     -0.2183
    138  N         13.9480   -3.5020   22.8220 N.3   217  VAL217     -0.1231
    139  CA        13.6480   -4.9290   22.8440 C.3   217  VAL217      0.1692
    140  C         14.9200   -5.7710   22.6860 C.2   217  VAL217      0.2593
    141  O         15.5950   -5.7240   21.6590 O.2   217  VAL217     -0.2718
    142  CB        12.5940   -5.3170   21.7600 C.3   217  VAL217      0.0266
    143  CG1       12.3030   -6.8610   21.7950 C.3   217  VAL217      0.0020
    144  CG2       11.3220   -4.5270   21.9660 C.3   217  VAL217      0.0020
    145  N         15.2670   -6.5340   23.7100 N.am  218  SER218     -0.1938
    146  CA        16.5330   -7.2420   23.6480 C.3   218  SER218      0.2055
    147  C         16.3310   -8.7450   23.5210 C.2   218  SER218      0.2643
    148  O         16.4790   -9.2980   22.4390 O.2   218  SER218     -0.2714
    149  CB        17.4520   -6.8850   24.8210 C.3   218  SER218      0.2130
    150  OG        18.7490   -7.4640   24.6540 O.3   218  SER218     -0.2179
    151  N         15.9600   -9.4000   24.6090 N.am  219  TRP219     -0.1959
    152  CA        15.9660  -10.8580   24.6250 C.3   219  TRP219      0.1771
    153  C         14.9360  -11.4480   25.5550 C.2   219  TRP219      0.2620
    154  O         14.3680  -10.7710   26.4010 O.2   219  TRP219     -0.2715
    155  CB        17.3710  -11.3870   24.9680 C.3   219  TRP219      0.0590
    156  CG        17.8500  -11.0190   26.3500 C.ar  219  TRP219      0.0006
    157  CD1       18.5750   -9.9150   26.6990 C.ar  219  TRP219      0.0946
    158  CD2       17.6700  -11.7770   27.5600 C.ar  219  TRP219      0.0152
    159  NE1       18.8520   -9.9310   28.0550 N.ar  219  TRP219     -0.2442
    160  CE2       18.3060  -11.0640   28.6030 C.ar  219  TRP219      0.0810
    161  CE3       17.0200  -12.9800   27.8640 C.ar  219  TRP219      0.0012
    162  CZ2       18.3140  -11.5220   29.9340 C.ar  219  TRP219      0.0191
    163  CZ3       17.0190  -13.4280   29.1940 C.ar  219  TRP219      0.0001
    164  CH2       17.6580  -12.6950   30.2050 C.ar  219  TRP219      0.0015
    165  N         14.6890  -12.7330   25.3700 N.am  220  GLY220     -0.1940
    166  CA        13.7420  -13.4690   26.1820 C.3   220  GLY220      0.2014
    167  C         13.9330  -14.9630   25.9620 C.2   220  GLY220      0.2639
    168  O         14.6690  -15.3940   25.0670 O.2   220  GLY220     -0.2714
    169  N         13.3050  -15.7630   26.8070 N.am  221  GLU221     -0.1963
    170  CA        13.3080  -17.2030   26.6170 C.3   221  GLU221      0.1733
    171  C         11.9330  -17.5490   26.0840 C.2   221  GLU221      0.2617
    172  O         10.9330  -17.4670   26.8050 O.2   221  GLU221     -0.2715
    173  CB        13.5980  -17.9190   27.9330 C.3   221  GLU221      0.0429
    174  CG        14.9240  -17.4680   28.5460 C.3   221  GLU221      0.1163
    175  CD        15.0780  -17.8260   30.0320 C.2   221  GLU221      0.3649
    176  OE1       15.0200  -16.9110   30.8940 O.co2 221  GLU221     -0.2457
    177  OE2       15.2660  -19.0160   30.3370 O.co2 221  GLU221     -0.2457
    178  N         11.8830  -17.9060   24.8080 N.am  222  GLY222     -0.1940
    179  CA        10.6150  -18.0830   24.1340 C.3   222  GLY222      0.2014
    180  C          9.9300  -16.7320   24.0850 C.2   222  GLY222      0.2639
    181  O         10.5990  -15.6880   24.1010 O.2   222  GLY222     -0.2714
    182  N          8.6060  -16.7500   24.0300 N.am  223  CYS223     -0.1967
    183  CA         7.8310  -15.5360   23.9670 C.3   223  CYS223      0.1712
    184  C          6.5560  -15.7670   24.7210 C.2   223  CYS223      0.2296
    185  O          5.7840  -16.6590   24.3920 O.2   223  CYS223     -0.2864
    186  CB         7.4860  -15.1700   22.5230 C.3   223  CYS223      0.0983
    187  SG         8.8700  -15.2000   21.4170 S.3   223  CYS223     -0.0798
    188  N         10.1860  -10.3820   29.3680 N.3   230  GLY230     -0.1210
    189  CA        10.9750   -9.7790   28.3220 C.3   230  GLY230      0.1956
    190  C         12.0920   -8.9530   28.9420 C.2   230  GLY230      0.2612
    191  O         11.9020   -8.3130   29.9760 O.2   230  GLY230     -0.2717
    192  N         13.2710   -8.9950   28.3370 N.am  231  PHE231     -0.1962
    193  CA        14.3470   -8.1080   28.7570 C.3   231  PHE231      0.1771
    194  C         14.6180   -7.0060   27.7340 C.2   231  PHE231      0.2619
    195  O         14.5150   -7.2060   26.5080 O.2   231  PHE231     -0.2715
    196  CB        15.6280   -8.8770   29.1080 C.3   231  PHE231      0.0574
    197  CG        15.5420   -9.6120   30.4090 C.ar  231  PHE231     -0.0200
    198  CD1       14.8780  -10.8300   30.4910 C.ar  231  PHE231     -0.0042
    199  CD2       16.1180   -9.0870   31.5630 C.ar  231  PHE231     -0.0042
    200  CE1       14.7890  -11.5120   31.7020 C.ar  231  PHE231     -0.0003
    201  CE2       16.0270   -9.7540   32.7710 C.ar  231  PHE231     -0.0003
    202  CZ        15.3720  -10.9720   32.8370 C.ar  231  PHE231     -0.0000
    203  N         14.9730   -5.8380   28.2640 N.am  232  TYR232     -0.1974
    204  CA        15.1220   -4.6400   27.4710 C.3   232  TYR232      0.1639
    205  C         16.4560   -3.9770   27.7870 C.2   232  TYR232      0.2290
    206  O         16.8580   -3.9130   28.9460 O.2   232  TYR232     -0.2864
    207  CB        13.9340   -3.7100   27.7990 C.3   232  TYR232      0.0560
    208  CG        12.6280   -4.3490   27.3940 C.ar  232  TYR232     -0.0198
    209  CD1       11.9580   -5.2490   28.2330 C.ar  232  TYR232     -0.0009
    210  CD2       12.1060   -4.1200   26.1420 C.ar  232  TYR232     -0.0009
    211  CE1       10.7910   -5.8540   27.8390 C.ar  232  TYR232      0.0417
    212  CE2       10.9590   -4.7150   25.7480 C.ar  232  TYR232      0.0417
    213  CZ        10.3000   -5.5840   26.5800 C.ar  232  TYR232      0.1957
    214  OH         9.1420   -6.1460   26.0850 O.3   232  TYR232     -0.2866
@<TRIPOS>BOND
     1    38    39    1
     2    38    37    1
     3    38    41    1
     4    39    40    2
     5    42    41    1
     6    42    43    1
     7    26    25    2
     8    25    24    1
     9    43    44    1
    10    44    45    1
    11   131   129   ar
    12    24    27    1
    13    24    23    1
    14    27    28    1
    15   129   128    1
    16   129   130   ar
    17   128   127    1
    18    14    13    2
    19    11    12    1
    20    28    30   ar
    21    28    29   ar
    22   126   125    2
    23    13    12    1
    24    33    30   ar
    25    33    35   ar
    26   125   124    1
    27     4     3    2
    28    30    32   ar
    29   127   124    1
    30    12    15    1
    31    29    31   ar
    32   135   134    2
    33    15    16    1
    34     3     2    1
    35    35    36   ar
    36   124   123    1
    37    32    31   ar
    38    32    34   ar
    39    18    16   ar
    40    18    20   ar
    41   134   133    1
    42    36    34   ar
    43   132   133    1
    44   136   133    1
    45   136   137    1
    46    16    17   ar
    47     2     1    1
    48     2     5    1
    49   123   119   am
    50     8    10   ar
    51     8     6   ar
    52   120   119    2
    53    20    21   ar
    54   119   118    1
    55    10     9   ar
    56    17    19   ar
    57     5     6    1
    58     6     7   ar
    59   122   121    1
    60   122   187    1
    61    57    59   ar
    62    57    55   ar
    63   121   118    1
    64    59    58   ar
    65    54    55   ar
    66    54    52   ar
    67    55    53   ar
    68     9     7   ar
    69   118   117    1
    70    58    56   ar
    71    21    19   ar
    72    21    22    1
    73    52    51   ar
    74    53    56   ar
    75    53    51   ar
    76   117   114   am
    77    51    50    1
    78    50    47    1
    79    69    68    1
    80   187   186    1
    81   141   140    2
    82   142   143    1
    83   142   144    1
    84   142   139    1
    85   114   113    1
    86   114   115    2
    87   113   116    1
    88   113   112    1
    89    68    70    1
    90    68    67    2
    91   148   147    2
    92   186   183    1
    93    47    48    1
    94    47    46    1
    95   140   139    1
    96   140   145   am
    97    49    48    2
    98   138   139    1
    99   107   106    2
   100    95    93    1
   101    67    66    1
   102    48    60   am
   103    94    93    1
   104   147   146    1
   105   147   151   am
   106   112   106   am
   107   146   145    1
   108   146   149    1
   109    65    66    1
   110    65    64    1
   111   106   105    1
   112    60    61    1
   113    93    92    1
   114   183   182    1
   115   183   184    1
   116   182   180   am
   117   180   181    2
   118   180   179    1
   119   179   178    1
   120    61    64    1
   121    61    62    1
   122   185   184    2
   123   151   152    1
   124   152   155    1
   125   152   153    1
   126   150   149    1
   127   178   171   am
   128    92    89    1
   129   155   156    1
   130   168   167    2
   131   105   104    1
   132   105   108    1
   133    62    63    2
   134    62    71   am
   135   165   153   am
   136   165   166    1
   137    89    88    1
   138    89    90    1
   139   153   154    2
   140   108   109    1
   141   212   210   ar
   142   212   213   ar
   143   110   109   ar
   144   109   111   ar
   145   167   166    1
   146   167   169   am
   147    91    90    2
   148   171   170    1
   149   171   172    2
   150   214   213    1
   151   210   208   ar
   152    71    72    1
   153    88    82   am
   154   156   157   ar
   155   156   158   ar
   156   195   194    2
   157   213   211   ar
   158   170   169    1
   159   170   173    1
   160   157   159   ar
   161   208   207    1
   162   208   209   ar
   163    72    73    1
   164    72    75    1
   165    82    83    2
   166    82    81    1
   167   204   205    1
   168   204   207    1
   169   204   203    1
   170    74    73    2
   171   158   161   ar
   172   158   160   ar
   173    73    80   am
   174   194   203   am
   175   194   193    1
   176   205   206    2
   177    80    81    1
   178   211   209   ar
   179   161   163   ar
   180   173   174    1
   181   159   160   ar
   182    81    84    1
   183   189   190    1
   184   189   188    1
   185   192   193    1
   186   192   190   am
   187   174   175    1
   188    75    76    1
   189   160   162   ar
   190   193   196    1
   191   190   191    2
   192   196   197    1
   193   163   164   ar
   194    86    85    2
   195    84    85    1
   196    76    77    1
   197   162   164   ar
   198   103   101    1
   199   175   177   ar
   200   175   176   ar
   201    85    87   am
   202   101   100    1
   203   197   198   ar
   204   197   199   ar
   205   198   200   ar
   206    78    77   ar
   207   102   100    1
   208    77    79   ar
   209   100    97    1
   210   199   201   ar
   211   200   202   ar
   212    97    96    1
   213    97    98    1
   214   201   202   ar
   215    98    99    2
