@<TRIPOS>MOLECULE
tmp/3le6A00.pdb
 166 159 0 0 0
SMALL
GASTEIGER

@<TRIPOS>ATOM
      1  N         -0.1780   22.9180    2.6840 N.3    10  ILE10      -0.1231
      2  CA         1.0040   23.1600    3.4950 C.3    10  ILE10       0.1696
      3  C          0.8280   22.7020    4.9320 C.2    10  ILE10       0.2632
      4  O          1.7600   22.7780    5.7300 O.2    10  ILE10      -0.2714
      5  CB         1.4070   24.6550    3.4920 C.3    10  ILE10       0.0266
      6  CG1        0.2330   25.5230    3.9410 C.3    10  ILE10       0.0019
      7  CG2        1.8740   25.0650    2.1070 C.3    10  ILE10       0.0020
      8  CD1        0.5300   27.0070    3.8830 C.3    10  ILE10       0.0001
      9  N         -0.3660   22.2270    5.2680 N.am   11  GLY11      -0.1718
     10  CA        -0.5670   21.6890    6.5980 C.2    11  GLY11       0.1480
     11  C         -2.0100   21.4930    7.0080 C.2    11  GLY11       0.2820
     12  O         -2.9380   21.7310    6.2340 O.2    11  GLY11      -0.2669
     13  N         -2.1910   21.0490    8.2450 N.am   12  GLU12      -0.1929
     14  CA        -3.5130   20.8860    8.8160 C.3    12  GLU12       0.1736
     15  C         -3.5930   21.6520   10.1260 C.2    12  GLU12       0.2617
     16  O         -2.8630   21.3610   11.0750 O.2    12  GLU12      -0.2715
     17  CB        -3.7950   19.4050    9.0520 C.3    12  GLU12       0.0429
     18  CG        -3.5870   18.5560    7.8100 C.3    12  GLU12       0.1163
     19  CD        -3.9550   17.1050    8.0280 C.2    12  GLU12       0.3649
     20  OE1       -3.5180   16.5240    9.0440 O.co2  12  GLU12      -0.2457
     21  OE2       -4.6820   16.5460    7.1820 O.co2  12  GLU12      -0.2457
     22  N         -4.4760   22.6440   10.1630 N.am   13  GLY13      -0.1955
     23  CA        -4.6790   23.4010   11.3800 C.3    13  GLY13       0.1869
     24  C         -5.5520   22.6120   12.3310 C.2    13  GLY13       0.2309
     25  O         -5.8630   21.4470   12.0770 O.2    13  GLY13      -0.2863
     26  N         -4.9090   23.8710    5.5230 N.3    18  VAL18      -0.1245
     27  CA        -4.3270   25.1180    5.0540 C.3    18  VAL18       0.1561
     28  C         -3.5860   24.8920    3.7480 C.2    18  VAL18       0.2260
     29  O         -2.7540   23.9880    3.6390 O.2    18  VAL18      -0.2867
     30  CB        -3.3490   25.7050    6.0840 C.3    18  VAL18       0.0252
     31  CG1       -2.8040   27.0430    5.5800 C.3    18  VAL18       0.0019
     32  CG2       -4.0520   25.8770    7.4240 C.3    18  VAL18       0.0019
     33  N         -1.9030   32.2420    2.3540 N.3    31  ALA31      -0.1245
     34  CA        -2.2700   30.9780    2.9750 C.3    31  ALA31       0.1562
     35  C         -3.7800   30.9580    3.1280 C.2    31  ALA31       0.2260
     36  O         -4.3760   31.9170    3.6130 O.2    31  ALA31      -0.2867
     37  CB        -1.6050   30.8450    4.3320 C.3    31  ALA31       0.0290
     38  N         -6.9480   29.0200    4.7320 N.3    33  LYS33      -0.1245
     39  CA        -7.4430   28.0230    5.6780 C.3    33  LYS33       0.1561
     40  C         -8.9190   27.7680    5.4210 C.2    33  LYS33       0.2260
     41  O         -9.7280   28.6950    5.4160 O.2    33  LYS33      -0.2867
     42  CB        -7.2510   28.4910    7.1310 C.3    33  LYS33       0.0271
     43  CG        -7.7500   27.4900    8.1840 C.3    33  LYS33       0.0035
     44  CD        -7.7620   28.0880    9.5930 C.3    33  LYS33       0.0206
     45  CE        -6.7410   27.4230   10.5230 C.3    33  LYS33       0.1093
     46  NZ        -7.1120   26.0230   10.9180 N.3    33  LYS33      -0.1314
     47  N          0.3150   37.3030   12.2750 N.3    55  VAL55      -0.1245
     48  CA         0.0290   36.9160   10.9000 C.3    55  VAL55       0.1561
     49  C         -1.2230   37.6450   10.4290 C.2    55  VAL55       0.2260
     50  O         -2.2740   37.5720   11.0650 O.2    55  VAL55      -0.2867
     51  CB        -0.1720   35.3830   10.7790 C.3    55  VAL55       0.0252
     52  CG1       -0.6370   35.0250    9.3790 C.3    55  VAL55       0.0019
     53  CG2        1.1380   34.6650   11.0850 C.3    55  VAL55       0.0019
     54  N         -4.9320   34.3380    4.7730 N.3    69  PHE69      -0.1227
     55  CA        -3.8660   34.8500    5.6290 C.3    69  PHE69       0.1736
     56  C         -2.6390   35.2400    4.8110 C.2    69  PHE69       0.2595
     57  O         -2.3870   34.6830    3.7460 O.2    69  PHE69      -0.2718
     58  CB        -3.4270   33.7960    6.6580 C.3    69  PHE69       0.0547
     59  CG        -4.4500   33.4950    7.7220 C.ar   69  PHE69      -0.0202
     60  CD1       -4.7260   34.4160    8.7240 C.ar   69  PHE69      -0.0042
     61  CD2       -5.1030   32.2700    7.7470 C.ar   69  PHE69      -0.0042
     62  CE1       -5.6330   34.1200    9.7320 C.ar   69  PHE69      -0.0003
     63  CE2       -6.0110   31.9680    8.7540 C.ar   69  PHE69      -0.0003
     64  CZ        -6.2760   32.8930    9.7470 C.ar   69  PHE69      -0.0000
     65  N         -1.8830   36.1990    5.3360 N.am   70  GLU70      -0.1965
     66  CA        -0.4960   36.4180    4.9400 C.3    70  GLU70       0.1733
     67  C          0.2480   35.0810    4.9270 C.2    70  GLU70       0.2616
     68  O          0.0510   34.2480    5.8080 O.2    70  GLU70      -0.2715
     69  CB         0.1660   37.3790    5.9370 C.3    70  GLU70       0.0429
     70  CG         1.6820   37.4690    5.8390 C.3    70  GLU70       0.1163
     71  CD         2.2860   38.2890    6.9670 C.2    70  GLU70       0.3649
     72  OE1        1.5830   38.5460    7.9680 O.co2  70  GLU70      -0.2457
     73  OE2        3.4670   38.6760    6.8560 O.co2  70  GLU70      -0.2457
     74  N          1.0990   34.8800    3.9260 N.am   71  PHE71      -0.1960
     75  CA         1.8590   33.6400    3.7980 C.3    71  PHE71       0.1771
     76  C          3.3040   33.7910    4.2670 C.2    71  PHE71       0.2619
     77  O          3.9920   34.7370    3.8920 O.2    71  PHE71      -0.2715
     78  CB         1.8490   33.1630    2.3410 C.3    71  PHE71       0.0574
     79  CG         2.7170   31.9620    2.0920 C.ar   71  PHE71      -0.0200
     80  CD1        4.0360   32.1140    1.7010 C.ar   71  PHE71      -0.0042
     81  CD2        2.2180   30.6790    2.2700 C.ar   71  PHE71      -0.0042
     82  CE1        4.8470   31.0120    1.4950 C.ar   71  PHE71      -0.0003
     83  CE2        3.0220   29.5740    2.0660 C.ar   71  PHE71      -0.0003
     84  CZ         4.3370   29.7390    1.6780 C.ar   71  PHE71      -0.0000
     85  N          3.7610   32.8560    5.0930 N.am   72  LEU72      -0.1963
     86  CA         5.1870   32.7470    5.3900 C.3    72  LEU72       0.1728
     87  C          5.6180   31.3150    5.1170 C.2    72  LEU72       0.2616
     88  O          4.8090   30.3930    5.1930 O.2    72  LEU72      -0.2715
     89  CB         5.4840   33.1150    6.8480 C.3    72  LEU72       0.0311
     90  CG         5.3810   34.5890    7.2500 C.3    72  LEU72       0.0022
     91  CD1        3.9160   34.9470    7.4710 C.3    72  LEU72       0.0001
     92  CD2        6.1910   34.8390    8.5300 C.3    72  LEU72       0.0001
     93  N          6.8930   31.1310    4.8010 N.am   73  HIS73      -0.1959
     94  CA         7.3580   29.8590    4.2690 C.3    73  HIS73       0.1787
     95  C          7.5600   28.7640    5.3070 C.2    73  HIS73       0.2620
     96  O          7.3690   27.5850    5.0040 O.2    73  HIS73      -0.2715
     97  CB         8.6560   30.0670    3.4820 C.3    73  HIS73       0.0785
     98  CG         8.4550   30.7210    2.1490 C.ar   73  HIS73       0.0821
     99  ND1        8.4310   32.0900    1.9850 N.ar   73  HIS73      -0.2267
    100  CD2        8.2750   30.1920    0.9160 C.ar   73  HIS73       0.1154
    101  CE1        8.2440   32.3760    0.7090 C.ar   73  HIS73       0.1986
    102  NE2        8.1460   31.2420    0.0380 N.ar   73  HIS73      -0.2212
    103  N          7.9470   29.1310    6.5250 N.am   74  GLN74      -0.1963
    104  CA         8.3160   28.1120    7.5040 C.3    74  GLN74       0.1733
    105  C          7.7470   28.3420    8.8980 C.2    74  GLN74       0.2616
    106  O          7.5390   29.4800    9.3170 O.2    74  GLN74      -0.2715
    107  CB         9.8380   27.9930    7.5880 C.3    74  GLN74       0.0408
    108  CG        10.3110   26.8330    8.4590 C.3    74  GLN74       0.0908
    109  CD        11.7200   26.3910    8.1220 C.2    74  GLN74       0.2608
    110  OE1       12.2780   26.7830    7.0940 O.2    74  GLN74      -0.2717
    111  NE2       12.3050   25.5670    8.9840 N.am   74  GLN74      -0.0878
    112  N          7.4930   27.2460    9.6090 N.am   75  ASP75      -0.1971
    113  CA         7.0220   27.3220   10.9860 C.3    75  ASP75       0.1709
    114  C          8.1780   27.0440   11.9420 C.2    75  ASP75       0.2293
    115  O          9.2130   26.5090   11.5370 O.2    75  ASP75      -0.2864
    116  CB         5.8810   26.3230   11.2180 C.3    75  ASP75       0.1436
    117  CG         6.3580   24.8830   11.2410 C.2    75  ASP75       0.3671
    118  OD1        6.7420   24.3560   10.1760 O.co2  75  ASP75      -0.2456
    119  OD2        6.3460   24.2770   12.3260 O.co2  75  ASP75      -0.2456
    120  N          9.3940   23.1760   12.7850 N.3    78  LYS78      -0.1245
    121  CA        10.2930   22.5800   11.8120 C.3    78  LYS78       0.1561
    122  C         11.6950   23.1570   11.9750 C.2    78  LYS78       0.2260
    123  O         12.6880   22.4350   11.8890 O.2    78  LYS78      -0.2867
    124  CB         9.7750   22.8420   10.3980 C.3    78  LYS78       0.0271
    125  CG        10.5970   22.1910    9.2990 C.3    78  LYS78       0.0035
    126  CD         9.9960   22.4680    7.9240 C.3    78  LYS78       0.0206
    127  CE        10.8300   21.8430    6.8090 C.3    78  LYS78       0.1093
    128  NZ        10.7300   20.3530    6.7870 N.3    78  LYS78      -0.1314
    129  N          4.1160   25.1670   16.4700 N.3   120  GLN120     -0.1231
    130  CA         3.5160   24.8850   15.1700 C.3   120  GLN120      0.1698
    131  C          2.7070   26.0440   14.6000 C.2   120  GLN120      0.2592
    132  O          2.4690   26.0870   13.3940 O.2   120  GLN120     -0.2718
    133  CB         2.6320   23.6370   15.2410 C.3   120  GLN120      0.0381
    134  CG         3.3540   22.4040   15.7550 C.3   120  GLN120      0.0905
    135  CD         3.0690   22.1380   17.2240 C.2   120  GLN120      0.2608
    136  OE1        3.6710   22.7520   18.1090 O.2   120  GLN120     -0.2717
    137  NE2        2.1380   21.2200   17.4910 N.am  120  GLN120     -0.0878
    138  N          2.2800   26.9850   15.4390 N.am  121  ASN121     -0.1974
    139  CA         1.6480   28.1860   14.8970 C.3   121  ASN121      0.1688
    140  C          2.4550   29.4690   15.0850 C.2   121  ASN121      0.2292
    141  O          1.9070   30.5710   15.1250 O.2   121  ASN121     -0.2864
    142  CB         0.2160   28.3630   15.4330 C.3   121  ASN121      0.1181
    143  CG         0.1210   28.2330   16.9290 C.2   121  ASN121      0.2629
    144  OD1        1.0640   28.5460   17.6550 O.2   121  ASN121     -0.2716
    145  ND2       -1.0360   27.7680   17.4070 N.am  121  ASN121     -0.0877
    146  N          5.3730   31.3440   12.8870 N.3   123  LEU123     -0.1245
    147  CA         5.9170   31.3050   11.5340 C.3   123  LEU123      0.1561
    148  C          7.0790   32.2820   11.4030 C.2   123  LEU123      0.2260
    149  O          7.0600   33.3610   12.0000 O.2   123  LEU123     -0.2867
    150  CB         4.8280   31.6720   10.5260 C.3   123  LEU123      0.0270
    151  CG         3.5400   30.8450   10.6160 C.3   123  LEU123      0.0019
    152  CD1        2.4830   31.4470    9.7050 C.3   123  LEU123      0.0001
    153  CD2        3.8300   29.4010   10.2360 C.3   123  LEU123      0.0001
    154  N          0.4300   32.8160   14.4330 N.3   133  ALA133     -0.1231
    155  CA        -0.7440   32.4640   13.6380 C.3   133  ALA133      0.1694
    156  C         -1.8920   31.9750   14.5270 C.2   133  ALA133      0.2592
    157  O         -1.6750   31.5500   15.6660 O.2   133  ALA133     -0.2718
    158  CB        -0.3770   31.3880   12.6190 C.3   133  ALA133      0.0304
    159  N         -3.1110   32.0450   13.9960 N.am  134  ASP134     -0.1974
    160  CA        -4.3010   31.5390   14.6770 C.3   134  ASP134      0.1709
    161  C         -4.7080   32.3430   15.9040 C.2   134  ASP134      0.2293
    162  O         -5.5140   31.8780   16.7140 O.2   134  ASP134     -0.2864
    163  CB        -4.1060   30.0740   15.0830 C.3   134  ASP134      0.1436
    164  CG        -4.3480   29.1140   13.9350 C.2   134  ASP134      0.3671
    165  OD1       -4.7830   29.5720   12.8580 O.co2 134  ASP134     -0.2456
    166  OD2       -4.1100   27.9010   14.1090 O.co2 134  ASP134     -0.2456
@<TRIPOS>BOND
     1   102   101   ar
     2   102   100   ar
     3   101    99   ar
     4   100    98   ar
     5    82    84   ar
     6    82    80   ar
     7    84    83   ar
     8    80    79   ar
     9    99    98   ar
    10    83    81   ar
    11    79    81   ar
    12    79    78    1
    13     7     5    1
    14    98    97    1
    15    78    75    1
    16    33    34    1
    17     1     2    1
    18    34    35    1
    19    34    37    1
    20    35    36    2
    21    97    94    1
    22     5     2    1
    23     5     6    1
    24     2     3    1
    25    29    28    2
    26    57    56    2
    27    28    27    1
    28    75    74    1
    29    75    76    1
    30     8     6    1
    31    77    76    2
    32    74    67   am
    33    76    85   am
    34    94    93    1
    35    94    95    1
    36    38    39    1
    37    54    55    1
    38    93    87   am
    39    56    65   am
    40    56    55    1
    41    67    66    1
    42    67    68    2
    43     3     9    1
    44     3     4    2
    45    66    65    1
    46    66    69    1
    47    96    95    2
    48    27    26    1
    49    27    30    1
    50    85    86    1
    51    87    88    2
    52    87    86    1
    53     9    10    2
    54    95   103   am
    55    86    89    1
    56    41    40    2
    57    40    39    1
    58    31    30    1
    59    55    58    1
    60    39    42    1
    61    70    69    1
    62    70    71    1
    63    30    32    1
    64    12    11    2
    65   103   104    1
    66    10    11    1
    67    58    59    1
    68   128   127    1
    69   127   126    1
    70    89    90    1
    71    73    71   ar
    72    71    72   ar
    73    11    13   am
    74   110   109    2
    75    42    43    1
    76    21    19   ar
    77    90    91    1
    78    90    92    1
    79   104   107    1
    80   104   105    1
    81   107   108    1
    82    59    61   ar
    83    59    60   ar
    84    61    63   ar
    85    18    19    1
    86    18    17    1
    87   126   125    1
    88    19    20   ar
    89   109   108    1
    90   109   111   am
    91    43    44    1
    92    13    14    1
    93    60    62   ar
    94    63    64   ar
    95    14    17    1
    96    14    15    1
    97   105   106    2
    98   105   112   am
    99   125   124    1
   100    52    51    1
   101    44    45    1
   102   112   113    1
   103   152   151    1
   104    62    64   ar
   105    15    22   am
   106    15    16    2
   107    22    23    1
   108   118   117   ar
   109   153   151    1
   110   124   121    1
   111    49    48    1
   112    49    50    2
   113    45    46    1
   114   150   151    1
   115   150   147    1
   116    51    48    1
   117    51    53    1
   118    48    47    1
   119   113   116    1
   120   113   114    1
   121   116   117    1
   122   117   119   ar
   123    23    24    1
   124   148   147    1
   125   148   149    2
   126   147   146    1
   127   115   114    2
   128   121   122    1
   129   121   120    1
   130   123   122    2
   131    25    24    2
   132   158   155    1
   133   165   164   ar
   134   132   131    2
   135   155   154    1
   136   155   156    1
   137   164   166   ar
   138   164   163    1
   139   159   156   am
   140   159   160    1
   141   156   157    2
   142   131   130    1
   143   131   138   am
   144   160   163    1
   145   160   161    1
   146   139   140    1
   147   139   142    1
   148   139   138    1
   149   140   141    2
   150   130   133    1
   151   130   129    1
   152   133   134    1
   153   142   143    1
   154   134   135    1
   155   161   162    2
   156   143   145   am
   157   143   144    2
   158   135   137   am
   159   135   136    2
