@<TRIPOS>MOLECULE
tmp/3le7A00.pdb
 101 99 0 0 0
SMALL
GASTEIGER

@<TRIPOS>ATOM
      1  N         15.0200   18.9750   54.1700 N.3    43  ASN43      -0.1240
      2  CA        14.0900   18.6010   55.1720 C.3    43  ASN43       0.1653
      3  C         13.1130   17.5530   54.6190 C.2    43  ASN43       0.2266
      4  O         12.0190   17.4190   55.1450 O.2    43  ASN43      -0.2867
      5  CB        13.3240   19.8160   55.5860 C.3    43  ASN43       0.1155
      6  CG        12.7160   20.5270   54.4340 C.2    43  ASN43       0.2627
      7  OD1       12.7550   20.0000   53.2750 O.2    43  ASN43      -0.2716
      8  ND2       12.0170   21.6480   54.6840 N.am   43  ASN43      -0.0877
      9  N         18.4160   18.3960   58.6890 N.3    69  ASN69      -0.1225
     10  CA        18.4590   19.3350   57.6320 C.3    69  ASN69       0.1785
     11  C         19.2710   20.5330   58.0110 C.2    69  ASN69       0.2597
     12  O         19.9700   21.0980   57.1920 O.2    69  ASN69      -0.2718
     13  CB        17.0680   19.8060   57.3470 C.3    69  ASN69       0.1169
     14  CG        17.0690   21.0010   56.5220 C.2    69  ASN69       0.2627
     15  OD1       17.4230   20.9240   55.3320 O.2    69  ASN69      -0.2716
     16  ND2       16.6960   22.1180   57.1030 N.am   69  ASN69      -0.0877
     17  N         19.2320   20.9450   59.2690 N.am   70  ASN70      -0.1974
     18  CA        19.9610   22.1410   59.6160 C.3    70  ASN70       0.1688
     19  C         20.5930   21.9400   60.9230 C.2    70  ASN70       0.2292
     20  O         21.0870   22.8530   61.5340 O.2    70  ASN70      -0.2864
     21  CB        19.0220   23.2980   59.6740 C.3    70  ASN70       0.1181
     22  CG        17.8720   23.0600   60.6020 C.2    70  ASN70       0.2629
     23  OD1       17.8660   22.0910   61.3540 O.2    70  ASN70      -0.2716
     24  ND2       16.9140   23.9390   60.5680 N.am   70  ASN70      -0.0877
     25  N         19.5270   21.5790   63.5540 N.3    72  TYR72      -0.1241
     26  CA        18.9830   22.2210   64.6600 C.3    72  TYR72       0.1605
     27  C         18.6210   21.2280   65.6810 C.2    72  TYR72       0.2264
     28  O         18.0650   20.1970   65.3610 O.2    72  TYR72      -0.2867
     29  CB        17.7520   23.0220   64.3240 C.3    72  TYR72       0.0534
     30  CG        18.1390   24.4150   64.1270 C.ar   72  TYR72      -0.0201
     31  CD1       19.0840   24.7340   63.1510 C.ar   72  TYR72      -0.0009
     32  CD2       17.6640   25.3800   64.9400 C.ar   72  TYR72      -0.0009
     33  CE1       19.4880   25.9780   62.9750 C.ar   72  TYR72       0.0417
     34  CE2       18.0680   26.6690   64.7790 C.ar   72  TYR72       0.0417
     35  CZ        18.9740   26.9490   63.7850 C.ar   72  TYR72       0.1957
     36  OH        19.3830   28.2230   63.6110 O.3    72  TYR72      -0.2866
     37  N         28.3970   30.1020   63.6470 N.3   204  GLU204     -0.1231
     38  CA        27.1140   29.6110   64.0110 C.3   204  GLU204      0.1699
     39  C         26.1310   30.4540   63.3310 C.2   204  GLU204      0.2592
     40  O         25.2590   29.9450   62.7040 O.2   204  GLU204     -0.2718
     41  CB        26.8670   29.7680   65.4400 C.3   204  GLU204      0.0402
     42  CG        27.6170   28.7840   66.1310 C.3   204  GLU204      0.1161
     43  CD        27.6410   29.0910   67.5210 C.2   204  GLU204      0.3649
     44  OE1       27.1000   30.1330   67.9130 O.co2 204  GLU204     -0.2457
     45  OE2       28.1560   28.2430   68.2620 O.co2 204  GLU204     -0.2457
     46  N         26.3250   31.7430   63.4200 N.am  205  GLU205     -0.1979
     47  CA        25.3130   32.6660   62.9850 C.3   205  GLU205      0.1602
     48  C         25.2830   32.6400   61.4810 C.2   205  GLU205      0.2287
     49  O         24.2650   32.9780   60.8900 O.2   205  GLU205     -0.2864
     50  CB        25.6280   34.0330   63.5000 C.3   205  GLU205      0.0415
     51  CG        25.4320   34.0380   64.9670 C.3   205  GLU205      0.1163
     52  CD        26.1770   35.1080   65.6360 C.2   205  GLU205      0.3649
     53  OE1       26.5570   36.0820   64.9640 O.co2 205  GLU205     -0.2457
     54  OE2       26.4370   34.9810   66.8550 O.co2 205  GLU205     -0.2457
     55  N         26.2290   30.0980   59.4860 N.3   207  TRP207     -0.1227
     56  CA        26.2860   28.8390   58.9120 C.3   207  TRP207      0.1737
     57  C         25.4770   28.7930   57.6650 C.2   207  TRP207      0.2596
     58  O         25.9290   28.2710   56.6920 O.2   207  TRP207     -0.2718
     59  CB        25.6280   27.9560   59.8730 C.3   207  TRP207      0.0564
     60  CG        25.6910   26.6490   59.4780 C.ar  207  TRP207      0.0003
     61  CD1       26.7620   25.9670   59.0160 C.ar  207  TRP207      0.0946
     62  CD2       24.6190   25.7480   59.4680 C.ar  207  TRP207      0.0152
     63  NE1       26.4270   24.6900   58.7480 N.ar  207  TRP207     -0.2442
     64  CE2       25.1040   24.5350   59.0130 C.ar  207  TRP207      0.0810
     65  CE3       23.2880   25.8690   59.8280 C.ar  207  TRP207      0.0012
     66  CZ2       24.3140   23.4310   58.9390 C.ar  207  TRP207      0.0191
     67  CZ3       22.5050   24.7950   59.7340 C.ar  207  TRP207      0.0001
     68  CH2       23.0140   23.5860   59.3010 C.ar  207  TRP207      0.0015
     69  N         24.2930   29.3530   57.6950 N.am  208  GLY208     -0.1942
     70  CA        23.4430   29.2180   56.5560 C.3   208  GLY208      0.2014
     71  C         24.0540   30.0360   55.4550 C.2   208  GLY208      0.2638
     72  O         24.1380   29.5610   54.3560 O.2   208  GLY208     -0.2714
     73  N         24.5070   31.2170   55.7920 N.am  209  LYS209     -0.1977
     74  CA        25.2070   32.0920   54.8790 C.3   209  LYS209      0.1596
     75  C         26.3840   31.3550   54.3130 C.2   209  LYS209      0.2287
     76  O         26.6000   31.3560   53.1340 O.2   209  LYS209     -0.2864
     77  CB        25.7050   33.2890   55.6250 C.3   209  LYS209      0.0298
     78  CG        24.8320   34.4880   55.4740 C.3   209  LYS209      0.0038
     79  CD        25.5290   35.7030   55.9880 C.3   209  LYS209      0.0206
     80  CE        26.2180   36.4080   54.8890 C.3   209  LYS209      0.1093
     81  NZ        26.5150   37.7570   55.4290 N.3   209  LYS209     -0.1314
     82  N         24.7380   23.6890   55.9170 N.3   252  ASN252     -0.1225
     83  CA        23.3640   23.6810   55.9750 C.3   252  ASN252      0.1785
     84  C         22.9120   23.2970   54.6110 C.2   252  ASN252      0.2597
     85  O         23.5650   23.5370   53.6170 O.2   252  ASN252     -0.2718
     86  CB        22.9100   25.0630   56.2370 C.3   252  ASN252      0.1169
     87  CG        21.4720   25.1260   56.3950 C.2   252  ASN252      0.2627
     88  OD1       20.8570   24.1980   56.9130 O.2   252  ASN252     -0.2716
     89  ND2       20.8870   26.1680   55.9020 N.am  252  ASN252     -0.0877
     90  N         21.7880   22.6290   54.6130 N.am  253  TYR253     -0.1976
     91  CA        21.2630   22.2200   53.3740 C.3   253  TYR253      0.1639
     92  C         21.0410   23.4520   52.5550 C.2   253  TYR253      0.2290
     93  O         20.4500   24.4250   52.9640 O.2   253  TYR253     -0.2864
     94  CB        19.9290   21.5520   53.5670 C.3   253  TYR253      0.0560
     95  CG        19.4480   21.2030   52.2170 C.ar  253  TYR253     -0.0198
     96  CD1       20.0660   20.1920   51.4770 C.ar  253  TYR253     -0.0009
     97  CD2       18.4890   21.9560   51.6400 C.ar  253  TYR253     -0.0009
     98  CE1       19.6430   19.9050   50.2340 C.ar  253  TYR253      0.0417
     99  CE2       18.0600   21.6650   50.3840 C.ar  253  TYR253      0.0417
    100  CZ        18.6410   20.6550   49.7210 C.ar  253  TYR253      0.1957
    101  OH        18.2550   20.3320   48.4480 O.3   253  TYR253     -0.2866
@<TRIPOS>BOND
     1   101   100    1
     2   100    98   ar
     3   100    99   ar
     4    98    96   ar
     5    99    97   ar
     6    96    95   ar
     7    97    95   ar
     8    95    94    1
     9    92    93    2
    10    92    91    1
    11    76    75    2
    12     7     6    2
    13    91    94    1
    14    91    90    1
    15    85    84    2
    16     1     2    1
    17    75    74    1
    18    72    71    2
    19     6     8   am
    20     6     5    1
    21    84    90   am
    22    84    83    1
    23     3     4    2
    24     3     2    1
    25    74    77    1
    26    74    73    1
    27    80    81    1
    28    80    79    1
    29     2     5    1
    30    15    14    2
    31    71    73   am
    32    71    70    1
    33    78    77    1
    34    78    79    1
    35    89    87   am
    36    82    83    1
    37    83    86    1
    38    86    87    1
    39    87    88    2
    40    14    16   am
    41    14    13    1
    42    70    69    1
    43    58    57    2
    44    12    11    2
    45    13    10    1
    46    10    11    1
    47    10     9    1
    48    57    69   am
    49    57    56    1
    50    11    17   am
    51    63    64   ar
    52    63    61   ar
    53    56    55    1
    54    56    59    1
    55    66    64   ar
    56    66    68   ar
    57    64    62   ar
    58    61    60   ar
    59    17    18    1
    60    68    67   ar
    61    62    60   ar
    62    62    65   ar
    63    60    59    1
    64    18    21    1
    65    18    19    1
    66    21    22    1
    67    67    65   ar
    68    24    22   am
    69    22    23    2
    70    49    48    2
    71    19    20    2
    72    48    47    1
    73    40    39    2
    74    33    31   ar
    75    33    35   ar
    76    47    46    1
    77    47    50    1
    78    31    30   ar
    79    39    46   am
    80    39    38    1
    81    50    51    1
    82    25    26    1
    83    36    35    1
    84    37    38    1
    85    35    34   ar
    86    38    41    1
    87    30    29    1
    88    30    32   ar
    89    29    26    1
    90    26    27    1
    91    34    32   ar
    92    53    52   ar
    93    51    52    1
    94    28    27    2
    95    41    42    1
    96    52    54   ar
    97    42    43    1
    98    43    44   ar
    99    43    45   ar
