@<TRIPOS>MOLECULE
tmp/3le7B00.pdb
 107 103 0 0 0
SMALL
GASTEIGER

@<TRIPOS>ATOM
      1  N         62.5050   16.0260   62.4490 N.3    71  LEU71      -0.1231
      2  CA        61.9860   16.3940   63.7310 C.3    71  LEU71       0.1693
      3  C         62.6450   15.6480   64.7990 C.2    71  LEU71       0.2592
      4  O         62.1690   15.5830   65.9030 O.2    71  LEU71      -0.2718
      5  CB        60.4870   16.1360   63.8600 C.3    71  LEU71       0.0284
      6  CG        59.6930   17.3460   63.4840 C.3    71  LEU71       0.0019
      7  CD1       58.5300   17.3620   64.4220 C.3    71  LEU71       0.0001
      8  CD2       60.4710   18.6120   63.6430 C.3    71  LEU71       0.0001
      9  N         63.7360   14.9900   64.4720 N.am   72  TYR72      -0.1962
     10  CA        64.4430   14.3200   65.4820 C.3    72  TYR72       0.1771
     11  C         64.9520   15.2950   66.4560 C.2    72  TYR72       0.2619
     12  O         65.4880   16.3000   66.0840 O.2    72  TYR72      -0.2715
     13  CB        65.5630   13.5570   64.8840 C.3    72  TYR72       0.0574
     14  CG        65.1080   12.1740   64.7030 C.ar   72  TYR72      -0.0198
     15  CD1       64.0830   11.9160   63.8140 C.ar   72  TYR72      -0.0009
     16  CD2       65.6250   11.1570   65.4590 C.ar   72  TYR72      -0.0009
     17  CE1       63.5900   10.6670   63.6610 C.ar   72  TYR72       0.0417
     18  CE2       65.1570    9.8910   65.3080 C.ar   72  TYR72       0.0417
     19  CZ        64.1580    9.6400   64.4030 C.ar   72  TYR72       0.1957
     20  OH        63.6980    8.3680   64.2710 O.3    72  TYR72      -0.2866
     21  N         64.6790   14.9820   67.6930 N.am   73  VAL73      -0.1977
     22  CA        65.2840   15.6610   68.7790 C.3    73  VAL73       0.1596
     23  C         66.7100   15.1600   68.7610 C.2    73  VAL73       0.2287
     24  O         66.9770   13.9920   68.8110 O.2    73  VAL73      -0.2864
     25  CB        64.6430   15.2370   70.0710 C.3    73  VAL73       0.0276
     26  CG1       65.3710   15.8320   71.2420 C.3    73  VAL73       0.0022
     27  CG2       63.1760   15.5950   70.0430 C.3    73  VAL73       0.0022
     28  N         72.2720   13.4760   71.8150 N.3    89  PHE89      -0.1241
     29  CA        72.3400   12.0480   71.7230 C.3    89  PHE89       0.1605
     30  C         73.6770   11.6430   71.1530 C.2    89  PHE89       0.2264
     31  O         74.1440   12.2530   70.1950 O.2    89  PHE89      -0.2867
     32  CB        71.2540   11.5710   70.7940 C.3    89  PHE89       0.0534
     33  CG        69.8990   11.8360   71.3050 C.ar   89  PHE89      -0.0203
     34  CD1       69.3690   11.0400   72.2870 C.ar   89  PHE89      -0.0042
     35  CD2       69.1470   12.8740   70.8060 C.ar   89  PHE89      -0.0042
     36  CE1       68.0980   11.2640   72.7580 C.ar   89  PHE89      -0.0003
     37  CE2       67.8850   13.1110   71.2840 C.ar   89  PHE89      -0.0003
     38  CZ        67.3550   12.3010   72.2520 C.ar   89  PHE89      -0.0000
     39  N         68.9050    8.2170   70.2490 N.3   120  SER120     -0.1202
     40  CA        67.5730    8.6750   70.4470 C.3   120  SER120      0.2020
     41  C         66.5980    7.6840   69.8850 C.2   120  SER120      0.2619
     42  O         65.4100    7.9010   69.8110 O.2   120  SER120     -0.2717
     43  CB        67.4020   10.0120   69.7690 C.3   120  SER120      0.2103
     44  OG        67.5210    9.8710   68.3930 O.3   120  SER120     -0.2182
     45  N         67.1410    6.5450   69.5100 N.am  121  LEU121     -0.1965
     46  CA        66.2810    5.4980   69.0910 C.3   121  LEU121      0.1728
     47  C         65.3380    5.2660   70.2180 C.2   121  LEU121      0.2616
     48  O         65.7250    5.2130   71.3840 O.2   121  LEU121     -0.2715
     49  CB        67.0410    4.2240   68.8440 C.3   121  LEU121      0.0311
     50  CG        68.0070    4.2710   67.6770 C.3   121  LEU121      0.0022
     51  CD1       68.6310    2.9050   67.5610 C.3   121  LEU121      0.0001
     52  CD2       67.3120    4.6550   66.3910 C.3   121  LEU121      0.0001
     53  N         64.0780    5.1610   69.8960 N.am  122  TYR122     -0.1974
     54  CA        63.1370    4.7620   70.8630 C.3   122  TYR122      0.1639
     55  C         63.5630    3.5980   71.6670 C.2   122  TYR122      0.2290
     56  O         63.5130    3.6620   72.8560 O.2   122  TYR122     -0.2864
     57  CB        61.8620    4.4470   70.1940 C.3   122  TYR122      0.0560
     58  CG        61.1250    5.6650   69.9430 C.ar  122  TYR122     -0.0198
     59  CD1       60.5820    5.9170   68.7150 C.ar  122  TYR122     -0.0009
     60  CD2       61.0380    6.6280   70.9270 C.ar  122  TYR122     -0.0009
     61  CE1       59.9030    7.0250   68.4760 C.ar  122  TYR122      0.0417
     62  CE2       60.3450    7.7660   70.6970 C.ar  122  TYR122      0.0417
     63  CZ        59.8000    7.9560   69.4690 C.ar  122  TYR122      0.1957
     64  OH        59.1390    9.0870   69.2180 O.3   122  TYR122     -0.2866
     65  N         60.0840   13.5060   72.9450 N.3   170  ILE170     -0.1245
     66  CA        60.2030   13.1950   71.5490 C.3   170  ILE170      0.1561
     67  C         58.8630   12.9600   70.9950 C.2   170  ILE170      0.2260
     68  O         58.5270   13.3820   69.9020 O.2   170  ILE170     -0.2867
     69  CB        61.0350   11.9980   71.3820 C.3   170  ILE170      0.0252
     70  CG1       62.4650   12.4830   71.4950 C.3   170  ILE170      0.0019
     71  CG2       60.7670   11.4060   70.0440 C.3   170  ILE170      0.0019
     72  CD1       63.3700   11.4100   71.8580 C.3   170  ILE170      0.0001
     73  N         58.1530   15.8260   68.8700 N.3   174  SER174     -0.1202
     74  CA        58.4440   15.4290   67.5510 C.3   174  SER174      0.2020
     75  C         57.3950   14.5300   67.0410 C.2   174  SER174      0.2618
     76  O         56.9510   14.7340   65.9400 O.2   174  SER174     -0.2717
     77  CB        59.7300   14.7170   67.4880 C.3   174  SER174      0.2103
     78  OG        60.7100   15.6200   67.9280 O.3   174  SER174     -0.2182
     79  N         56.9870   13.5570   67.8210 N.am  175  GLU175     -0.1979
     80  CA        56.0740   12.5880   67.2420 C.3   175  GLU175      0.1602
     81  C         54.8000   13.2660   67.0720 C.2   175  GLU175      0.2287
     82  O         54.1140   13.0910   66.1110 O.2   175  GLU175     -0.2864
     83  CB        55.9270   11.4020   68.1360 C.3   175  GLU175      0.0415
     84  CG        57.2160   10.6970   68.2910 C.3   175  GLU175      0.1163
     85  CD        57.7270   10.1560   66.9860 C.2   175  GLU175      0.3649
     86  OE1       57.3070   10.5370   65.8830 O.co2 175  GLU175     -0.2457
     87  OE2       58.5890    9.3190   67.0850 O.co2 175  GLU175     -0.2457
     88  N         54.9430   15.2440   64.2280 N.3   178  ARG178     -0.1245
     89  CA        54.9480   14.4800   63.0430 C.3   178  ARG178      0.1563
     90  C         53.6080   13.9310   62.8540 C.2   178  ARG178      0.2260
     91  O         53.1320   13.8130   61.7360 O.2   178  ARG178     -0.2867
     92  CB        55.8460   13.3080   63.2040 C.3   178  ARG178      0.0307
     93  CG        57.1970   13.6770   63.1800 C.3   178  ARG178      0.0489
     94  CD        57.9380   12.5120   63.5430 C.3   178  ARG178      0.2205
     95  NE        59.3360   12.8500   63.6620 N.pl3 178  ARG178     -0.0865
     96  CZ        60.1100   12.3880   64.6190 C.cat 178  ARG178      0.5346
     97  NH1       59.6260   11.6260   65.5550 N.pl3 178  ARG178      0.1354
     98  NH2       61.3690   12.7410   64.6520 N.pl3 178  ARG178      0.1354
     99  N         54.8700    6.6140   65.0970 N.3   204  GLU204     -0.1245
    100  CA        56.1700    7.0980   65.3060 C.3   204  GLU204      0.1567
    101  C         57.1460    6.2720   64.5490 C.2   204  GLU204      0.2260
    102  O         58.0260    6.7700   63.8950 O.2   204  GLU204     -0.2867
    103  CB        56.4690    6.9730   66.7420 C.3   204  GLU204      0.0388
    104  CG        55.6020    7.7740   67.5450 C.3   204  GLU204      0.1160
    105  CD        55.8710    7.5360   68.9500 C.2   204  GLU204      0.3649
    106  OE1       56.4640    6.5160   69.2720 O.co2 204  GLU204     -0.2457
    107  OE2       55.4870    8.4060   69.7260 O.co2 204  GLU204     -0.2457
@<TRIPOS>BOND
     1    91    90    2
     2     1     2    1
     3    90    89    1
     4    89    92    1
     5    89    88    1
     6    93    92    1
     7    93    94    1
     8     6     8    1
     9     6     5    1
    10     6     7    1
    11    94    95    1
    12    17    15   ar
    13    17    19   ar
    14    95    96    2
    15     2     5    1
    16     2     3    1
    17    15    14   ar
    18   102   101    2
    19    20    19    1
    20    19    18   ar
    21     9     3   am
    22     9    10    1
    23   101   100    1
    24    96    98    1
    25    96    97    1
    26    14    13    1
    27    14    16   ar
    28     3     4    2
    29    13    10    1
    30    99   100    1
    31   100   103    1
    32    18    16   ar
    33    10    11    1
    34    86    85   ar
    35    76    75    2
    36    12    11    2
    37    82    81    2
    38    52    50    1
    39    11    21   am
    40   103   104    1
    41    85    87   ar
    42    85    84    1
    43    75    74    1
    44    75    79   am
    45    81    80    1
    46    80    79    1
    47    80    83    1
    48    77    74    1
    49    77    78    1
    50   104   105    1
    51    74    73    1
    52    51    50    1
    53    50    49    1
    54    21    22    1
    55    83    84    1
    56    44    43    1
    57    61    59   ar
    58    61    63   ar
    59    59    58   ar
    60    23    22    1
    61    23    24    2
    62    22    25    1
    63    49    46    1
    64   105   106   ar
    65   105   107   ar
    66    46    45    1
    67    46    47    1
    68    64    63    1
    69    63    62   ar
    70    45    41   am
    71    43    40    1
    72    42    41    2
    73    41    40    1
    74    53    47   am
    75    53    54    1
    76    68    67    2
    77    58    57    1
    78    58    60   ar
    79    27    25    1
    80    71    69    1
    81    25    26    1
    82    57    54    1
    83    31    30    2
    84    47    48    2
    85    39    40    1
    86    62    60   ar
    87    32    33    1
    88    32    29    1
    89    35    37   ar
    90    35    33   ar
    91    54    55    1
    92    67    66    1
    93    30    29    1
    94    37    38   ar
    95    33    34   ar
    96    69    70    1
    97    69    66    1
    98    70    72    1
    99    66    65    1
   100    55    56    2
   101    29    28    1
   102    38    36   ar
   103    34    36   ar
