@<TRIPOS>MOLECULE
tmp/3le8B00.pdb
 213 204 0 0 0
SMALL
GASTEIGER

@<TRIPOS>ATOM
      1  N         -3.0370   -7.0940   29.9930 N.3    38  PRO38      -0.2102
      2  CA        -2.2970   -8.2260   29.4600 C.3    38  PRO38       0.1504
      3  C         -2.1110   -9.2950   30.5290 C.2    38  PRO38       0.2576
      4  O         -1.8780   -8.9760   31.7280 O.2    38  PRO38      -0.2718
      5  CB        -0.9100   -7.6450   29.1970 C.3    38  PRO38       0.0282
      6  CG        -1.1420   -6.1450   28.9370 C.3    38  PRO38       0.0208
      7  CD        -2.2360   -5.8460   29.9600 C.3    38  PRO38       0.0893
      8  N         -2.2470  -10.5480   30.1390 N.am   39  THR39      -0.1939
      9  CA        -2.0490  -11.6540   31.0500 C.3    39  THR39       0.2028
     10  C         -1.3010  -12.8190   30.4150 C.2    39  THR39       0.2642
     11  O         -1.1870  -12.8900   29.2590 O.2    39  THR39      -0.2714
     12  CB        -3.3800  -12.2120   31.6910 C.3    39  THR39       0.1808
     13  OG1       -4.0590  -13.0670   30.8020 O.3    39  THR39      -0.2208
     14  CG2       -4.2820  -11.1480   32.1640 C.3    39  THR39       0.0379
     15  N         -0.8480  -13.7560   31.2190 N.am   40  MET40      -0.1976
     16  CA        -0.1980  -14.9260   30.6630 C.3    40  MET40       0.1605
     17  C         -0.7520  -16.3340   30.8760 C.2    40  MET40       0.2287
     18  O         -1.0920  -17.0070   29.9600 O.2    40  MET40      -0.2864
     19  CB         1.2240  -14.9710   31.1310 C.3    40  MET40       0.0413
     20  CG         2.0920  -14.3400   30.2640 C.3    40  MET40       0.0598
     21  SD         3.7690  -14.7290   30.5640 S.3    40  MET40      -0.1393
     22  CE         4.0420  -13.4550   31.7470 C.3    40  MET40       0.0692
     23  N         -5.3640  -15.3390   38.2090 N.3    44  HIS44      -0.1241
     24  CA        -5.4390  -15.3200   39.6600 C.3    44  HIS44       0.1621
     25  C         -5.9530  -13.9730   40.1320 C.2    44  HIS44       0.2264
     26  O         -6.2190  -13.0830   39.2940 O.2    44  HIS44      -0.2867
     27  CB        -4.0880  -15.6670   40.2870 C.3    44  HIS44       0.0745
     28  CG        -2.9880  -14.7170   39.9310 C.ar   44  HIS44       0.0817
     29  ND1       -3.0930  -13.3490   40.1100 N.ar   44  HIS44      -0.2268
     30  CD2       -1.7440  -14.9420   39.4460 C.ar   44  HIS44       0.1154
     31  CE1       -1.9600  -12.7800   39.7320 C.ar   44  HIS44       0.1986
     32  NE2       -1.1400  -13.7220   39.2920 N.ar   44  HIS44      -0.2212
     33  N         -4.7450  -11.4000   41.4280 N.3    46  GLY46      -0.1210
     34  CA        -3.8930  -10.3190   40.9010 C.3    46  GLY46       0.1956
     35  C         -4.4740   -9.8090   39.5550 C.2    46  GLY46       0.2611
     36  O         -4.6920   -8.5950   39.3590 O.2    46  GLY46      -0.2717
     37  N         -4.6930  -10.7480   38.6690 N.am   47  HIS47      -0.1975
     38  CA        -5.2250  -10.4800   37.3390 C.3    47  HIS47       0.1656
     39  C         -6.6330   -9.9060   37.5010 C.2    47  HIS47       0.2291
     40  O         -6.9930   -8.9680   36.7950 O.2    47  HIS47      -0.2864
     41  CB        -5.2670  -11.7440   36.4940 C.3    47  HIS47       0.0771
     42  CG        -3.9110  -12.3010   36.1620 C.ar   47  HIS47       0.0820
     43  ND1       -3.4850  -13.5380   36.6150 N.ar   47  HIS47      -0.2267
     44  CD2       -2.8700  -11.7710   35.4840 C.ar   47  HIS47       0.1154
     45  CE1       -2.2540  -13.7610   36.1810 C.ar   47  HIS47       0.1986
     46  NE2       -1.8550  -12.7010   35.4950 N.ar   47  HIS47      -0.2212
     47  N         -7.8060   -8.1900   39.9570 N.3    49  ALA49      -0.1231
     48  CA        -7.6600   -6.8070   40.3750 C.3    49  ALA49       0.1694
     49  C         -7.3210   -5.8860   39.2200 C.2    49  ALA49       0.2591
     50  O         -7.7930   -4.6920   39.2460 O.2    49  ALA49      -0.2718
     51  CB        -6.6330   -6.6140   41.5410 C.3    49  ALA49       0.0304
     52  N         -6.5570   -6.3590   38.2280 N.am   50  LEU50      -0.1980
     53  CA        -6.2810   -5.4720   37.0270 C.3    50  LEU50       0.1596
     54  C         -7.6000   -5.2490   36.2330 C.2    50  LEU50       0.2287
     55  O         -7.9460   -4.1160   35.8890 O.2    50  LEU50      -0.2864
     56  CB        -5.2300   -6.0750   36.1370 C.3    50  LEU50       0.0297
     57  CG        -3.8990   -6.4750   36.7960 C.3    50  LEU50       0.0022
     58  CD1       -2.9590   -7.2020   35.7750 C.3    50  LEU50       0.0001
     59  CD2       -3.3010   -5.2730   37.4360 C.3    50  LEU50       0.0001
     60  N         -5.7930   -9.7740   27.2530 N.3    65  SER65      -0.1217
     61  CA        -5.1000  -10.6770   26.3410 C.3    65  SER65       0.1889
     62  C         -4.6160  -11.8630   27.1650 C.2    65  SER65       0.2288
     63  O         -4.2710  -11.7050   28.3530 O.2    65  SER65      -0.2866
     64  CB        -3.9350  -10.0150   25.5980 C.3    65  SER65       0.2089
     65  OG        -3.0540   -9.3740   26.4870 O.3    65  SER65      -0.2183
     66  N         -1.8390  -14.8560   26.5440 N.3    67  PHE67      -0.1241
     67  CA        -0.8240  -15.1980   25.5620 C.3    67  PHE67       0.1605
     68  C          0.4050  -15.5590   26.2620 C.2    67  PHE67       0.2264
     69  O          0.9240  -14.7960   26.9860 O.2    67  PHE67      -0.2867
     70  CB        -0.4900  -14.0700   24.5730 C.3    67  PHE67       0.0534
     71  CG         0.6300  -14.4170   23.6280 C.ar   67  PHE67      -0.0203
     72  CD1        0.5800  -15.5410   22.8820 C.ar   67  PHE67      -0.0042
     73  CD2        1.7340  -13.6300   23.5210 C.ar   67  PHE67      -0.0042
     74  CE1        1.5710  -15.8570   22.0720 C.ar   67  PHE67      -0.0003
     75  CE2        2.7290  -13.9450   22.7020 C.ar   67  PHE67      -0.0003
     76  CZ         2.6580  -15.0680   21.9770 C.ar   67  PHE67      -0.0000
     77  N          8.0470  -14.3160   24.9490 N.3    71  MET71      -0.1245
     78  CA         8.1010  -13.1050   25.7110 C.3    71  MET71       0.1570
     79  C          9.5520  -12.7820   26.0030 C.2    71  MET71       0.2261
     80  O         10.4290  -13.6230   25.7970 O.2    71  MET71      -0.2867
     81  CB         7.3440  -13.3140   27.0330 C.3    71  MET71       0.0387
     82  CG         6.5410  -12.1120   27.5240 C.3    71  MET71       0.0595
     83  SD         4.7580  -12.4030   27.5390 S.3    71  MET71      -0.1393
     84  CE         4.6280  -13.7560   26.3720 C.3    71  MET71       0.0692
     85  N          9.5060   -9.1900   26.8320 N.3   127  VAL127     -0.1245
     86  CA         8.3050   -8.5900   27.3850 C.3   127  VAL127      0.1561
     87  C          8.0370   -7.2680   26.6490 C.2   127  VAL127      0.2260
     88  O          6.8940   -6.9560   26.3170 O.2   127  VAL127     -0.2867
     89  CB         8.5240   -8.1830   28.9030 C.3   127  VAL127      0.0252
     90  CG1        7.2010   -7.6190   29.4440 C.3   127  VAL127      0.0019
     91  CG2        8.8650   -9.4960   29.6990 C.3   127  VAL127      0.0019
     92  N          6.5740   -7.8590   23.1280 N.3   130  VAL130     -0.1231
     93  CA         5.1810   -8.2870   23.0550 C.3   130  VAL130      0.1692
     94  C          4.2230   -7.2050   23.5770 C.2   130  VAL130      0.2591
     95  O          3.1140   -7.0270   23.0190 O.2   130  VAL130     -0.2718
     96  CB         4.9780   -9.6650   23.6840 C.3   130  VAL130      0.0266
     97  CG1        5.0360   -9.5700   25.1880 C.3   130  VAL130      0.0020
     98  CG2        3.6230  -10.3060   23.2100 C.3   130  VAL130      0.0020
     99  N          4.6680   -6.4130   24.5530 N.am  131  VAL131     -0.1980
    100  CA         3.8010   -5.3050   25.0320 C.3   131  VAL131      0.1595
    101  C          3.5620   -4.3130   23.9010 C.2   131  VAL131      0.2287
    102  O          2.4400   -3.8240   23.6760 O.2   131  VAL131     -0.2864
    103  CB         4.3950   -4.6070   26.2850 C.3   131  VAL131      0.0276
    104  CG1        3.6420   -3.2310   26.5240 C.3   131  VAL131      0.0022
    105  CG2        4.2140   -5.5340   27.4610 C.3   131  VAL131      0.0022
    106  N          1.0430   -5.7550   21.5090 N.3   134  LEU134     -0.1245
    107  CA        -0.3320   -5.7430   22.0260 C.3   134  LEU134      0.1561
    108  C         -0.8460   -4.3410   22.0220 C.2   134  LEU134      0.2260
    109  O         -2.0390   -4.1390   21.7030 O.2   134  LEU134     -0.2867
    110  CB        -0.3890   -6.3130   23.4570 C.3   134  LEU134      0.0270
    111  CG        -0.1160   -7.8140   23.5980 C.3   134  LEU134      0.0019
    112  CD1        0.0090   -8.1480   25.0620 C.3   134  LEU134      0.0001
    113  CD2       -1.2800   -8.6490   22.9880 C.3   134  LEU134      0.0001
    114  N         -0.9580   -2.8960   34.5350 N.3   145  PHE145     -0.1227
    115  CA        -0.0220   -3.8820   34.9870 C.3   145  PHE145      0.1736
    116  C          0.0230   -3.8810   36.5180 C.2   145  PHE145      0.2596
    117  O         -0.2630   -2.8680   37.1180 O.2   145  PHE145     -0.2718
    118  CB         1.3660   -3.4710   34.4540 C.3   145  PHE145      0.0547
    119  CG         1.4830   -3.5390   32.9610 C.ar  145  PHE145     -0.0202
    120  CD1        1.7120   -4.7620   32.3330 C.ar  145  PHE145     -0.0042
    121  CD2        1.3180   -2.4060   32.1720 C.ar  145  PHE145     -0.0042
    122  CE1        1.8130   -4.8100   30.9410 C.ar  145  PHE145     -0.0003
    123  CE2        1.4250   -2.4440   30.8380 C.ar  145  PHE145     -0.0003
    124  CZ         1.6340   -3.6900   30.1840 C.ar  145  PHE145     -0.0000
    125  N          0.3690   -5.0390   37.1100 N.am  146  GLY146     -0.1957
    126  CA         0.5770   -5.1470   38.5640 C.3   146  GLY146      0.1869
    127  C          1.8990   -4.4760   38.9060 C.2   146  GLY146      0.2309
    128  O          2.8230   -4.4410   38.0790 O.2   146  GLY146     -0.2863
    129  N          3.6590   -5.8060   41.0800 N.3   148  LYS148     -0.1231
    130  CA         4.5280   -6.9360   41.4730 C.3   148  LYS148      0.1693
    131  C          5.8250   -7.0290   40.6610 C.2   148  LYS148      0.2592
    132  O          6.9220   -7.1260   41.1990 O.2   148  LYS148     -0.2718
    133  CB         3.7590   -8.2500   41.4350 C.3   148  LYS148      0.0285
    134  CG         4.3590   -9.2570   42.4240 C.3   148  LYS148      0.0035
    135  CD         5.0990  -10.2750   41.6810 C.3   148  LYS148      0.0206
    136  CE         5.4790  -11.2960   42.6360 C.3   148  LYS148      0.1093
    137  NZ         6.8170  -11.6060   42.1780 N.3   148  LYS148     -0.1314
    138  N          5.7050   -6.9720   39.3340 N.am  149  ASP149     -0.1974
    139  CA         6.8990   -6.9930   38.5440 C.3   149  ASP149      0.1709
    140  C          7.2510   -5.5160   38.2910 C.2   149  ASP149      0.2293
    141  O          7.0370   -4.9660   37.1990 O.2   149  ASP149     -0.2864
    142  CB         6.6390   -7.7620   37.2720 C.3   149  ASP149      0.1436
    143  CG         6.4180   -9.2580   37.5750 C.2   149  ASP149      0.3671
    144  OD1        7.3690   -9.8790   38.0820 O.co2 149  ASP149     -0.2456
    145  OD2        5.3090   -9.7670   37.3230 O.co2 149  ASP149     -0.2456
    146  N          9.7830   -4.5460   35.4950 N.3   152  GLN152     -0.1245
    147  CA         9.0170   -4.6490   34.2770 C.3   152  GLN152      0.1566
    148  C          8.1480   -3.4240   34.0470 C.2   152  GLN152      0.2260
    149  O          8.1610   -2.8610   33.0190 O.2   152  GLN152     -0.2867
    150  CB         8.1250   -5.8780   34.2910 C.3   152  GLN152      0.0367
    151  CG         7.2770   -6.0140   33.1060 C.3   152  GLN152      0.0905
    152  CD         6.3280   -7.1970   33.1880 C.2   152  GLN152      0.2608
    153  OE1        6.7470   -8.3090   33.0670 O.2   152  GLN152     -0.2717
    154  NE2        5.0600   -6.9260   33.4910 N.am  152  GLN152     -0.0878
    155  N         -1.0790   -1.1080   39.2280 N.3   172  VAL172     -0.1231
    156  CA        -2.0800   -1.5150   40.1850 C.3   172  VAL172      0.1678
    157  C         -1.3510   -2.2360   41.3610 C.2   172  VAL172      0.2434
    158  O         -0.4980   -3.1250   41.1040 O.2   172  VAL172     -0.2733
    159  CB        -3.1430   -2.4880   39.5520 C.3   172  VAL172      0.0265
    160  CG1       -4.1270   -2.9020   40.5950 C.3   172  VAL172      0.0020
    161  CG2       -3.8690   -1.8430   38.3530 C.3   172  VAL172      0.0020
    162  N         -1.6320   -1.8140   42.6240 N.am  173  PRO173     -0.2718
    163  CA        -1.0000   -2.3970   43.8160 C.3   173  PRO173      0.1535
    164  C         -1.1220   -3.9010   43.8120 C.2   173  PRO173      0.2599
    165  O         -2.1700   -4.4550   43.4300 O.2   173  PRO173     -0.2715
    166  CB        -1.7870   -1.7860   45.0020 C.3   173  PRO173      0.0310
    167  CG        -2.0610   -0.3760   44.4860 C.3   173  PRO173      0.0237
    168  CD        -2.3130   -0.5470   42.9640 C.3   173  PRO173      0.0939
    169  N         -0.0200   -4.5310   44.1870 N.am  174  THR174     -0.1937
    170  CA         0.0510   -5.9980   44.2090 C.3   174  THR174      0.2028
    171  C         -0.9770   -6.5960   45.1700 C.2   174  THR174      0.2642
    172  O         -1.0660   -6.2020   46.3390 O.2   174  THR174     -0.2714
    173  CB         1.4430   -6.4030   44.6770 C.3   174  THR174      0.1808
    174  OG1        2.4390   -5.7830   43.8290 O.3   174  THR174     -0.2208
    175  CG2        1.5610   -7.9350   44.6140 C.3   174  THR174      0.0379
    176  N         -1.7560   -7.5450   44.6560 N.am  175  VAL175     -0.1977
    177  CA        -2.6280   -8.3630   45.4560 C.3   175  VAL175      0.1596
    178  C         -1.7260   -9.3870   46.2340 C.2   175  VAL175      0.2287
    179  O         -0.7460   -9.9650   45.6970 O.2   175  VAL175     -0.2864
    180  CB        -3.6230   -9.0600   44.5580 C.3   175  VAL175      0.0276
    181  CG1       -4.4060  -10.1080   45.3340 C.3   175  VAL175      0.0022
    182  CG2       -4.6190   -8.0160   43.9570 C.3   175  VAL175      0.0022
    183  N          0.9650  -12.3230   45.4170 N.3   183  MET183     -0.1230
    184  CA         0.4220  -13.3670   44.5290 C.3   183  MET183      0.1702
    185  C          1.3460  -13.6550   43.3270 C.2   183  MET183      0.2593
    186  O          1.9600  -12.7340   42.7650 O.2   183  MET183     -0.2718
    187  CB        -0.9850  -12.9860   44.0760 C.3   183  MET183      0.0401
    188  CG        -1.9620  -13.0470   45.1980 C.3   183  MET183      0.0596
    189  SD        -3.5290  -13.5300   44.5300 S.3   183  MET183     -0.1393
    190  CE        -3.0870  -15.1570   43.9180 C.3   183  MET183      0.0692
    191  N          1.4820  -14.9430   42.9900 N.am  184  SER184     -0.1938
    192  CA         2.3690  -15.4070   41.9060 C.3   184  SER184      0.2055
    193  C          2.0190  -16.8490   41.5430 C.2   184  SER184      0.2644
    194  O          1.5420  -17.6300   42.3970 O.2   184  SER184     -0.2714
    195  CB         3.8800  -15.2210   42.2250 C.3   184  SER184      0.2130
    196  OG         4.7350  -16.1270   41.5130 O.3   184  SER184     -0.2179
    197  N          2.2100  -17.1650   40.2600 N.am  185  SER185     -0.1935
    198  CA         1.8300  -18.4550   39.7210 C.3   185  SER185      0.2055
    199  C          2.8010  -19.4490   40.3510 C.2   185  SER185      0.2642
    200  O          2.4950  -20.6410   40.5140 O.2   185  SER185     -0.2714
    201  CB         1.9500  -18.4390   38.1530 C.3   185  SER185      0.2130
    202  OG         3.2890  -18.0890   37.7410 O.3   185  SER185     -0.2179
    203  N          3.9630  -18.9320   40.7610 N.am  186  ARG186     -0.1977
    204  CA         4.9830  -19.7770   41.4250 C.3   186  ARG186      0.1597
    205  C          4.7060  -20.2320   42.8700 C.2   186  ARG186      0.2287
    206  O          5.2280  -21.2650   43.2890 O.2   186  ARG186     -0.2864
    207  CB         6.3180  -19.1020   41.3390 C.3   186  ARG186      0.0334
    208  CG         6.6480  -18.6220   39.8860 C.3   186  ARG186      0.0492
    209  CD         8.1220  -18.2810   39.7760 C.3   186  ARG186      0.2205
    210  NE         8.5590  -17.9460   38.4270 N.pl3 186  ARG186     -0.0865
    211  CZ         9.7910  -17.5070   38.1330 C.cat 186  ARG186      0.5346
    212  NH1       10.6890  -17.3110   39.0910 N.pl3 186  ARG186      0.1354
    213  NH2       10.1190  -17.2180   36.8820 N.pl3 186  ARG186      0.1354
@<TRIPOS>BOND
     1   106   107    1
     2   109   108    2
     3    76    74   ar
     4    76    75   ar
     5   108   107    1
     6   107   110    1
     7    74    72   ar
     8    75    73   ar
     9    72    71   ar
    10   113   111    1
    11    95    94    2
    12    93    92    1
    13    93    94    1
    14    93    96    1
    15    98    96    1
    16   110   111    1
    17    73    71   ar
    18    94    99   am
    19   111   112    1
    20    71    70    1
    21   102   101    2
    22    96    97    1
    23   101   100    1
    24    99   100    1
    25    70    67    1
    26    77    78    1
    27   100   103    1
    28    67    68    1
    29    67    66    1
    30    64    61    1
    31    64    65    1
    32    78    79    1
    33    78    81    1
    34    80    79    2
    35    68    69    2
    36   103   104    1
    37   103   105    1
    38    88    87    2
    39    61    62    1
    40    61    60    1
    41    84    83    1
    42    87    86    1
    43    85    86    1
    44    81    82    1
    45    62    63    2
    46    86    89    1
    47    82    83    1
    48    89    90    1
    49    89    91    1
    50     6     5    1
    51     6     7    1
    52     5     2    1
    53    11    10    2
    54     2     1    1
    55     2     3    1
    56    18    17    2
    57     7     1    1
    58     8     3   am
    59     8     9    1
    60   124   123   ar
    61   124   122   ar
    62    20    21    1
    63    20    19    1
    64    10     9    1
    65    10    15   am
    66     3     4    2
    67    21    22    1
    68    16    17    1
    69    16    19    1
    70    16    15    1
    71    13    12    1
    72   123   121   ar
    73   122   120   ar
    74     9    12    1
    75    12    14    1
    76   121   119   ar
    77   120   119   ar
    78   119   118    1
    79   149   148    2
    80   153   152    2
    81   151   152    1
    82   151   150    1
    83   152   154   am
    84   148   147    1
    85   147   150    1
    86   147   146    1
    87   118   115    1
    88   114   115    1
    89   115   116    1
    90    44    46   ar
    91    44    42   ar
    92    46    45   ar
    93    58    57    1
    94    55    54    2
    95    56    57    1
    96    56    53    1
    97    42    41    1
    98    42    43   ar
    99    45    43   ar
   100    54    53    1
   101    41    38    1
   102   116   125   am
   103   116   117    2
   104    40    39    2
   105    57    59    1
   106   213   211    1
   107    53    52    1
   108   125   126    1
   109   141   140    2
   110   142   143    1
   111   142   139    1
   112   145   143   ar
   113    38    39    1
   114    38    37    1
   115   143   144   ar
   116   202   201    1
   117   128   127    2
   118   211   210    2
   119   211   212    1
   120   201   198    1
   121    23    24    1
   122    52    49   am
   123   140   139    1
   124   161   159    1
   125   210   209    1
   126   139   138    1
   127   126   127    1
   128    37    35   am
   129    49    50    2
   130    49    48    1
   131   155   156    1
   132    32    30   ar
   133    32    31   ar
   134    26    25    2
   135   138   131   am
   136    36    35    2
   137    30    28   ar
   138   159   156    1
   139   159   160    1
   140    35    34    1
   141    24    25    1
   142    24    27    1
   143   198   197    1
   144   198   199    1
   145    31    29   ar
   146   209   208    1
   147   208   207    1
   148    28    29   ar
   149    28    27    1
   150    47    48    1
   151   156   157    1
   152   197   193   am
   153   199   200    2
   154   199   203   am
   155    48    51    1
   156   131   132    2
   157   131   130    1
   158   203   204    1
   159    34    33    1
   160   129   130    1
   161   158   157    2
   162   207   204    1
   163   157   162   am
   164   204   205    1
   165   133   130    1
   166   133   134    1
   167   196   195    1
   168   193   192    1
   169   193   194    2
   170   135   134    1
   171   135   136    1
   172   192   195    1
   173   192   191    1
   174   137   136    1
   175   162   168    1
   176   162   163    1
   177   186   185    2
   178   205   206    2
   179   168   167    1
   180   191   185   am
   181   185   184    1
   182   165   164    2
   183   164   163    1
   184   164   169   am
   185   163   166    1
   186   174   173    1
   187   190   189    1
   188   182   180    1
   189   187   184    1
   190   187   188    1
   191   169   170    1
   192   170   173    1
   193   170   171    1
   194   167   166    1
   195   184   183    1
   196   189   188    1
   197   180   181    1
   198   180   177    1
   199   175   173    1
   200   176   171   am
   201   176   177    1
   202   171   172    2
   203   177   178    1
   204   179   178    2
