@<TRIPOS>MOLECULE
tmp/3le9A00.pdb
 153 148 0 0 0
SMALL
GASTEIGER

@<TRIPOS>ATOM
      1  N         -3.5510   10.7940   19.8360 N.3    97  VAL97      -0.1231
      2  CA        -2.8840   11.5930   20.8810 C.3    97  VAL97       0.1692
      3  C         -2.5990   13.0710   20.5090 C.2    97  VAL97       0.2591
      4  O         -2.8480   13.9670   21.3250 O.2    97  VAL97      -0.2718
      5  CB        -1.6830   10.8350   21.5220 C.3    97  VAL97       0.0266
      6  CG1       -0.5000   10.7020   20.5510 C.3    97  VAL97       0.0020
      7  CG2       -1.2560   11.4720   22.8470 C.3    97  VAL97       0.0020
      8  N         -2.1290   13.3140   19.2640 N.am   98  LYS98      -0.1980
      9  CA        -1.8280   14.6740   18.7970 C.3    98  LYS98       0.1596
     10  C         -3.0740   15.5320   18.7370 C.2    98  LYS98       0.2287
     11  O         -3.0580   16.6800   19.1720 O.2    98  LYS98      -0.2864
     12  CB        -1.0760   14.6720   17.4480 C.3    98  LYS98       0.0298
     13  CG         0.3590   14.1670   17.5700 C.3    98  LYS98       0.0038
     14  CD         1.0340   14.0400   16.2100 C.3    98  LYS98       0.0206
     15  CE         2.4700   13.5850   16.3260 C.3    98  LYS98       0.1093
     16  NZ         3.1350   13.5050   14.9960 N.3    98  LYS98      -0.1314
     17  N          1.3750    1.8860   22.4010 N.3   129  GLY129     -0.1210
     18  CA         2.0900    2.0910   23.6660 C.3   129  GLY129      0.1956
     19  C          2.3930    3.5260   24.0640 C.2   129  GLY129      0.2613
     20  O          3.1530    3.7620   25.0140 O.2   129  GLY129     -0.2717
     21  N          1.8060    4.4940   23.3570 N.am  130  THR130     -0.1938
     22  CA         1.9900    5.9210   23.7200 C.3   130  THR130      0.2028
     23  C          1.3230    6.2040   25.0900 C.2   130  THR130      0.2642
     24  O          0.1930    5.7650   25.3070 O.2   130  THR130     -0.2714
     25  CB         1.3930    6.8010   22.6170 C.3   130  THR130      0.1808
     26  OG1        2.2630    6.7240   21.5010 O.3   130  THR130     -0.2208
     27  CG2        1.2240    8.2830   23.0380 C.3   130  THR130      0.0379
     28  N          2.0330    6.9220   25.9970 N.am  131  LEU131     -0.1963
     29  CA         1.5480    7.2620   27.3310 C.3   131  LEU131      0.1728
     30  C          1.2150    8.7450   27.5050 C.2   131  LEU131      0.2617
     31  O          0.3840    9.0740   28.3510 O.2   131  LEU131     -0.2715
     32  CB         2.5210    6.8040   28.4120 C.3   131  LEU131      0.0311
     33  CG         2.6830    5.2650   28.5030 C.3   131  LEU131      0.0022
     34  CD1        4.1400    4.8710   28.4540 C.3   131  LEU131      0.0001
     35  CD2        1.9980    4.7180   29.7320 C.3   131  LEU131      0.0001
     36  N          1.8620    9.6050   26.7150 N.am  132  GLY132     -0.1940
     37  CA         1.6030   11.0400   26.8110 C.3   132  GLY132      0.2014
     38  C          2.1820   11.8380   25.6710 C.2   132  GLY132      0.2639
     39  O          2.8320   11.2910   24.7690 O.2   132  GLY132     -0.2714
     40  N          1.9580   13.1620   25.7220 N.am  133  LEU133     -0.1963
     41  CA         2.4420   14.0810   24.7090 C.3   133  LEU133      0.1728
     42  C          2.5240   15.4760   25.2960 C.2   133  LEU133      0.2616
     43  O          1.7160   15.8030   26.1650 O.2   133  LEU133     -0.2715
     44  CB         1.4670   14.0750   23.5170 C.3   133  LEU133      0.0311
     45  CG         1.9790   14.7280   22.2070 C.3   133  LEU133      0.0022
     46  CD1        3.1160   13.9200   21.5650 C.3   133  LEU133      0.0001
     47  CD2        0.8460   14.9010   21.2320 C.3   133  LEU133      0.0001
     48  N          3.4460   16.3210   24.7990 N.am  134  ALA134     -0.1977
     49  CA         3.5630   17.7050   25.2900 C.3   134  ALA134      0.1597
     50  C          4.2080   18.6060   24.2550 C.2   134  ALA134      0.2287
     51  O          4.9130   18.1200   23.3660 O.2   134  ALA134     -0.2864
     52  CB         4.3750   17.7490   26.5920 C.3   134  ALA134      0.0319
     53  N          5.5490    4.0710   37.0210 N.3   175  GLU175     -0.1245
     54  CA         5.5360    4.3520   35.5750 C.3   175  GLU175      0.1567
     55  C          4.8460    5.6830   35.3270 C.2   175  GLU175      0.2260
     56  O          5.3020    6.4360   34.4660 O.2   175  GLU175     -0.2867
     57  CB         4.8010    3.2360   34.7790 C.3   175  GLU175      0.0388
     58  CG         5.4360    1.8620   34.9700 C.3   175  GLU175      0.1160
     59  CD         4.6800    0.6690   34.4120 C.2   175  GLU175      0.3649
     60  OE1        3.4650    0.5450   34.6880 O.co2 175  GLU175     -0.2457
     61  OE2        5.3310   -0.1890   33.7710 O.co2 175  GLU175     -0.2457
     62  N          7.0450    8.6790   35.8080 N.3   178  LEU178     -0.1231
     63  CA         7.9870    8.8150   34.6950 C.3   178  LEU178      0.1693
     64  C          7.3590    9.4620   33.4680 C.2   178  LEU178      0.2591
     65  O          8.0040   10.2980   32.8200 O.2   178  LEU178     -0.2718
     66  CB         8.6090    7.4630   34.3440 C.3   178  LEU178      0.0284
     67  CG         9.4720    6.8070   35.4370 C.3   178  LEU178      0.0019
     68  CD1        9.7960    5.3990   35.0600 C.3   178  LEU178      0.0001
     69  CD2       10.7700    7.5710   35.6660 C.3   178  LEU178      0.0001
     70  N          6.1230    9.1020   33.1540 N.am  179  VAL179     -0.1980
     71  CA         5.4050    9.7230   32.0090 C.3   179  VAL179      0.1595
     72  C          5.3170   11.2380   32.2330 C.2   179  VAL179      0.2287
     73  O          5.7430   12.0220   31.3710 O.2   179  VAL179     -0.2864
     74  CB         3.9970    9.1290   31.7720 C.3   179  VAL179      0.0276
     75  CG1        3.3080    9.8080   30.5700 C.3   179  VAL179      0.0022
     76  CG2        4.0710    7.6100   31.5930 C.3   179  VAL179      0.0022
     77  N          8.6250   12.9920   31.9640 N.3   182  HIS182     -0.1226
     78  CA         9.0290   13.0670   30.5470 C.3   182  HIS182      0.1752
     79  C          8.2580   14.1840   29.8010 C.2   182  HIS182      0.2595
     80  O          8.8790   14.9660   29.0780 O.2   182  HIS182     -0.2718
     81  CB         8.8190   11.7050   29.8480 C.3   182  HIS182      0.0759
     82  CG         9.2250   11.6680   28.3990 C.ar  182  HIS182      0.0818
     83  ND1       10.4440   11.1460   28.0100 N.ar  182  HIS182     -0.2268
     84  CD2        8.5230   11.9980   27.2900 C.ar  182  HIS182      0.1154
     85  CE1       10.4670   11.2120   26.6890 C.ar  182  HIS182      0.1986
     86  NE2        9.3360   11.7160   26.2100 N.ar  182  HIS182     -0.2212
     87  N          6.9230   14.2480   29.9770 N.am  183  GLU183     -0.1979
     88  CA         6.0680   15.2610   29.3260 C.3   183  GLU183      0.1602
     89  C          6.4370   16.6800   29.8050 C.2   183  GLU183      0.2287
     90  O          6.6710   17.5850   28.9740 O.2   183  GLU183     -0.2864
     91  CB         4.5620   14.9450   29.4900 C.3   183  GLU183      0.0415
     92  CG         4.1500   13.5610   28.9740 C.3   183  GLU183      0.1163
     93  CD         4.6430   13.2340   27.5710 C.2   183  GLU183      0.3649
     94  OE1        4.9250   14.1730   26.7950 O.co2 183  GLU183     -0.2457
     95  OE2        4.8520   12.0390   27.2850 O.co2 183  GLU183     -0.2457
     96  N          9.6990   17.8890   28.2740 N.3   186  HIS186     -0.1241
     97  CA         9.5090   18.5140   26.9420 C.3   186  HIS186      0.1621
     98  C          9.0140   19.9410   27.1520 C.2   186  HIS186      0.2264
     99  O          9.5440   20.8650   26.5310 O.2   186  HIS186     -0.2867
    100  CB         8.4830   17.7150   26.1160 C.3   186  HIS186      0.0745
    101  CG         9.0080   16.4660   25.4680 C.ar  186  HIS186      0.0817
    102  ND1       10.1610   16.4780   24.6790 N.ar  186  HIS186     -0.2268
    103  CD2        8.4820   15.2170   25.4550 C.ar  186  HIS186      0.1154
    104  CE1       10.2860   15.2420   24.2040 C.ar  186  HIS186      0.1986
    105  NE2        9.3020   14.4470   24.6330 N.ar  186  HIS186     -0.2212
    106  N         14.3640   14.4900   23.0960 N.3   192  HIS192     -0.1241
    107  CA        14.7050   13.1160   23.4600 C.3   192  HIS192      0.1621
    108  C         16.2240   12.8960   23.5340 C.2   192  HIS192      0.2264
    109  O         16.9700   13.5340   22.7720 O.2   192  HIS192     -0.2867
    110  CB        14.0930   12.1390   22.4600 C.3   192  HIS192      0.0745
    111  CG        12.6080   12.0070   22.5760 C.ar  192  HIS192      0.0817
    112  ND1       11.8380   11.6250   21.4970 N.ar  192  HIS192     -0.2268
    113  CD2       11.7950   12.2360   23.6380 C.ar  192  HIS192      0.1154
    114  CE1       10.5830   11.6220   21.9320 C.ar  192  HIS192      0.1986
    115  NE2       10.5110   11.9810   23.2140 N.ar  192  HIS192     -0.2212
    116  N         15.2630    9.8860   31.8470 N.3   211  VAL211     -0.1245
    117  CA        13.8280   10.1240   31.6610 C.3   211  VAL211      0.1561
    118  C         13.4000   10.5450   30.2490 C.2   211  VAL211      0.2260
    119  O         12.3310   10.1240   29.7820 O.2   211  VAL211     -0.2867
    120  CB        13.1930   10.9580   32.7990 C.3   211  VAL211      0.0252
    121  CG1       13.4940   12.4440   32.6410 C.3   211  VAL211      0.0019
    122  CG2       11.6830   10.6910   32.9170 C.3   211  VAL211      0.0019
    123  N         14.5610    9.5490   27.3690 N.3   213  TYR213     -0.1228
    124  CA        14.7930    8.5340   26.3420 C.3   213  TYR213      0.1721
    125  C         13.4500    8.3320   25.6140 C.2   213  TYR213      0.2437
    126  O         12.4150    8.3780   26.2810 O.2   213  TYR213     -0.2733
    127  CB        15.2910    7.2090   26.9560 C.3   213  TYR213      0.0547
    128  CG        15.9280    6.2840   25.9320 C.ar  213  TYR213     -0.0200
    129  CD1       17.1040    6.6440   25.2730 C.ar  213  TYR213     -0.0009
    130  CD2       15.3220    5.0830   25.5760 C.ar  213  TYR213     -0.0009
    131  CE1       17.6750    5.8160   24.3070 C.ar  213  TYR213      0.0417
    132  CE2       15.8950    4.2370   24.6230 C.ar  213  TYR213      0.0417
    133  CZ        17.0590    4.6170   23.9760 C.ar  213  TYR213      0.1957
    134  OH        17.6250    3.7830   23.0340 O.3   213  TYR213     -0.2866
    135  N         13.4230    8.2080   24.2700 N.am  214  PRO214     -0.2729
    136  CA        12.1190    8.1050   23.5730 C.3   214  PRO214      0.1401
    137  C         11.2910    6.8450   23.8840 C.2   214  PRO214      0.2269
    138  O         10.0660    6.8830   23.7450 O.2   214  PRO214     -0.2865
    139  CB        12.4770    8.2190   22.0850 C.3   214  PRO214      0.0296
    140  CG        13.9250    7.9690   21.9900 C.3   214  PRO214      0.0237
    141  CD        14.5600    8.2470   23.3200 C.3   214  PRO214      0.0939
    142  N          9.8060    4.3140   26.5700 N.3   216  ALA216     -0.1231
    143  CA         9.3780    4.4330   27.9630 C.3   216  ALA216      0.1694
    144  C         10.2110    3.6960   28.9930 C.2   216  ALA216      0.2591
    145  O         10.2890    2.4670   28.9760 O.2   216  ALA216     -0.2718
    146  CB         7.9050    4.1110   28.1110 C.3   216  ALA216      0.0304
    147  N         10.8790    4.4810   29.8590 N.am  217  VAL217     -0.1980
    148  CA        11.6880    3.9970   30.9840 C.3   217  VAL217      0.1595
    149  C         10.7170    3.3970   32.0190 C.2   217  VAL217      0.2287
    150  O          9.6380    3.9630   32.2430 O.2   217  VAL217     -0.2864
    151  CB        12.6520    5.0810   31.5810 C.3   217  VAL217      0.0276
    152  CG1       13.7770    5.4240   30.6010 C.3   217  VAL217      0.0022
    153  CG2       11.9100    6.3500   32.0220 C.3   217  VAL217      0.0022
@<TRIPOS>BOND
     1    16    15    1
     2    14    15    1
     3    14    13    1
     4    12    13    1
     5    12     9    1
     6    10     9    1
     7    10    11    2
     8     9     8    1
     9     8     3   am
    10     1     2    1
    11     3     2    1
    12     3     4    2
    13     6     5    1
    14     2     5    1
    15    47    45    1
    16   112   114   ar
    17   112   111   ar
    18    26    25    1
    19     5     7    1
    20    46    45    1
    21   114   115   ar
    22   140   139    1
    23   140   141    1
    24   139   136    1
    25    45    44    1
    26    17    18    1
    27   110   111    1
    28   110   107    1
    29   111   113   ar
    30    25    27    1
    31    25    22    1
    32   109   108    2
    33   134   133    1
    34   106   107    1
    35   115   113   ar
    36   141   135    1
    37    21    22    1
    38    21    19   am
    39    51    50    2
    40   107   108    1
    41    44    41    1
    42   136   137    1
    43   136   135    1
    44    18    19    1
    45    22    23    1
    46   138   137    2
    47   133   131   ar
    48   133   132   ar
    49    19    20    2
    50   104   105   ar
    51   104   102   ar
    52    50    49    1
    53   135   125   am
    54   131   129   ar
    55   132   130   ar
    56   105   103   ar
    57   102   101   ar
    58    41    42    1
    59    41    40    1
    60    39    38    2
    61    48    49    1
    62    48    42   am
    63    23    24    2
    64    23    28   am
    65   129   128   ar
    66    49    52    1
    67    42    43    2
    68   103   101   ar
    69   101   100    1
    70   130   128   ar
    71   125   126    2
    72   125   124    1
    73    38    40   am
    74    38    37    1
    75   128   127    1
    76    28    29    1
    77   100    97    1
    78    86    85   ar
    79    86    84   ar
    80   124   127    1
    81   124   123    1
    82    99    98    2
    83   142   143    1
    84    85    83   ar
    85    36    37    1
    86    36    30   am
    87    94    93   ar
    88    97    98    1
    89    97    96    1
    90    95    93   ar
    91    84    82   ar
    92    29    30    1
    93    29    32    1
    94    30    31    2
    95    93    92    1
    96   143   146    1
    97   143   144    1
    98    83    82   ar
    99    82    81    1
   100    32    33    1
   101    34    33    1
   102    33    35    1
   103    90    89    2
   104    92    91    1
   105   145   144    2
   106   144   147   am
   107    80    79    2
   108    88    91    1
   109    88    89    1
   110    88    87    1
   111   119   118    2
   112    79    87   am
   113    79    78    1
   114    81    78    1
   115   147   148    1
   116   118   117    1
   117    78    77    1
   118    75    74    1
   119   152   151    1
   120   148   151    1
   121   148   149    1
   122    73    72    2
   123   151   153    1
   124    76    74    1
   125   117   116    1
   126   117   120    1
   127    74    71    1
   128    71    72    1
   129    71    70    1
   130   149   150    2
   131   121   120    1
   132   120   122    1
   133    65    64    2
   134    70    64   am
   135    64    63    1
   136    61    59   ar
   137    66    63    1
   138    66    67    1
   139    59    60   ar
   140    59    58    1
   141    56    55    2
   142    63    62    1
   143    57    58    1
   144    57    54    1
   145    68    67    1
   146    55    54    1
   147    67    69    1
   148    54    53    1
