@<TRIPOS>MOLECULE
tmp/3leaB00.pdb
 147 143 0 0 0
SMALL
GASTEIGER

@<TRIPOS>ATOM
      1  N         17.1780   37.5650   14.6000 N.3    99  ASP99      -0.1225
      2  CA        17.4620   37.1940   13.2170 C.3    99  ASP99       0.1805
      3  C         16.3250   36.1390   13.0320 C.2    99  ASP99       0.2598
      4  O         16.2050   35.2440   13.8750 O.2    99  ASP99      -0.2718
      5  CB        18.8470   36.5090   13.1360 C.3    99  ASP99       0.1424
      6  CG        19.1140   35.7700   11.8340 C.2    99  ASP99       0.3668
      7  OD1       20.0270   36.1760   11.1080 O.co2  99  ASP99      -0.2456
      8  OD2       18.4690   34.7270   11.5960 O.co2  99  ASP99      -0.2456
      9  N         15.4650   36.2790   12.0070 N.am  100  VAL100     -0.1966
     10  CA        14.2770   35.4240   11.8390 C.3   100  VAL100      0.1727
     11  C         14.5900   33.9280   11.6690 C.2   100  VAL100      0.2616
     12  O         13.8620   33.0820   12.1930 O.2   100  VAL100     -0.2715
     13  CB        13.3180   35.9740   10.7440 C.3   100  VAL100      0.0290
     14  CG1       13.8570   35.7290    9.3180 C.3   100  VAL100      0.0023
     15  CG2       11.8970   35.4230   10.9060 C.3   100  VAL100      0.0023
     16  N         15.6660   33.6090   10.9390 N.am  101  LYS101     -0.1977
     17  CA        16.0920   32.2320   10.6730 C.3   101  LYS101      0.1596
     18  C         16.4970   31.5450   11.9900 C.2   101  LYS101      0.2287
     19  O         16.0870   30.4000   12.2460 O.2   101  LYS101     -0.2864
     20  CB        17.2460   32.2610    9.6540 C.3   101  LYS101      0.0298
     21  CG        17.5230   30.9650    8.9410 C.3   101  LYS101      0.0038
     22  CD        18.4840   31.2200    7.7730 C.3   101  LYS101      0.0206
     23  CE        19.0520   29.9520    7.1780 C.3   101  LYS101      0.1093
     24  NZ        20.0320   29.2900    8.0860 N.3   101  LYS101     -0.1314
     25  N         11.6190   44.1030    6.0410 N.3   132  GLY132     -0.1210
     26  CA        10.2040   43.8340    5.8130 C.3   132  GLY132      0.1956
     27  C          9.7860   42.3790    5.9490 C.2   132  GLY132      0.2613
     28  O          8.6990   42.0050    5.4980 O.2   132  GLY132     -0.2717
     29  N         10.6360   41.5360    6.5670 N.am  133  THR133     -0.1938
     30  CA        10.2570   40.1330    6.7800 C.3   133  THR133      0.2028
     31  C          9.1570   40.1230    7.8080 C.2   133  THR133      0.2642
     32  O          9.2490   40.8540    8.7880 O.2   133  THR133     -0.2714
     33  CB        11.4660   39.3210    7.2650 C.3   133  THR133      0.1808
     34  OG1       12.3730   39.2490    6.1790 O.3   133  THR133     -0.2208
     35  CG2       11.0880   37.8940    7.7140 C.3   133  THR133      0.0379
     36  N          8.1000   39.3380    7.5690 N.am  134  LEU134     -0.1963
     37  CA         6.9810   39.2170    8.5040 C.3   134  LEU134      0.1728
     38  C          6.8770   37.8060    9.0940 C.2   134  LEU134      0.2617
     39  O          6.3020   37.6180   10.1650 O.2   134  LEU134     -0.2715
     40  CB         5.6580   39.6180    7.8450 C.3   134  LEU134      0.0311
     41  CG         5.6120   41.0260    7.2800 C.3   134  LEU134      0.0022
     42  CD1        5.4130   40.9870    5.7770 C.3   134  LEU134      0.0001
     43  CD2        4.5200   41.8280    7.9220 C.3   134  LEU134      0.0001
     44  N          7.4310   36.8220    8.4010 N.am  135  GLY135     -0.1940
     45  CA         7.3850   35.4630    8.9160 C.3   135  GLY135      0.2014
     46  C          8.4150   34.5530    8.3050 C.2   135  GLY135      0.2638
     47  O          9.1710   34.9560    7.4150 O.2   135  GLY135     -0.2714
     48  N          8.4070   33.3000    8.7590 N.am  136  LEU136     -0.1977
     49  CA         9.2890   32.2490    8.2410 C.3   136  LEU136      0.1596
     50  C          8.6720   30.8820    8.5620 C.2   136  LEU136      0.2287
     51  O          7.9530   30.7690    9.5360 O.2   136  LEU136     -0.2864
     52  CB        10.7210   32.3850    8.8150 C.3   136  LEU136      0.0297
     53  CG        11.8210   31.5760    8.1120 C.3   136  LEU136      0.0022
     54  CD1       12.1560   32.1340    6.6880 C.3   136  LEU136      0.0001
     55  CD2       13.0740   31.5300    8.9550 C.3   136  LEU136      0.0001
     56  N         -2.7360   37.0460    5.7870 N.3   187  LEU187     -0.1231
     57  CA        -1.9280   36.6960    4.6320 C.3   187  LEU187      0.1693
     58  C         -0.5010   36.2440    4.9570 C.2   187  LEU187      0.2591
     59  O          0.0320   35.3750    4.2520 O.2   187  LEU187     -0.2718
     60  CB        -1.9960   37.7930    3.5760 C.3   187  LEU187      0.0284
     61  CG        -3.3980   37.8980    2.9160 C.3   187  LEU187      0.0019
     62  CD1       -3.4110   38.9180    1.8420 C.3   187  LEU187      0.0001
     63  CD2       -3.8800   36.5330    2.3630 C.3   187  LEU187      0.0001
     64  N          0.0860   36.7740    6.0500 N.am  188  VAL188     -0.1980
     65  CA         1.4300   36.3440    6.5080 C.3   188  VAL188      0.1595
     66  C          1.2950   34.8640    6.9500 C.2   188  VAL188      0.2287
     67  O          2.0430   34.0090    6.4710 O.2   188  VAL188     -0.2864
     68  CB         2.0040   37.2420    7.6450 C.3   188  VAL188      0.0276
     69  CG1        3.3120   36.6590    8.2190 C.3   188  VAL188      0.0022
     70  CG2        2.2130   38.6810    7.1530 C.3   188  VAL188      0.0022
     71  N          0.7410   32.6590    3.8330 N.3   191  HIS191     -0.1226
     72  CA         2.0220   32.4930    3.1410 C.3   191  HIS191      0.1752
     73  C          2.9300   31.4950    3.8830 C.2   191  HIS191      0.2595
     74  O          3.5380   30.6400    3.2430 O.2   191  HIS191     -0.2718
     75  CB         2.7270   33.8590    3.0480 C.3   191  HIS191      0.0759
     76  CG         3.9920   33.8250    2.2640 C.ar  191  HIS191      0.0818
     77  ND1        4.0030   34.1120    0.9160 N.ar  191  HIS191     -0.2268
     78  CD2        5.2630   33.5850    2.6780 C.ar  191  HIS191      0.1154
     79  CE1        5.2710   34.0050    0.5380 C.ar  191  HIS191      0.1986
     80  NE2        6.0580   33.6650    1.5570 N.ar  191  HIS191     -0.2212
     81  N          3.0050   31.6030    5.2300 N.am  192  GLU192     -0.1979
     82  CA         3.8190   30.7190    6.0850 C.3   192  GLU192      0.1602
     83  C          3.3420   29.2820    6.0240 C.2   192  GLU192      0.2287
     84  O          4.1440   28.3700    5.7630 O.2   192  GLU192     -0.2864
     85  CB         3.9230   31.2560    7.5370 C.3   192  GLU192      0.0415
     86  CG         4.7230   32.5660    7.6530 C.3   192  GLU192      0.1163
     87  CD         5.9020   32.7320    6.7000 C.2   192  GLU192      0.3649
     88  OE1        6.5810   31.7200    6.4010 O.co2 192  GLU192     -0.2457
     89  OE2        6.1300   33.8680    6.2280 O.co2 192  GLU192     -0.2457
     90  N          4.1940   27.6730    2.7350 N.3   195  HIS195     -0.1241
     91  CA         5.5080   27.0210    2.7040 C.3   195  HIS195      0.1621
     92  C          5.4280   25.6830    3.4450 C.2   195  HIS195      0.2264
     93  O          5.9510   24.6980    2.9310 O.2   195  HIS195     -0.2867
     94  CB         6.6030   27.9060    3.3160 C.3   195  HIS195      0.0745
     95  CG         7.0160   29.0760    2.4710 C.ar  195  HIS195      0.0817
     96  ND1        7.3880   28.9180    1.1390 N.ar  195  HIS195     -0.2268
     97  CD2        7.2210   30.3610    2.8370 C.ar  195  HIS195      0.1154
     98  CE1        7.7750   30.1160    0.7320 C.ar  195  HIS195      0.1986
     99  NE2        7.7050   31.0130    1.7260 N.ar  195  HIS195     -0.2212
    100  N          8.0520   30.1490   -3.5990 N.3   201  HIS201     -0.1241
    101  CA         7.4600   31.3940   -4.0970 C.3   201  HIS201      0.1621
    102  C          7.0170   31.3010   -5.5440 C.2   201  HIS201      0.2264
    103  O          7.5470   30.5020   -6.3090 O.2   201  HIS201     -0.2867
    104  CB         8.3980   32.5950   -3.9250 C.3   201  HIS201      0.0745
    105  CG         8.6750   32.9140   -2.5010 C.ar  201  HIS201      0.0817
    106  ND1        9.9450   33.2420   -2.0770 N.ar  201  HIS201     -0.2268
    107  CD2        7.8400   32.8810   -1.4330 C.ar  201  HIS201      0.1154
    108  CE1        9.8400   33.4310   -0.7700 C.ar  201  HIS201      0.1986
    109  NE2        8.5830   33.2160   -0.3380 N.ar  201  HIS201     -0.2212
    110  N         -0.8390   34.8170   -3.1010 N.3   220  VAL220     -0.1245
    111  CA        -0.2770   34.7820   -1.7390 C.3   220  VAL220      0.1561
    112  C          1.2090   34.3580   -1.6150 C.2   220  VAL220      0.2260
    113  O          1.9040   34.8500   -0.7190 O.2   220  VAL220     -0.2867
    114  CB        -1.2130   34.0320   -0.7410 C.3   220  VAL220      0.0252
    115  CG1       -1.1100   32.5150   -0.9040 C.3   220  VAL220      0.0019
    116  CG2       -0.9300   34.4520    0.7030 C.3   220  VAL220      0.0019
    117  N          3.5930   35.0620   -3.6990 N.3   222  TYR222     -0.1228
    118  CA         4.4840   36.0120   -4.3570 C.3   222  TYR222      0.1721
    119  C          5.6490   36.3630   -3.3790 C.2   222  TYR222      0.2437
    120  O          5.3980   36.4900   -2.1770 O.2   222  TYR222     -0.2733
    121  CB         3.7230   37.2620   -4.8150 C.3   222  TYR222      0.0547
    122  CG         4.4950   38.0750   -5.8340 C.ar  222  TYR222     -0.0200
    123  CD1        4.6710   37.6120   -7.1370 C.ar  222  TYR222     -0.0009
    124  CD2        5.0910   39.2840   -5.4840 C.ar  222  TYR222     -0.0009
    125  CE1        5.4360   38.3260   -8.0600 C.ar  222  TYR222      0.0417
    126  CE2        5.8280   40.0250   -6.4110 C.ar  222  TYR222      0.0417
    127  CZ         5.9920   39.5440   -7.6990 C.ar  222  TYR222      0.1957
    128  OH         6.7310   40.2620   -8.6100 O.3   222  TYR222     -0.2866
    129  N          6.9250   36.4730   -3.8500 N.am  223  PRO223     -0.2729
    130  CA         8.0380   36.6950   -2.9040 C.3   223  PRO223      0.1401
    131  C          8.0190   38.0370   -2.1710 C.2   223  PRO223      0.2269
    132  O          8.5700   38.1170   -1.0780 O.2   223  PRO223     -0.2865
    133  CB         9.2940   36.4950   -3.7710 C.3   223  PRO223      0.0296
    134  CG         8.8370   36.8570   -5.1530 C.3   223  PRO223      0.0237
    135  CD         7.4270   36.3050   -5.2270 C.3   223  PRO223      0.0939
    136  N          5.7680   40.4990   -0.1800 N.3   225  ALA225     -0.1231
    137  CA         4.5610   40.3390    0.6080 C.3   225  ALA225      0.1694
    138  C          3.3430   41.0910    0.0960 C.2   225  ALA225      0.2591
    139  O          3.3800   42.3060   -0.0540 O.2   225  ALA225     -0.2718
    140  CB         4.8250   40.6500    2.0810 C.3   225  ALA225      0.0304
    141  N          2.2820   40.3480   -0.2370 N.am  226  VAL226     -0.1980
    142  CA         1.0240   40.9470   -0.6850 C.3   226  VAL226      0.1595
    143  C          0.3650   41.7030    0.4880 C.2   226  VAL226      0.2287
    144  O          0.4980   41.2980    1.6460 O.2   226  VAL226     -0.2864
    145  CB         0.0550   39.9470   -1.3570 C.3   226  VAL226      0.0276
    146  CG1        0.5970   39.4900   -2.7100 C.3   226  VAL226      0.0022
    147  CG2       -0.2800   38.7660   -0.4430 C.3   226  VAL226      0.0022
@<TRIPOS>BOND
     1   128   127    1
     2   125   127   ar
     3   125   123   ar
     4   127   126   ar
     5   123   122   ar
     6   126   124   ar
     7   103   102    2
     8   122   124   ar
     9   122   121    1
    10   102   101    1
    11   135   134    1
    12   135   129    1
    13   134   133    1
    14   121   118    1
    15   118   117    1
    16   118   119    1
    17   101   104    1
    18   101   100    1
    19   104   105    1
    20   129   119   am
    21   129   130    1
    22   133   130    1
    23   119   120    2
    24   110   111    1
    25   130   131    1
    26   146   145    1
    27   105   106   ar
    28   105   107   ar
    29   131   132    2
    30   106   108   ar
    31   111   112    1
    32   111   114    1
    33   112   113    2
    34   107   109   ar
    35   145   142    1
    36   145   147    1
    37   115   114    1
    38   108   109   ar
    39   114   116    1
    40   142   141    1
    41   142   143    1
    42   141   138   am
    43   136   137    1
    44   139   138    2
    45   138   137    1
    46   143   144    2
    47    79    77   ar
    48    79    80   ar
    49   137   140    1
    50    98    96   ar
    51    98    99   ar
    52    77    76   ar
    53    96    95   ar
    54    80    78   ar
    55    99    97   ar
    56    62    61    1
    57    76    78   ar
    58    76    75    1
    59    63    61    1
    60    95    97   ar
    61    95    94    1
    62    91    90    1
    63    91    94    1
    64    91    92    1
    65    61    60    1
    66    93    92    2
    67    75    72    1
    68    72    71    1
    69    72    73    1
    70    74    73    2
    71    60    57    1
    72    73    81   am
    73    59    58    2
    74    57    58    1
    75    57    56    1
    76    58    64   am
    77    81    82    1
    78    28    27    2
    79    84    83    2
    80    42    41    1
    81    26    27    1
    82    26    25    1
    83    27    29   am
    84    83    82    1
    85    64    65    1
    86    82    85    1
    87    34    33    1
    88    89    87   ar
    89    88    87   ar
    90    67    66    2
    91    65    66    1
    92    65    68    1
    93    29    30    1
    94    54    53    1
    95    87    86    1
    96    30    33    1
    97    30    31    1
    98    70    68    1
    99    23    22    1
   100    23    24    1
   101    33    35    1
   102    41    40    1
   103    41    43    1
   104    47    46    2
   105    85    86    1
   106    36    31   am
   107    36    37    1
   108    68    69    1
   109    22    21    1
   110    31    32    2
   111    40    37    1
   112    53    52    1
   113    53    55    1
   114    49    50    1
   115    49    48    1
   116    49    52    1
   117    46    48   am
   118    46    45    1
   119    44    45    1
   120    44    38   am
   121    37    38    1
   122    50    51    2
   123    21    20    1
   124    38    39    2
   125    14    13    1
   126    20    17    1
   127    17    16    1
   128    17    18    1
   129    13    15    1
   130    13    10    1
   131    16    11   am
   132     7     6   ar
   133     8     6   ar
   134    11    10    1
   135    11    12    2
   136     6     5    1
   137    10     9    1
   138    18    19    2
   139     9     3   am
   140     3     2    1
   141     3     4    2
   142     5     2    1
   143     2     1    1
