@<TRIPOS>MOLECULE
tmp/3leeF00.pdb
 176 165 0 0 0
SMALL
GASTEIGER

@<TRIPOS>ATOM
      1  N         14.0960  -37.2270   96.5530 N.3    17  PHE17      -0.1241
      2  CA        13.2990  -37.5570   95.3740 C.3    17  PHE17       0.1605
      3  C         12.1620  -36.5460   95.2110 C.2    17  PHE17       0.2264
      4  O         11.8590  -36.1080   94.1010 O.2    17  PHE17      -0.2867
      5  CB        12.6930  -38.9580   95.5190 C.3    17  PHE17       0.0534
      6  CG        13.5130  -40.0540   94.8890 C.ar   17  PHE17      -0.0203
      7  CD1       13.6340  -40.1440   93.5070 C.ar   17  PHE17      -0.0042
      8  CD2       14.0980  -41.0410   95.6780 C.ar   17  PHE17      -0.0042
      9  CE1       14.3620  -41.1700   92.9240 C.ar   17  PHE17      -0.0003
     10  CE2       14.8280  -42.0710   95.1030 C.ar   17  PHE17      -0.0003
     11  CZ        14.9550  -42.1400   93.7230 C.ar   17  PHE17      -0.0000
     12  N         11.0820  -34.7600   91.7560 N.3    21  ILE21      -0.1245
     13  CA         9.8060  -35.1260   91.1400 C.3    21  ILE21       0.1561
     14  C          8.9920  -33.8800   90.7900 C.2    21  ILE21       0.2260
     15  O          8.4770  -33.7420   89.6770 O.2    21  ILE21      -0.2867
     16  CB         8.9550  -36.0050   92.0910 C.3    21  ILE21       0.0252
     17  CG1        9.6100  -37.3720   92.3010 C.3    21  ILE21       0.0019
     18  CG2        7.5390  -36.1850   91.5390 C.3    21  ILE21       0.0019
     19  CD1        8.9880  -38.1780   93.4240 C.3    21  ILE21       0.0001
     20  N          4.5180  -39.3220   88.1340 N.3    32  VAL32      -0.1245
     21  CA         5.5620  -39.9910   88.9090 C.3    32  VAL32       0.1561
     22  C          5.3500  -39.7780   90.4090 C.2    32  VAL32       0.2260
     23  O          5.5380  -40.6950   91.2110 O.2    32  VAL32      -0.2867
     24  CB         6.9630  -39.4870   88.5060 C.3    32  VAL32       0.0252
     25  CG1        8.0450  -40.2660   89.2410 C.3    32  VAL32       0.0019
     26  CG2        7.1470  -39.5920   86.9990 C.3    32  VAL32       0.0019
     27  N          3.1020  -42.2660   91.1180 N.3    35  PHE35      -0.1227
     28  CA         3.7900  -43.5370   90.9330 C.3    35  PHE35       0.1736
     29  C          4.7380  -43.8180   92.1000 C.2    35  PHE35       0.2595
     30  O          4.9480  -44.9760   92.4760 O.2    35  PHE35      -0.2718
     31  CB         4.5350  -43.5470   89.5930 C.3    35  PHE35       0.0547
     32  CG         5.3310  -44.8000   89.3410 C.ar   35  PHE35      -0.0202
     33  CD1        4.8350  -46.0410   89.6930 C.ar   35  PHE35      -0.0042
     34  CD2        6.5710  -44.7300   88.7190 C.ar   35  PHE35      -0.0042
     35  CE1        5.5780  -47.1860   89.4650 C.ar   35  PHE35      -0.0003
     36  CE2        7.3160  -45.8690   88.4840 C.ar   35  PHE35      -0.0003
     37  CZ         6.8190  -47.0990   88.8520 C.ar   35  PHE35      -0.0000
     38  N          5.2440  -42.7600   92.7260 N.am   36  TYR36      -0.1976
     39  CA         5.9980  -42.9200   93.9640 C.3    36  TYR36       0.1639
     40  C          5.0850  -43.3000   95.1160 C.2    36  TYR36       0.2290
     41  O          5.3680  -44.2400   95.8590 O.2    36  TYR36      -0.2864
     42  CB         6.7580  -41.6490   94.3350 C.3    36  TYR36       0.0560
     43  CG         7.4410  -41.7670   95.6770 C.ar   36  TYR36      -0.0198
     44  CD1        6.7820  -41.4060   96.8450 C.ar   36  TYR36      -0.0009
     45  CD2        8.7000  -42.3470   95.7860 C.ar   36  TYR36      -0.0009
     46  CE1        7.3870  -41.5560   98.0840 C.ar   36  TYR36       0.0417
     47  CE2        9.3150  -42.5050   97.0200 C.ar   36  TYR36       0.0417
     48  CZ         8.6530  -42.1080   98.1680 C.ar   36  TYR36       0.1957
     49  OH         9.2480  -42.2760   99.4000 O.3    36  TYR36      -0.2866
     50  N          3.6060  -46.8100   94.8930 N.3    39  LEU39      -0.1231
     51  CA         4.6210  -47.8080   95.2280 C.3    39  LEU39       0.1693
     52  C          5.0640  -47.6810   96.6770 C.2    39  LEU39       0.2591
     53  O          5.5690  -48.6370   97.2670 O.2    39  LEU39      -0.2718
     54  CB         5.8380  -47.6610   94.3130 C.3    39  LEU39       0.0284
     55  CG         5.6650  -48.2200   92.9030 C.3    39  LEU39       0.0019
     56  CD1        7.0140  -48.3650   92.2240 C.3    39  LEU39       0.0001
     57  CD2        4.9380  -49.5570   92.9470 C.3    39  LEU39       0.0001
     58  N          4.9110  -46.4880   97.2390 N.am   40  ARG40      -0.1980
     59  CA         5.2040  -46.2870   98.6450 C.3    40  ARG40       0.1597
     60  C          4.2670  -47.1290   99.4910 C.2    40  ARG40       0.2287
     61  O          4.7040  -47.8240  100.4060 O.2    40  ARG40      -0.2864
     62  CB         5.0700  -44.8160   99.0310 C.3    40  ARG40       0.0334
     63  CG         5.7610  -44.4760  100.3440 C.3    40  ARG40       0.0492
     64  CD         7.2730  -44.6700  100.2390 C.3    40  ARG40       0.2205
     65  NE         7.8780  -45.0400  101.5160 N.pl3  40  ARG40      -0.0865
     66  CZ         9.0950  -45.5620  101.6460 C.cat  40  ARG40       0.5346
     67  NH1        9.8560  -45.7740  100.5750 N.pl3  40  ARG40       0.1354
     68  NH2        9.5530  -45.8770  102.8540 N.pl3  40  ARG40       0.1354
     69  N          5.0130  -50.9880   99.2000 N.3    43  ASP43      -0.1239
     70  CA         6.1440  -51.3330  100.0580 C.3    43  ASP43       0.1674
     71  C          5.7290  -51.4020  101.5260 C.2    43  ASP43       0.2266
     72  O          6.0910  -52.3440  102.2330 O.2    43  ASP43      -0.2867
     73  CB         7.2800  -50.3200   99.8990 C.3    43  ASP43       0.1410
     74  CG         8.4200  -50.5600  100.8850 C.2    43  ASP43       0.3668
     75  OD1        8.9250  -51.7030  100.9400 O.co2  43  ASP43      -0.2456
     76  OD2        8.8050  -49.6130  101.6080 O.co2  43  ASP43      -0.2456
     77  N          4.7320  -54.8660  102.4160 N.3    46  GLU46      -0.1231
     78  CA         5.9200  -55.7160  102.4670 C.3    46  GLU46       0.1699
     79  C          6.7220  -55.4560  103.7410 C.2    46  GLU46       0.2592
     80  O          7.2860  -56.3770  104.3260 O.2    46  GLU46      -0.2718
     81  CB         6.8060  -55.4740  101.2410 C.3    46  GLU46       0.0402
     82  CG         8.1240  -56.2490  101.2490 C.3    46  GLU46       0.1161
     83  CD         9.1700  -55.6460  100.3220 C.2    46  GLU46       0.3649
     84  OE1        9.3880  -54.4150  100.3800 O.co2  46  GLU46      -0.2457
     85  OE2        9.7900  -56.4060   99.5470 O.co2  46  GLU46      -0.2457
     86  N          6.7740  -54.1960  104.1610 N.am   47  ASP47      -0.1974
     87  CA         7.6170  -53.7920  105.2830 C.3    47  ASP47       0.1709
     88  C          7.0180  -54.1850  106.6300 C.2    47  ASP47       0.2293
     89  O          7.7460  -54.3750  107.6030 O.2    47  ASP47      -0.2864
     90  CB         7.8500  -52.2780  105.2520 C.3    47  ASP47       0.1436
     91  CG         8.7370  -51.8440  104.0990 C.2    47  ASP47       0.3671
     92  OD1        8.9850  -52.6660  103.1910 O.co2  47  ASP47      -0.2456
     93  OD2        9.1920  -50.6800  104.1050 O.co2  47  ASP47      -0.2456
     94  N          5.2960  -56.2850   90.4010 N.3   113  MET113     -0.1245
     95  CA         6.0230  -56.2980   91.6630 C.3   113  MET113      0.1570
     96  C          5.3190  -57.1820   92.6800 C.2   113  MET113      0.2261
     97  O          5.9630  -57.9560   93.3920 O.2   113  MET113     -0.2867
     98  CB         6.1520  -54.8830   92.2160 C.3   113  MET113      0.0387
     99  CG         7.2590  -54.0850   91.5670 C.3   113  MET113      0.0595
    100  SD         7.5490  -52.5070   92.3830 S.3   113  MET113     -0.1393
    101  CE         7.7470  -53.0340   94.0860 C.3   113  MET113      0.0692
    102  N          7.3530  -59.5700   94.9140 N.3   117  MET117     -0.1245
    103  CA         7.5140  -59.3710   96.3520 C.3   117  MET117      0.1570
    104  C          6.9680  -60.5730   97.1200 C.2   117  MET117      0.2261
    105  O          7.5890  -61.0540   98.0710 O.2   117  MET117     -0.2867
    106  CB         6.7920  -58.0970   96.7920 C.3   117  MET117      0.0387
    107  CG         7.4610  -56.8190   96.3170 C.3   117  MET117      0.0595
    108  SD         6.4950  -55.3440   96.6910 S.3   117  MET117     -0.1393
    109  CE         7.7940  -54.2100   97.1870 C.3   117  MET117      0.0692
    110  N         15.6740  -59.9730   93.0410 N.3   134  TYR134     -0.1241
    111  CA        14.9320  -59.3100   94.1150 C.3   134  TYR134      0.1605
    112  C         14.8390  -57.8120   93.8570 C.2   134  TYR134      0.2264
    113  O         13.7640  -57.2180   93.9440 O.2   134  TYR134     -0.2867
    114  CB        15.5920  -59.5440   95.4760 C.3   134  TYR134      0.0534
    115  CG        14.9860  -58.6920   96.5690 C.ar  134  TYR134     -0.0201
    116  CD1       13.7660  -59.0350   97.1390 C.ar  134  TYR134     -0.0009
    117  CD2       15.5760  -57.4920   96.9590 C.ar  134  TYR134     -0.0009
    118  CE1       13.1780  -58.2450   98.1140 C.ar  134  TYR134      0.0417
    119  CE2       14.9920  -56.6890   97.9330 C.ar  134  TYR134      0.0417
    120  CZ        13.7930  -57.0770   98.5090 C.ar  134  TYR134      0.1957
    121  OH        13.1940  -56.3000   99.4740 O.3   134  TYR134     -0.2866
    122  N         11.8370  -55.0310   93.1300 N.3   138  VAL138     -0.1231
    123  CA        11.5690  -53.9750   94.1060 C.3   138  VAL138      0.1692
    124  C         12.1330  -52.6160   93.6910 C.2   138  VAL138      0.2591
    125  O         11.8330  -51.6030   94.3250 O.2   138  VAL138     -0.2718
    126  CB        12.1390  -54.3430   95.4900 C.3   138  VAL138      0.0266
    127  CG1       11.5610  -55.6660   95.9620 C.3   138  VAL138      0.0020
    128  CG2       13.6540  -54.4120   95.4430 C.3   138  VAL138      0.0020
    129  N         12.9330  -52.5960   92.6250 N.am  139  ALA139     -0.1980
    130  CA        13.7290  -51.4160   92.2750 C.3   139  ALA139      0.1597
    131  C         14.0430  -51.3570   90.7810 C.2   139  ALA139      0.2287
    132  O         13.8950  -50.3150   90.1490 O.2   139  ALA139     -0.2864
    133  CB        15.0170  -51.4000   93.0780 C.3   139  ALA139      0.0319
    134  N         10.8110  -50.5590   88.8800 N.3   142  VAL142     -0.1245
    135  CA        10.5510  -49.1310   89.0900 C.3   142  VAL142      0.1561
    136  C         11.2020  -48.2630   88.0010 C.2   142  VAL142      0.2260
    137  O         10.5570  -47.3770   87.4370 O.2   142  VAL142     -0.2867
    138  CB        11.0680  -48.6600   90.4760 C.3   142  VAL142      0.0252
    139  CG1       10.4330  -47.3330   90.8590 C.3   142  VAL142      0.0019
    140  CG2       10.7960  -49.7120   91.5380 C.3   142  VAL142      0.0019
    141  N          9.6780  -46.0360   85.0240 N.3   146  LEU146     -0.1245
    142  CA        10.0370  -44.6310   84.8350 C.3   146  LEU146      0.1561
    143  C         10.3970  -44.3760   83.3740 C.2   146  LEU146      0.2260
    144  O          9.8520  -43.4730   82.7400 O.2   146  LEU146     -0.2867
    145  CB        11.2080  -44.2340   85.7410 C.3   146  LEU146      0.0270
    146  CG        10.9970  -44.3490   87.2540 C.3   146  LEU146      0.0019
    147  CD1       12.3350  -44.2830   87.9750 C.3   146  LEU146      0.0001
    148  CD2       10.0690  -43.2680   87.7640 C.3   146  LEU146      0.0001
    149  N         19.3420  -49.6140   94.4590 N.3   175  GLN175     -0.1245
    150  CA        18.8240  -50.5470   95.4570 C.3   175  GLN175      0.1566
    151  C         19.9570  -51.2580   96.1840 C.2   175  GLN175      0.2260
    152  O         19.9450  -51.3820   97.4110 O.2   175  GLN175     -0.2867
    153  CB        17.9100  -51.5800   94.7910 C.3   175  GLN175      0.0367
    154  CG        17.2140  -52.5280   95.7610 C.3   175  GLN175      0.0905
    155  CD        16.0100  -51.9000   96.4380 C.2   175  GLN175      0.2608
    156  OE1       15.9210  -50.6780   96.5680 O.2   175  GLN175     -0.2717
    157  NE2       15.0810  -52.7380   96.8870 N.am  175  GLN175     -0.0878
    158  N         21.7020  -48.9760   98.7840 N.3   178  ASN178     -0.1240
    159  CA        21.0190  -48.8600  100.0720 C.3   178  ASN178      0.1653
    160  C         21.4380  -49.9870  101.0210 C.2   178  ASN178      0.2266
    161  O         21.9140  -49.7460  102.1360 O.2   178  ASN178     -0.2867
    162  CB        19.4980  -48.8800   99.8690 C.3   178  ASN178      0.1155
    163  CG        18.9670  -47.5810   99.2680 C.2   178  ASN178      0.2627
    164  OD1       17.7830  -47.2530   99.4040 O.2   178  ASN178     -0.2716
    165  ND2       19.8430  -46.8370   98.5980 N.am  178  ASN178     -0.0877
    166  N         16.5500  -35.7840   87.2930 N.3   203  PHE203     -0.1241
    167  CA        15.8310  -36.7250   88.1290 C.3   203  PHE203      0.1605
    168  C         16.5800  -38.0370   88.1580 C.2   203  PHE203      0.2264
    169  O         16.6320  -38.6930   89.1900 O.2   203  PHE203     -0.2867
    170  CB        14.4070  -36.9310   87.6020 C.3   203  PHE203      0.0534
    171  CG        13.6850  -38.0900   88.2260 C.ar  203  PHE203     -0.0203
    172  CD1       12.9380  -37.9190   89.3750 C.ar  203  PHE203     -0.0042
    173  CD2       13.7210  -39.3430   87.6380 C.ar  203  PHE203     -0.0042
    174  CE1       12.2710  -38.9870   89.9480 C.ar  203  PHE203     -0.0003
    175  CE2       13.0560  -40.4130   88.2080 C.ar  203  PHE203     -0.0003
    176  CZ        12.3270  -40.2330   89.3590 C.ar  203  PHE203     -0.0000
@<TRIPOS>BOND
     1   144   143    2
     2   143   142    1
     3   142   141    1
     4   142   145    1
     5   145   146    1
     6    26    24    1
     7   146   148    1
     8   146   147    1
     9   166   167    1
    10   137   136    2
    11   170   167    1
    12   170   171    1
    13   173   175   ar
    14   173   171   ar
    15   136   135    1
    16   167   168    1
    17    20    21    1
    18   168   169    2
    19   175   176   ar
    20   171   172   ar
    21    36    34   ar
    22    36    37   ar
    23    24    21    1
    24    24    25    1
    25    34    32   ar
    26    37    35   ar
    27   134   135    1
    28    21    22    1
    29   135   138    1
    30    32    31    1
    31    32    33   ar
    32   176   174   ar
    33   172   174   ar
    34    35    33   ar
    35    31    28    1
    36    15    14    2
    37   132   131    2
    38    94    95    1
    39    22    23    2
    40   138   139    1
    41   138   140    1
    42   131   130    1
    43    14    13    1
    44    28    27    1
    45    28    29    1
    46    13    12    1
    47    13    16    1
    48    18    16    1
    49    99    98    1
    50    99   100    1
    51    95    98    1
    52    95    96    1
    53    16    17    1
    54    29    30    2
    55    29    38   am
    56    56    55    1
    57   130   129    1
    58   130   133    1
    59    17    19    1
    60   100   101    1
    61   129   124   am
    62    96    97    2
    63    38    39    1
    64    55    57    1
    65    55    54    1
    66     9     7   ar
    67     9    11   ar
    68   110   111    1
    69   122   123    1
    70     7     6   ar
    71   124   123    1
    72   124   125    2
    73    11    10   ar
    74   112   113    2
    75   112   111    1
    76    39    42    1
    77    39    40    1
    78     4     3    2
    79   123   126    1
    80   111   114    1
    81    54    51    1
    82    42    43    1
    83   149   150    1
    84   153   150    1
    85   153   154    1
    86     6     5    1
    87     6     8   ar
    88    50    51    1
    89   102   103    1
    90    10     8   ar
    91    40    41    2
    92     3     2    1
    93    51    52    1
    94     2     5    1
    95     2     1    1
    96   128   126    1
    97   150   151    1
    98   114   115    1
    99   126   127    1
   100    43    45   ar
   101    43    44   ar
   102   154   155    1
   103    45    47   ar
   104   151   152    2
   105   107   108    1
   106   107   106    1
   107   103   106    1
   108   103   104    1
   109   155   156    2
   110   155   157   am
   111   115   117   ar
   112   115   116   ar
   113    52    58   am
   114    52    53    2
   115   108   109    1
   116    44    46   ar
   117   117   119   ar
   118    47    48   ar
   119   104   105    2
   120   116   118   ar
   121    58    59    1
   122   119   120   ar
   123    46    48   ar
   124   118   120   ar
   125    48    49    1
   126   120   121    1
   127   165   163   am
   128    59    62    1
   129    59    60    1
   130   158   159    1
   131    62    63    1
   132    69    70    1
   133   163   164    2
   134   163   162    1
   135    60    61    2
   136    85    83   ar
   137   162   159    1
   138    73    70    1
   139    73    74    1
   140    70    71    1
   141   159   160    1
   142    64    63    1
   143    64    65    1
   144    83    84   ar
   145    83    82    1
   146    67    66    1
   147    74    75   ar
   148    74    76   ar
   149   160   161    2
   150    81    82    1
   151    81    78    1
   152    65    66    2
   153    71    72    2
   154    66    68    1
   155    77    78    1
   156    78    79    1
   157    92    91   ar
   158    79    86   am
   159    79    80    2
   160    91    93   ar
   161    91    90    1
   162    86    87    1
   163    90    87    1
   164    87    88    1
   165    88    89    2
