@<TRIPOS>MOLECULE
tmp/3leeE00.pdb
 221 206 0 0 0
SMALL
GASTEIGER

@<TRIPOS>ATOM
      1  N         26.2630   -4.4010   95.6960 N.3    16  ARG16      -0.1245
      2  CA        26.3110   -5.6560   96.4280 C.3    16  ARG16       0.1563
      3  C         26.1680   -6.8360   95.4690 C.2    16  ARG16       0.2260
      4  O         27.0810   -7.6510   95.3470 O.2    16  ARG16      -0.2867
      5  CB        25.2080   -5.6920   97.4860 C.3    16  ARG16       0.0307
      6  CG        25.2600   -6.9990   98.2560 C.3    16  ARG16       0.0489
      7  CD        24.1560   -7.1500   99.2330 C.3    16  ARG16       0.2205
      8  NE        22.8570   -6.8650   98.6360 N.pl3  16  ARG16      -0.0865
      9  CZ        21.7580   -6.6000   99.3400 C.cat  16  ARG16       0.5346
     10  NH1       21.7800   -6.5870  100.6810 N.pl3  16  ARG16       0.1354
     11  NH2       20.6460   -6.2850   98.7050 N.pl3  16  ARG16       0.1354
     12  N         24.5980   -7.4520   92.0200 N.3    18  PHE18      -0.1241
     13  CA        24.1910   -7.5030   90.6070 C.3    18  PHE18       0.1605
     14  C         25.2870   -7.2280   89.5710 C.2    18  PHE18       0.2264
     15  O         25.0730   -7.4430   88.3780 O.2    18  PHE18      -0.2867
     16  CB        23.0280   -6.5460   90.3680 C.3    18  PHE18       0.0534
     17  CG        21.7050   -7.0840   90.8150 C.ar   18  PHE18      -0.0203
     18  CD1       20.9750   -7.9290   89.9950 C.ar   18  PHE18      -0.0042
     19  CD2       21.1760   -6.7230   92.0430 C.ar   18  PHE18      -0.0042
     20  CE1       19.7410   -8.4110   90.3950 C.ar   18  PHE18      -0.0003
     21  CE2       19.9400   -7.1960   92.4450 C.ar   18  PHE18      -0.0003
     22  CZ        19.2240   -8.0440   91.6210 C.ar   18  PHE18      -0.0000
     23  N         24.9620   -8.8590   85.5980 N.3    22  ILE22      -0.1245
     24  CA        24.7610   -7.8540   84.5560 C.3    22  ILE22       0.1561
     25  C         25.8700   -7.9220   83.4930 C.2    22  ILE22       0.2260
     26  O         25.5970   -7.9820   82.2920 O.2    22  ILE22      -0.2867
     27  CB        24.7070   -6.4290   85.1460 C.3    22  ILE22       0.0252
     28  CG1       23.4640   -6.2540   86.0200 C.3    22  ILE22       0.0019
     29  CG2       24.6970   -5.3920   84.0290 C.3    22  ILE22       0.0019
     30  CD1       23.5910   -5.1290   87.0250 C.3    22  ILE22       0.0001
     31  N         21.3000   -2.6000   80.6520 N.3    33  VAL33      -0.1245
     32  CA        20.9220   -2.8890   82.0330 C.3    33  VAL33       0.1561
     33  C         21.8630   -2.1900   82.9940 C.2    33  VAL33       0.2260
     34  O         21.4480   -1.7250   84.0550 O.2    33  VAL33      -0.2867
     35  CB        20.9640   -4.3950   82.3330 C.3    33  VAL33       0.0252
     36  CG1       20.5820   -4.6590   83.7910 C.3    33  VAL33       0.0019
     37  CG2       20.0440   -5.1460   81.3860 C.3    33  VAL33       0.0019
     38  N         20.8160    1.3010   83.3300 N.3    36  PHE36      -0.1227
     39  CA        19.5410    1.3060   84.0360 C.3    36  PHE36       0.1736
     40  C         19.7730    1.2190   85.5430 C.2    36  PHE36       0.2595
     41  O         19.2300    2.0160   86.3090 O.2    36  PHE36      -0.2718
     42  CB        18.6630    0.1470   83.5550 C.3    36  PHE36       0.0547
     43  CG        17.2930    0.1270   84.1660 C.ar   36  PHE36      -0.0202
     44  CD1       16.6580    1.3030   84.5230 C.ar   36  PHE36      -0.0042
     45  CD2       16.6250   -1.0710   84.3480 C.ar   36  PHE36      -0.0042
     46  CE1       15.3900    1.2780   85.0750 C.ar   36  PHE36      -0.0003
     47  CE2       15.3570   -1.1030   84.8900 C.ar   36  PHE36      -0.0003
     48  CZ        14.7380    0.0710   85.2570 C.ar   36  PHE36      -0.0000
     49  N         20.6250    0.2820   85.9510 N.am   37  TYR37      -0.1976
     50  CA        21.0490    0.1800   87.3410 C.3    37  TYR37       0.1639
     51  C         21.7280    1.4610   87.8220 C.2    37  TYR37       0.2290
     52  O         21.4710    1.9270   88.9320 O.2    37  TYR37      -0.2864
     53  CB        22.0090   -0.9970   87.5300 C.3    37  TYR37       0.0560
     54  CG        22.5910   -1.0620   88.9250 C.ar   37  TYR37      -0.0198
     55  CD1       23.6640   -0.2560   89.2890 C.ar   37  TYR37      -0.0009
     56  CD2       22.0110   -1.8620   89.9040 C.ar   37  TYR37      -0.0009
     57  CE1       24.1680   -0.2730   90.5760 C.ar   37  TYR37       0.0417
     58  CE2       22.5040   -1.8820   91.1980 C.ar   37  TYR37       0.0417
     59  CZ        23.5830   -1.0850   91.5280 C.ar   37  TYR37       0.1957
     60  OH        24.0870   -1.1080   92.8110 O.3    37  TYR37      -0.2866
     61  N         19.2360    4.1770   88.6470 N.3    40  LEU40      -0.1231
     62  CA        18.3540    3.9140   89.7790 C.3    40  LEU40       0.1693
     63  C         19.0730    4.0370   91.1230 C.2    40  LEU40       0.2591
     64  O         18.4740    4.4690   92.1080 O.2    40  LEU40      -0.2718
     65  CB        17.6970    2.5350   89.6540 C.3    40  LEU40       0.0284
     66  CG        16.5120    2.4280   88.6870 C.3    40  LEU40       0.0019
     67  CD1       15.6260    1.2560   89.0700 C.3    40  LEU40       0.0001
     68  CD2       15.7030    3.7150   88.6450 C.3    40  LEU40       0.0001
     69  N         20.3510    3.6740   91.1700 N.am   41  ARG41      -0.1980
     70  CA        21.1840    4.0420   92.3120 C.3    41  ARG41       0.1597
     71  C         21.1470    5.5640   92.4810 C.2    41  ARG41       0.2287
     72  O         20.6020    6.0770   93.4620 O.2    41  ARG41      -0.2864
     73  CB        22.6190    3.5470   92.1290 C.3    41  ARG41       0.0334
     74  CG        23.6480    4.1000   93.1190 C.3    41  ARG41       0.0492
     75  CD        23.2800    3.7920   94.5710 C.3    41  ARG41       0.2205
     76  NE        23.1780    2.3590   94.8260 N.pl3  41  ARG41      -0.0865
     77  CZ        22.5060    1.8310   95.8530 C.cat  41  ARG41       0.5346
     78  NH1       21.8790    2.6190   96.7190 N.pl3  41  ARG41       0.1354
     79  NH2       22.4570    0.5190   96.0070 N.pl3  41  ARG41       0.1354
     80  N         18.1890    6.6220   94.0000 N.3    44  ASP44      -0.1239
     81  CA        17.9970    6.1170   95.3660 C.3    44  ASP44       0.1674
     82  C         18.9960    6.6730   96.3820 C.2    44  ASP44       0.2266
     83  O         18.7370    6.6460   97.5870 O.2    44  ASP44      -0.2867
     84  CB        18.0490    4.5910   95.4100 C.3    44  ASP44       0.1410
     85  CG        17.9160    4.0510   96.8270 C.2    44  ASP44       0.3668
     86  OD1       18.8930    3.4610   97.3390 O.co2  44  ASP44      -0.2456
     87  OD2       16.8570    4.2800   97.4540 O.co2  44  ASP44      -0.2456
     88  N         16.7060    9.4780   97.4740 N.3    47  GLU47      -0.1231
     89  CA        15.5920    9.0750   98.3280 C.3    47  GLU47       0.1699
     90  C         16.0750    8.7680   99.7460 C.2    47  GLU47       0.2592
     91  O         15.5150    9.2630  100.7250 O.2    47  GLU47      -0.2718
     92  CB        14.8850    7.8490   97.7390 C.3    47  GLU47       0.0402
     93  CG        13.5610    7.4980   98.4220 C.3    47  GLU47       0.1161
     94  CD        13.3380    5.9960   98.5640 C.2    47  GLU47       0.3649
     95  OE1       14.2430    5.2130   98.1950 O.co2  47  GLU47      -0.2457
     96  OE2       12.2570    5.5990   99.0540 O.co2  47  GLU47      -0.2457
     97  N         17.1400    7.9780   99.8460 N.am   48  ASP48      -0.1974
     98  CA        17.5680    7.4210  101.1280 C.3    48  ASP48       0.1709
     99  C         18.2940    8.4640  101.9890 C.2    48  ASP48       0.2293
    100  O         18.7050    8.1660  103.1150 O.2    48  ASP48      -0.2864
    101  CB        18.4770    6.2030  100.9020 C.3    48  ASP48       0.1436
    102  CG        17.7650    5.0550  100.1930 C.2    48  ASP48       0.3671
    103  OD1       16.5850    5.2140   99.8160 O.co2  48  ASP48      -0.2456
    104  OD2       18.3910    3.9880  100.0130 O.co2  48  ASP48      -0.2456
    105  N         26.8580    6.9470  101.6670 N.3    81  LYS81      -0.1245
    106  CA        27.4840    5.7920  101.0260 C.3    81  LYS81       0.1561
    107  C         28.3470    6.1920   99.8300 C.2    81  LYS81       0.2260
    108  O         29.5740    6.2100   99.9220 O.2    81  LYS81      -0.2867
    109  CB        26.4130    4.7890  100.5730 C.3    81  LYS81       0.0271
    110  CG        25.3320    4.4880  101.6090 C.3    81  LYS81       0.0035
    111  CD        24.2820    3.5320  101.0480 C.3    81  LYS81       0.0206
    112  CE        23.2030    3.2030  102.0740 C.3    81  LYS81       0.1093
    113  NZ        23.5220    1.9750  102.8510 N.3    81  LYS81      -0.1314
    114  N          9.4220    6.1390   89.2090 N.3   114  MET114     -0.1245
    115  CA        10.0010    5.8030   90.5050 C.3   114  MET114      0.1570
    116  C          9.9770    7.0110   91.4300 C.2   114  MET114      0.2261
    117  O          9.5250    6.9170   92.5690 O.2   114  MET114     -0.2867
    118  CB        11.4430    5.3200   90.3410 C.3   114  MET114      0.0387
    119  CG        11.5930    3.8110   90.3320 C.3   114  MET114      0.0595
    120  SD        13.3010    3.3100   90.5940 S.3   114  MET114     -0.1393
    121  CE        13.6390    4.1130   92.1590 C.3   114  MET114      0.0692
    122  N          8.5660    6.9870   95.1120 N.3   118  MET118     -0.1245
    123  CA         9.5360    7.4400   96.1030 C.3   118  MET118      0.1570
    124  C          9.0310    8.7030   96.8050 C.2   118  MET118      0.2261
    125  O          8.5920    8.6470   97.9550 O.2   118  MET118     -0.2867
    126  CB        10.8970    7.7030   95.4430 C.3   118  MET118      0.0387
    127  CG        11.7330    6.4440   95.2160 C.3   118  MET118      0.0595
    128  SD        13.3250    6.7670   94.4170 S.3   118  MET118     -0.1393
    129  CE        14.3090    5.4010   95.0370 C.3   118  MET118      0.0692
    130  N          4.3420   -0.0560   97.8200 N.3   135  TYR135     -0.1241
    131  CA         5.6220    0.6400   97.9780 C.3   135  TYR135      0.1605
    132  C          6.7580   -0.1080   97.2940 C.2   135  TYR135      0.2264
    133  O          7.6740    0.5010   96.7380 O.2   135  TYR135     -0.2867
    134  CB         5.9720    0.8310   99.4550 C.3   135  TYR135      0.0534
    135  CG         7.4060    1.2780   99.6790 C.ar  135  TYR135     -0.0201
    136  CD1        7.8230    2.5540   99.3110 C.ar  135  TYR135     -0.0009
    137  CD2        8.3540    0.4110  100.2130 C.ar  135  TYR135     -0.0009
    138  CE1        9.1360    2.9600   99.4890 C.ar  135  TYR135      0.0417
    139  CE2        9.6710    0.8110  100.3950 C.ar  135  TYR135      0.0417
    140  CZ        10.0530    2.0870  100.0360 C.ar  135  TYR135      0.1957
    141  OH        11.3560    2.4910  100.2130 O.3   135  TYR135     -0.2866
    142  N          9.6380    0.6880   94.1360 N.3   139  VAL139     -0.1245
    143  CA        11.0850    0.6590   94.3030 C.3   139  VAL139      0.1561
    144  C         11.7210   -0.6220   93.7690 C.2   139  VAL139      0.2260
    145  O         12.9330   -0.8030   93.8840 O.2   139  VAL139     -0.2867
    146  CB        11.4690    0.8270   95.7820 C.3   139  VAL139      0.0252
    147  CG1       10.6110    1.9080   96.4270 C.3   139  VAL139      0.0019
    148  CG2       11.3230   -0.4950   96.5290 C.3   139  VAL139      0.0019
    149  N         11.2620   -2.0110   88.7120 N.3   143  VAL143     -0.1245
    150  CA        12.5710   -2.4570   88.2540 C.3   143  VAL143      0.1561
    151  C         12.4210   -3.7410   87.4510 C.2   143  VAL143      0.2260
    152  O         13.0150   -3.8910   86.3870 O.2   143  VAL143     -0.2867
    153  CB        13.5420   -2.7070   89.4260 C.3   143  VAL143      0.0252
    154  CG1       14.9110   -3.1210   88.8970 C.3   143  VAL143      0.0019
    155  CG2       13.6570   -1.4700   90.2980 C.3   143  VAL143      0.0019
    156  N         13.5100   -4.1500   83.5450 N.3   147  LEU147     -0.1245
    157  CA        14.3830   -5.1840   83.0060 C.3   147  LEU147      0.1561
    158  C         13.6420   -6.0500   82.0000 C.2   147  LEU147      0.2260
    159  O         14.2340   -6.5540   81.0510 O.2   147  LEU147     -0.2867
    160  CB        14.9110   -6.0590   84.1390 C.3   147  LEU147      0.0270
    161  CG        15.7580   -5.3170   85.1660 C.3   147  LEU147      0.0019
    162  CD1       15.8510   -6.1210   86.4550 C.3   147  LEU147      0.0001
    163  CD2       17.1360   -5.0290   84.5830 C.3   147  LEU147      0.0001
    164  N         12.3570   -7.5610   97.0390 N.3   176  GLN176     -0.1245
    165  CA        12.3340   -6.4690   98.0140 C.3   176  GLN176      0.1566
    166  C         11.6910   -6.9070   99.3270 C.2   176  GLN176      0.2260
    167  O         12.1010   -6.4640  100.3990 O.2   176  GLN176     -0.2867
    168  CB        11.5750   -5.2590   97.4550 C.3   176  GLN176      0.0367
    169  CG        11.7190   -3.9820   98.2870 C.3   176  GLN176      0.0905
    170  CD        12.8810   -3.1070   97.8370 C.2   176  GLN176      0.2608
    171  OE1       13.3650   -3.2300   96.7130 O.2   176  GLN176     -0.2717
    172  NE2       13.3170   -2.2020   98.7090 N.am  176  GLN176     -0.0878
    173  N         13.6060   -6.2750  102.7160 N.3   180  ILE180     -0.1245
    174  CA        13.0080   -5.4510  103.7660 C.3   180  ILE180      0.1561
    175  C         12.7450   -6.2620  105.0410 C.2   180  ILE180      0.2260
    176  O         12.9210   -5.7580  106.1530 O.2   180  ILE180     -0.2867
    177  CB        11.6920   -4.8050  103.2950 C.3   180  ILE180      0.0252
    178  CG1       11.9770   -3.6820  102.2970 C.3   180  ILE180      0.0019
    179  CG2       10.9320   -4.2530  104.4760 C.3   180  ILE180      0.0019
    180  CD1       10.7510   -3.2080  101.5420 C.3   180  ILE180      0.0001
    181  N         16.5080   -6.9890  106.4370 N.3   183  ASP183     -0.1239
    182  CA        17.2420   -5.7800  106.8170 C.3   183  ASP183      0.1674
    183  C         16.5170   -4.9940  107.9070 C.2   183  ASP183      0.2266
    184  O         16.4570   -3.7680  107.8610 O.2   183  ASP183     -0.2867
    185  CB        17.4410   -4.8700  105.5980 C.3   183  ASP183      0.1410
    186  CG        18.6390   -5.2630  104.7640 C.2   183  ASP183      0.3668
    187  OD1       19.3990   -6.1530  105.2050 O.co2 183  ASP183     -0.2456
    188  OD2       18.8210   -4.6750  103.6730 O.co2 183  ASP183     -0.2456
    189  N         15.0120    3.6510  109.7200 N.3   192  ARG192     -0.1245
    190  CA        14.0630    3.4920  108.6230 C.3   192  ARG192      0.1563
    191  C         13.0660    2.3830  108.9710 C.2   192  ARG192      0.2260
    192  O         13.4280    1.3820  109.5930 O.2   192  ARG192     -0.2867
    193  CB        14.7930    3.1620  107.3110 C.3   192  ARG192      0.0307
    194  CG        16.2230    3.7120  107.2060 C.3   192  ARG192      0.0489
    195  CD        16.6660    3.8990  105.7520 C.3   192  ARG192      0.2205
    196  NE        16.8590    2.6300  105.0450 N.pl3 192  ARG192     -0.0865
    197  CZ        16.8750    2.4960  103.7180 C.cat 192  ARG192      0.5346
    198  NH1       16.7120    3.5500  102.9260 N.pl3 192  ARG192      0.1354
    199  NH2       17.0490    1.3000  103.1750 N.pl3 192  ARG192      0.1354
    200  N         10.0190   -0.0550  107.4090 N.3   194  PHE194     -0.1241
    201  CA         9.4860   -0.5250  106.1320 C.3   194  PHE194      0.1605
    202  C          8.5170   -1.6970  106.2690 C.2   194  PHE194      0.2264
    203  O          7.9680   -2.1760  105.2730 O.2   194  PHE194     -0.2867
    204  CB        10.6340   -0.9100  105.2030 C.3   194  PHE194      0.0534
    205  CG        11.5420    0.2320  104.8630 C.ar  194  PHE194     -0.0203
    206  CD1       11.0380    1.3840  104.2890 C.ar  194  PHE194     -0.0042
    207  CD2       12.9010    0.1480  105.1060 C.ar  194  PHE194     -0.0042
    208  CE1       11.8720    2.4290  103.9620 C.ar  194  PHE194     -0.0003
    209  CE2       13.7420    1.1860  104.7770 C.ar  194  PHE194     -0.0003
    210  CZ        13.2280    2.3310  104.2090 C.ar  194  PHE194     -0.0000
    211  N         20.9020  -14.1490   85.2940 N.3   252  PHE252     -0.1241
    212  CA        20.6390  -12.8230   85.8400 C.3   252  PHE252      0.1605
    213  C         19.3970  -12.8510   86.7210 C.2   252  PHE252      0.2264
    214  O         19.3920  -12.3020   87.8180 O.2   252  PHE252     -0.2867
    215  CB        20.4570  -11.8020   84.7070 C.3   252  PHE252      0.0534
    216  CG        19.9680  -10.4490   85.1730 C.ar  252  PHE252     -0.0203
    217  CD1       20.8680   -9.4450   85.5030 C.ar  252  PHE252     -0.0042
    218  CD2       18.6090  -10.1760   85.2590 C.ar  252  PHE252     -0.0042
    219  CE1       20.4200   -8.2020   85.9240 C.ar  252  PHE252     -0.0003
    220  CE2       18.1600   -8.9340   85.6720 C.ar  252  PHE252     -0.0003
    221  CZ        19.0660   -7.9490   86.0110 C.ar  252  PHE252     -0.0000
@<TRIPOS>BOND
     1    31    32    1
     2   159   158    2
     3    37    35    1
     4   158   157    1
     5    32    35    1
     6    32    33    1
     7    26    25    2
     8    35    36    1
     9    33    34    2
    10   157   156    1
    11   157   160    1
    12    38    39    1
    13    25    24    1
    14    42    39    1
    15    42    43    1
    16    29    27    1
    17    39    40    1
    18   160   161    1
    19    43    45   ar
    20    43    44   ar
    21    45    47   ar
    22    44    46   ar
    23    24    27    1
    24    24    23    1
    25   163   161    1
    26   215   216    1
    27   215   212    1
    28    47    48   ar
    29    46    48   ar
    30    27    28    1
    31   161   162    1
    32   216   218   ar
    33   216   217   ar
    34   218   220   ar
    35   211   212    1
    36   217   219   ar
    37    40    49   am
    38    40    41    2
    39   220   221   ar
    40   212   213    1
    41   219   221   ar
    42    49    50    1
    43    28    30    1
    44   152   151    2
    45   213   214    2
    46    50    53    1
    47    50    51    1
    48   151   150    1
    49    53    54    1
    50    51    52    2
    51   150   149    1
    52   150   153    1
    53    15    14    2
    54    68    66    1
    55    61    62    1
    56    66    67    1
    57    66    65    1
    58   154   153    1
    59    54    55   ar
    60    54    56   ar
    61   114   115    1
    62    55    57   ar
    63   153   155    1
    64    14    13    1
    65    65    62    1
    66    62    63    1
    67    56    58   ar
    68    18    20   ar
    69    18    17   ar
    70   119   118    1
    71   119   120    1
    72   118   115    1
    73    16    13    1
    74    16    17    1
    75    20    22   ar
    76   115   116    1
    77    57    59   ar
    78   120   121    1
    79    13    12    1
    80    17    19   ar
    81    63    69   am
    82    63    64    2
    83    69    70    1
    84    58    59   ar
    85   116   117    2
    86    59    60    1
    87    22    21   ar
    88    19    21   ar
    89    73    70    1
    90    73    74    1
    91    70    71    1
    92    71    72    2
    93    74    75    1
    94   144   145    2
    95   144   143    1
    96    80    81    1
    97   142   143    1
    98   143   146    1
    99   128   129    1
   100   128   127    1
   101    75    76    1
   102    76    77    2
   103   122   123    1
   104   127   126    1
   105     4     3    2
   106    81    84    1
   107    81    82    1
   108    84    85    1
   109   126   123    1
   110     3     2    1
   111     1     2    1
   112   146   147    1
   113   146   148    1
   114    77    79    1
   115    77    78    1
   116   123   124    1
   117    82    83    2
   118     2     5    1
   119   171   170    2
   120   133   132    2
   121   124   125    2
   122    85    86   ar
   123    85    87   ar
   124   164   165    1
   125   132   131    1
   126   168   165    1
   127   168   169    1
   128    88    89    1
   129     5     6    1
   130    92    89    1
   131    92    93    1
   132   130   131    1
   133   170   169    1
   134   170   172   am
   135   131   134    1
   136   165   166    1
   137    95    94   ar
   138     6     7    1
   139    89    90    1
   140    93    94    1
   141    94    96   ar
   142     8     7    1
   143     8     9    2
   144    11     9    1
   145   136   138   ar
   146   136   135   ar
   147   166   167    2
   148     9    10    1
   149   134   135    1
   150   138   140   ar
   151   135   137   ar
   152    90    97   am
   153    90    91    2
   154   103   102   ar
   155   107   108    2
   156   107   106    1
   157    97    98    1
   158   104   102   ar
   159   140   141    1
   160   140   139   ar
   161   102   101    1
   162   137   139   ar
   163   109   106    1
   164   109   110    1
   165   101    98    1
   166   106   105    1
   167   111   110    1
   168   111   112    1
   169    98    99    1
   170   180   178    1
   171    99   100    2
   172   112   113    1
   173   178   177    1
   174   173   174    1
   175   198   197    1
   176   199   197    1
   177   177   174    1
   178   177   179    1
   179   188   186   ar
   180   197   196    2
   181   174   175    1
   182   208   210   ar
   183   208   206   ar
   184   210   209   ar
   185   206   205   ar
   186   186   187   ar
   187   186   185    1
   188   209   207   ar
   189   205   207   ar
   190   205   204    1
   191   175   176    2
   192   196   195    1
   193   204   201    1
   194   203   202    2
   195   185   182    1
   196   195   194    1
   197   201   202    1
   198   201   200    1
   199   181   182    1
   200   182   183    1
   201   194   193    1
   202   193   190    1
   203   184   183    2
   204   190   191    1
   205   190   189    1
   206   191   192    2
