@<TRIPOS>MOLECULE
tmp/3lemA00.pdb
 225 217 0 0 0
SMALL
GASTEIGER

@<TRIPOS>ATOM
      1  N         77.7280   14.1790   71.5070 N.3    38  GLN38      -0.1245
      2  CA        77.6910   14.7410   70.1730 C.3    38  GLN38       0.1566
      3  C         77.5260   13.7220   69.0550 C.2    38  GLN38       0.2260
      4  O         77.9300   12.5550   69.1770 O.2    38  GLN38      -0.2867
      5  CB        78.9460   15.5900   69.9440 C.3    38  GLN38       0.0367
      6  CG        80.1030   14.8700   69.3130 C.3    38  GLN38       0.0905
      7  CD        80.0590   14.9090   67.7980 C.2    38  GLN38       0.2608
      8  OE1       80.1150   15.9760   67.1950 O.2    38  GLN38      -0.2717
      9  NE2       79.9630   13.7410   67.1760 N.am   38  GLN38      -0.0878
     10  N         78.1070   13.1970   64.8410 N.3    40  GLY40      -0.1210
     11  CA        78.7950   13.6810   63.6570 C.3    40  GLY40       0.1956
     12  C         78.0940   13.1890   62.3950 C.2    40  GLY40       0.2611
     13  O         76.8730   13.0390   62.3830 O.2    40  GLY40      -0.2717
     14  N         78.8580   12.9160   61.3420 N.am   41  ASP41      -0.1973
     15  CA        78.2730   12.4560   60.0820 C.3    41  ASP41       0.1709
     16  C         77.4590   11.1820   60.1920 C.2    41  ASP41       0.2293
     17  O         77.8610   10.2300   60.8740 O.2    41  ASP41      -0.2864
     18  CB        79.3330   12.1040   59.0420 C.3    41  ASP41       0.1436
     19  CG        80.3050   13.2060   58.7760 C.2    41  ASP41       0.3671
     20  OD1       80.1550   14.3180   59.3290 O.co2  41  ASP41      -0.2456
     21  OD2       81.2330   12.9320   57.9850 O.co2  41  ASP41      -0.2456
     22  N         78.5270    8.8980   63.2720 N.3    59  LEU59      -0.1245
     23  CA        79.7210    9.0540   64.0850 C.3    59  LEU59       0.1561
     24  C         79.1970    9.6520   65.3810 C.2    59  LEU59       0.2260
     25  O         78.2790   10.4810   65.3590 O.2    59  LEU59      -0.2867
     26  CB        80.7120   10.0010   63.4160 C.3    59  LEU59       0.0270
     27  CG        81.2750    9.5550   62.0540 C.3    59  LEU59       0.0019
     28  CD1       82.3100   10.5780   61.5870 C.3    59  LEU59       0.0001
     29  CD2       81.9230    8.1790   62.1640 C.3    59  LEU59       0.0001
     30  N         80.5640   11.1850   69.2700 N.3    61  ASP61      -0.1225
     31  CA        81.6230   11.6540   70.1760 C.3    61  ASP61       0.1805
     32  C         83.0320   11.5640   69.5850 C.2    61  ASP61       0.2598
     33  O         84.0290   11.5650   70.3160 O.2    61  ASP61      -0.2718
     34  CB        81.5790   10.8880   71.5080 C.3    61  ASP61       0.1424
     35  CG        80.2990   11.1520   72.2980 C.2    61  ASP61       0.3668
     36  OD1       79.8160   12.3070   72.3020 O.co2  61  ASP61      -0.2456
     37  OD2       79.7830   10.2090   72.9270 O.co2  61  ASP61      -0.2456
     38  N         83.1140   11.5040   68.2600 N.am   62  GLY62      -0.1957
     39  CA        84.4070   11.3890   67.6120 C.3    62  GLY62       0.1869
     40  C         85.1070   10.1180   68.0720 C.2    62  GLY62       0.2309
     41  O         86.3330   10.0330   68.0570 O.2    62  GLY62      -0.2863
     42  N         91.5380    6.7420   64.6710 N.3    97  ALA97      -0.1245
     43  CA        90.0950    6.9830   64.5750 C.3    97  ALA97       0.1562
     44  C         89.3690    6.1460   63.5330 C.2    97  ALA97       0.2260
     45  O         89.9780    5.5070   62.6760 O.2    97  ALA97      -0.2867
     46  CB        89.8290    8.4720   64.2900 C.3    97  ALA97       0.0290
     47  N         86.4660    6.7270   60.7750 N.3    99  PHE99      -0.1227
     48  CA        85.6660    7.7120   60.0480 C.3    99  PHE99       0.1736
     49  C         84.4710    7.0670   59.3450 C.2    99  PHE99       0.2595
     50  O         84.1910    5.8860   59.5450 O.2    99  PHE99      -0.2718
     51  CB        86.5310    8.4620   59.0330 C.3    99  PHE99       0.0547
     52  CG        87.4290    9.4970   59.6490 C.ar   99  PHE99      -0.0202
     53  CD1       87.3830    9.7510   61.0090 C.ar   99  PHE99      -0.0042
     54  CD2       88.3180   10.2150   58.8680 C.ar   99  PHE99      -0.0042
     55  CE1       88.2080   10.7030   61.5790 C.ar   99  PHE99      -0.0003
     56  CE2       89.1460   11.1680   59.4310 C.ar   99  PHE99      -0.0003
     57  CZ        89.0900   11.4120   60.7890 C.ar   99  PHE99      -0.0000
     58  N         83.6410    7.8230   58.4870 N.am  100  ASP100     -0.1974
     59  CA        82.4660    7.3030   57.7650 C.3   100  ASP100      0.1709
     60  C         82.7270    5.9940   57.0220 C.2   100  ASP100      0.2293
     61  O         83.8700    5.6540   56.7160 O.2   100  ASP100     -0.2864
     62  CB        81.9490    8.3150   56.7340 C.3   100  ASP100      0.1436
     63  CG        81.8740    9.7230   57.2730 C.2   100  ASP100      0.3671
     64  OD1       82.8550   10.1720   57.8950 O.co2 100  ASP100     -0.2456
     65  OD2       80.8470   10.3950   57.0620 O.co2 100  ASP100     -0.2456
     66  N         96.7930   11.9710   62.3210 N.3   122  LEU122     -0.1231
     67  CA        96.0930   13.2510   62.3700 C.3   122  LEU122      0.1678
     68  C         97.1730   14.3170   62.5190 C.2   122  LEU122      0.2434
     69  O         98.2570   14.0360   63.0250 O.2   122  LEU122     -0.2733
     70  CB        95.1360   13.3070   63.5600 C.3   122  LEU122      0.0284
     71  CG        93.8030   12.6020   63.3440 C.3   122  LEU122      0.0019
     72  CD1       92.9210   12.7780   64.5780 C.3   122  LEU122      0.0001
     73  CD2       93.1200   13.1930   62.1100 C.3   122  LEU122      0.0001
     74  N         96.8980   15.5560   62.0860 N.am  123  PRO123     -0.2718
     75  CA        95.6660   16.0490   61.4690 C.3   123  PRO123      0.1535
     76  C         95.5340   15.7010   59.9940 C.2   123  PRO123      0.2598
     77  O         96.5050   15.3460   59.3310 O.2   123  PRO123     -0.2715
     78  CB        95.7740   17.5540   61.6630 C.3   123  PRO123      0.0310
     79  CG        97.2520   17.7770   61.4210 C.3   123  PRO123      0.0237
     80  CD        97.8600   16.6620   62.2750 C.3   123  PRO123      0.0939
     81  N         94.3160   15.8270   59.4890 N.am  124  ILE124     -0.1964
     82  CA        94.0360   15.5770   58.0850 C.3   124  ILE124      0.1727
     83  C         93.1970   16.7490   57.5910 C.2   124  ILE124      0.2616
     84  O         92.1070   16.9790   58.0980 O.2   124  ILE124     -0.2715
     85  CB        93.2130   14.2990   57.8860 C.3   124  ILE124      0.0290
     86  CG1       93.9750   13.0860   58.4200 C.3   124  ILE124      0.0022
     87  CG2       92.9010   14.1240   56.4050 C.3   124  ILE124      0.0023
     88  CD1       93.0870   11.8670   58.6150 C.3   124  ILE124      0.0001
     89  N         93.6900   17.4950   56.6080 N.am  125  HIS125     -0.1973
     90  CA        92.9220   18.6280   56.0870 C.3   125  HIS125      0.1656
     91  C         93.4070   18.9940   54.6950 C.2   125  HIS125      0.2291
     92  O         94.5960   18.8460   54.3830 O.2   125  HIS125     -0.2864
     93  CB        93.0460   19.8280   57.0350 C.3   125  HIS125      0.0771
     94  CG        92.0150   20.8870   56.7990 C.ar  125  HIS125      0.0820
     95  ND1       92.2450   21.9900   56.0050 N.ar  125  HIS125     -0.2267
     96  CD2       90.7240   20.9750   57.2000 C.ar  125  HIS125      0.1154
     97  CE1       91.1410   22.7110   55.9260 C.ar  125  HIS125      0.1986
     98  NE2       90.2020   22.1160   56.6410 N.ar  125  HIS125     -0.2212
     99  N         88.7780    9.5050   51.9340 N.3   171  ARG171     -0.1231
    100  CA        87.8950    8.8770   52.9050 C.3   171  ARG171      0.1694
    101  C         86.4140    8.8530   52.5100 C.2   171  ARG171      0.2591
    102  O         86.0180    9.3610   51.4510 O.2   171  ARG171     -0.2718
    103  CB        88.0510    9.6210   54.2390 C.3   171  ARG171      0.0321
    104  CG        87.7970   11.1420   54.1150 C.3   171  ARG171      0.0489
    105  CD        87.8390   11.8810   55.4630 C.3   171  ARG171      0.2205
    106  NE        87.6050   13.3200   55.2890 N.pl3 171  ARG171     -0.0865
    107  CZ        88.5600   14.2240   55.0690 C.cat 171  ARG171      0.5346
    108  NH1       89.8260   13.8470   55.0060 N.pl3 171  ARG171      0.1354
    109  NH2       88.2500   15.5100   54.8920 N.pl3 171  ARG171      0.1354
    110  N         85.4810    8.2480   53.4180 N.am  172  ALA172     -0.1980
    111  CA        84.0360    8.1410   53.2420 C.3   172  ALA172      0.1597
    112  C         83.6140    7.2150   52.1120 C.2   172  ALA172      0.2287
    113  O         82.8400    7.6040   51.2460 O.2   172  ALA172     -0.2864
    114  CB        83.4410    9.5300   53.0160 C.3   172  ALA172      0.0319
    115  N         83.5560   15.7830   50.0680 N.3   273  GLU273     -0.1231
    116  CA        83.3740   14.9300   51.2290 C.3   273  GLU273      0.1699
    117  C         82.0740   14.1410   51.1260 C.2   273  GLU273      0.2592
    118  O         81.1680   14.5040   50.3730 O.2   273  GLU273     -0.2718
    119  CB        83.3700   15.7660   52.5150 C.3   273  GLU273      0.0402
    120  CG        84.7360   16.3430   52.8770 C.3   273  GLU273      0.1161
    121  CD        84.7680   16.9940   54.2570 C.2   273  GLU273      0.3649
    122  OE1       84.0880   18.0250   54.4590 O.co2 273  GLU273     -0.2457
    123  OE2       85.4810   16.4630   55.1380 O.co2 273  GLU273     -0.2457
    124  N         82.1470   12.8820   51.5890 N.am  274  THR274     -0.1953
    125  CA        80.9820   12.0090   51.6630 C.3   274  THR274      0.1897
    126  C         80.1540   11.8720   50.3860 C.2   274  THR274      0.2313
    127  O         78.9690   12.2340   50.3620 O.2   274  THR274     -0.2863
    128  CB        80.0530   12.4900   52.7830 C.3   274  THR274      0.1794
    129  OG1       79.5910   13.8140   52.4730 O.3   274  THR274     -0.2208
    130  CG2       80.8120   12.5070   54.1330 C.3   274  THR274      0.0378
    131  N         84.0870   21.4150   50.8110 N.3   299  GLU299     -0.1245
    132  CA        84.7220   22.2750   51.8060 C.3   299  GLU299      0.1567
    133  C         85.2740   23.4870   51.0900 C.2   299  GLU299      0.2260
    134  O         86.0910   23.3490   50.1750 O.2   299  GLU299     -0.2867
    135  CB        85.8740   21.5500   52.4950 C.3   299  GLU299      0.0388
    136  CG        85.4580   20.5340   53.5330 C.3   299  GLU299      0.1160
    137  CD        86.6550   19.8960   54.2070 C.2   299  GLU299      0.3649
    138  OE1       87.1860   18.9080   53.6570 O.co2 299  GLU299     -0.2457
    139  OE2       87.0710   20.3900   55.2790 O.co2 299  GLU299     -0.2457
    140  N         93.6550   24.6880   57.9920 N.3   308  GLN308     -0.1245
    141  CA        92.8920   23.8680   58.9250 C.3   308  GLN308      0.1566
    142  C         91.5350   24.4630   59.2770 C.2   308  GLN308      0.2260
    143  O         90.9110   24.0860   60.2680 O.2   308  GLN308     -0.2867
    144  CB        93.7140   23.5640   60.1850 C.3   308  GLN308      0.0367
    145  CG        94.9490   22.7160   59.8750 C.3   308  GLN308      0.0905
    146  CD        95.7970   22.4060   61.0960 C.2   308  GLN308      0.2608
    147  OE1       95.5260   21.4580   61.8360 O.2   308  GLN308     -0.2717
    148  NE2       96.8290   23.2100   61.3160 N.am  308  GLN308     -0.0878
    149  N         87.8470   25.2160   57.3490 N.3   310  SER310     -0.1217
    150  CA        86.9430   25.1490   56.2020 C.3   310  SER310      0.1889
    151  C         85.8180   26.1000   56.5820 C.2   310  SER310      0.2288
    152  O         84.9300   25.7500   57.3610 O.2   310  SER310     -0.2866
    153  CB        86.3830   23.7360   56.0270 C.3   310  SER310      0.2089
    154  OG        87.3620   22.8590   55.5220 O.3   310  SER310     -0.2183
    155  N         80.7650   25.0080   54.2910 N.3   313  HIS313     -0.1241
    156  CA        80.3790   23.6020   54.1630 C.3   313  HIS313      0.1621
    157  C         79.0600   23.5220   53.3800 C.2   313  HIS313      0.2264
    158  O         77.9760   23.6560   53.9520 O.2   313  HIS313     -0.2867
    159  CB        80.1870   22.9560   55.5380 C.3   313  HIS313      0.0745
    160  CG        81.4480   22.8300   56.3360 C.ar  313  HIS313      0.0817
    161  ND1       82.0230   23.8940   56.9990 N.ar  313  HIS313     -0.2268
    162  CD2       82.2470   21.7620   56.5750 C.ar  313  HIS313      0.1154
    163  CE1       83.1200   23.4860   57.6140 C.ar  313  HIS313      0.1986
    164  NE2       83.2800   22.1960   57.3710 N.ar  313  HIS313     -0.2212
    165  N         74.9940   19.4380   56.4230 N.3   350  TYR350     -0.1227
    166  CA        76.1220   18.8690   55.6910 C.3   350  TYR350      0.1736
    167  C         76.1650   17.3450   55.8130 C.2   350  TYR350      0.2595
    168  O         75.2580   16.7240   56.3830 O.2   350  TYR350     -0.2718
    169  CB        77.4030   19.4660   56.2890 C.3   350  TYR350      0.0548
    170  CG        78.6660   19.3510   55.4620 C.ar  350  TYR350     -0.0200
    171  CD1       79.7900   18.6990   55.9680 C.ar  350  TYR350     -0.0009
    172  CD2       78.7650   19.9650   54.2010 C.ar  350  TYR350     -0.0009
    173  CE1       80.9930   18.6590   55.2510 C.ar  350  TYR350      0.0417
    174  CE2       79.9580   19.9350   53.4740 C.ar  350  TYR350      0.0417
    175  CZ        81.0690   19.2800   54.0070 C.ar  350  TYR350      0.1957
    176  OH        82.2550   19.2530   53.3060 O.3   350  TYR350     -0.2866
    177  N         76.9860   16.5780   55.0420 N.am  351  ALA351     -0.1980
    178  CA        77.2410   15.1470   55.1160 C.3   351  ALA351      0.1597
    179  C         75.9790   14.2970   55.0450 C.2   351  ALA351      0.2287
    180  O         75.6760   13.5520   55.9770 O.2   351  ALA351     -0.2864
    181  CB        78.0310   14.8170   56.3780 C.3   351  ALA351      0.0319
    182  N         73.1760   15.8260   58.1340 N.3   379  TRP379     -0.1241
    183  CA        73.7240   16.2120   59.4330 C.3   379  TRP379      0.1605
    184  C         73.4840   17.6970   59.6710 C.2   379  TRP379      0.2264
    185  O         73.6150   18.5070   58.7550 O.2   379  TRP379     -0.2867
    186  CB        75.2420   15.9380   59.4660 C.3   379  TRP379      0.0550
    187  CG        75.9460   16.3310   60.7450 C.ar  379  TRP379      0.0003
    188  CD1       75.5070   16.1020   62.0160 C.ar  379  TRP379      0.0946
    189  CD2       77.2620   16.9110   60.8760 C.ar  379  TRP379      0.0152
    190  NE1       76.4590   16.4910   62.9310 N.ar  379  TRP379     -0.2442
    191  CE2       77.5470   16.9910   62.2610 C.ar  379  TRP379      0.0810
    192  CE3       78.2260   17.3630   59.9620 C.ar  379  TRP379      0.0012
    193  CZ2       78.7580   17.5040   62.7560 C.ar  379  TRP379      0.0191
    194  CZ3       79.4450   17.8790   60.4590 C.ar  379  TRP379      0.0001
    195  CH2       79.6920   17.9420   61.8410 C.ar  379  TRP379      0.0015
    196  N         80.3380   23.1870   62.9510 N.3   385  TYR385     -0.1227
    197  CA        81.5190   22.3760   62.6610 C.3   385  TYR385      0.1736
    198  C         82.6930   22.6920   63.5950 C.2   385  TYR385      0.2595
    199  O         83.8420   22.7710   63.1580 O.2   385  TYR385     -0.2718
    200  CB        81.9420   22.5830   61.2010 C.3   385  TYR385      0.0548
    201  CG        80.7840   22.5410   60.2190 C.ar  385  TYR385     -0.0200
    202  CD1       80.2820   21.3240   59.7490 C.ar  385  TYR385     -0.0009
    203  CD2       80.1630   23.7200   59.7940 C.ar  385  TYR385     -0.0009
    204  CE1       79.1800   21.2800   58.8760 C.ar  385  TYR385      0.0417
    205  CE2       79.0660   23.6890   58.9300 C.ar  385  TYR385      0.0417
    206  CZ        78.5790   22.4610   58.4750 C.ar  385  TYR385      0.1957
    207  OH        77.4820   22.4180   57.6270 O.3   385  TYR385     -0.2866
    208  N         82.2970   23.0140   64.9460 N.am  386  GLU386     -0.1965
    209  CA        83.2950   23.3070   65.9730 C.3   386  GLU386      0.1733
    210  C         84.0260   24.6340   65.8160 C.2   386  GLU386      0.2616
    211  O         85.1620   24.7830   66.2610 O.2   386  GLU386     -0.2715
    212  CB        84.3090   22.1620   66.0690 C.3   386  GLU386      0.0429
    213  CG        83.8260   20.9940   66.9160 C.3   386  GLU386      0.1163
    214  CD        84.6950   19.7550   66.7700 C.2   386  GLU386      0.3649
    215  OE1       85.8970   19.8870   66.4380 O.co2 386  GLU386     -0.2457
    216  OE2       84.1740   18.6420   67.0010 O.co2 386  GLU386     -0.2457
    217  N         83.3700   25.5990   65.1860 N.am  387  GLN387     -0.1977
    218  CA        83.9520   26.9220   65.0210 C.3   387  GLN387      0.1601
    219  C         83.1160   27.9240   65.8130 C.2   387  GLN387      0.2287
    220  O         83.3590   29.1270   65.7600 O.2   387  GLN387     -0.2864
    221  CB        83.9900   27.3170   63.5410 C.3   387  GLN387      0.0394
    222  CG        85.1770   26.7470   62.7750 C.3   387  GLN387      0.0908
    223  CD        86.5230   27.2740   63.2840 C.2   387  GLN387      0.2608
    224  OE1       86.8630   28.4510   63.1000 O.2   387  GLN387     -0.2717
    225  NE2       87.2920   26.4000   63.9330 N.am  387  GLN387     -0.0878
@<TRIPOS>BOND
     1   115   116    1
     2   134   133    2
     3   127   126    2
     4   118   117    2
     5   126   125    1
     6   131   132    1
     7   133   132    1
     8   117   116    1
     9   117   124   am
    10   116   119    1
    11   113   112    2
    12   102   101    2
    13   124   125    1
    14   125   128    1
    15   132   135    1
    16    99   100    1
    17   112   111    1
    18   129   128    1
    19   135   136    1
    20   101   100    1
    21   101   110   am
    22   119   120    1
    23   128   130    1
    24   120   121    1
    25   100   103    1
    26   114   111    1
    27   111   110    1
    28   176   175    1
    29   157   158    2
    30   157   156    1
    31   174   175   ar
    32   174   172   ar
    33   136   137    1
    34   138   137   ar
    35   175   173   ar
    36   104   103    1
    37   104   105    1
    38   156   155    1
    39   156   159    1
    40   172   170   ar
    41   137   139   ar
    42   121   122   ar
    43   121   123   ar
    44    92    91    2
    45    91    90    1
    46   109   107    1
    47   108   107    1
    48   177   178    1
    49   177   167   am
    50   179   178    1
    51   179   180    2
    52   107   106    2
    53   178   181    1
    54   173   171   ar
    55   106   105    1
    56   170   171   ar
    57   170   169    1
    58   154   153    1
    59   159   160    1
    60   166   167    1
    61   166   169    1
    62   166   165    1
    63   167   168    2
    64    97    95   ar
    65    97    98   ar
    66    95    94   ar
    67   153   150    1
    68    90    89    1
    69    90    93    1
    70   150   151    1
    71   150   149    1
    72   160   162   ar
    73   160   161   ar
    74    87    85    1
    75   162   164   ar
    76   151   152    2
    77    89    83   am
    78    98    96   ar
    79    61    60    2
    80    62    63    1
    81    62    59    1
    82    94    93    1
    83    94    96   ar
    84   161   163   ar
    85    60    59    1
    86    65    63   ar
    87    63    64   ar
    88   164   163   ar
    89    83    82    1
    90    83    84    2
    91   207   206    1
    92    59    58    1
    93    85    82    1
    94    85    86    1
    95    21    19   ar
    96   140   141    1
    97    82    81    1
    98   182   183    1
    99    86    88    1
   100   206   204   ar
   101   206   205   ar
   102    58    49   am
   103   185   184    2
   104    19    18    1
   105    19    20   ar
   106    54    56   ar
   107    54    52   ar
   108   204   202   ar
   109   141   142    1
   110   141   144    1
   111   205   203   ar
   112    51    52    1
   113    51    48    1
   114    18    15    1
   115   142   143    2
   116    77    76    2
   117    49    50    2
   118    49    48    1
   119    56    57   ar
   120   183   186    1
   121   183   184    1
   122   186   187    1
   123    81    76   am
   124    52    53   ar
   125   202   201   ar
   126   203   201   ar
   127   145   144    1
   128   145   146    1
   129   192   194   ar
   130   192   189   ar
   131    76    75    1
   132    48    47    1
   133    15    16    1
   134    15    14    1
   135    16    17    2
   136   201   200    1
   137   194   195   ar
   138   187   189   ar
   139   187   188   ar
   140    57    55   ar
   141   189   191   ar
   142    53    55   ar
   143   146   148   am
   144   146   147    2
   145   200   197    1
   146    14    12   am
   147    79    78    1
   148    79    80    1
   149    75    78    1
   150    75    74    1
   151    28    27    1
   152   195   193   ar
   153   188   190   ar
   154    27    29    1
   155    27    26    1
   156    74    80    1
   157    74    68   am
   158    73    71    1
   159   191   193   ar
   160   191   190   ar
   161    66    67    1
   162    67    68    1
   163    67    70    1
   164    13    12    2
   165    12    11    1
   166    68    69    2
   167   197   196    1
   168   197   198    1
   169    45    44    2
   170   222   223    1
   171   222   221    1
   172   224   223    2
   173   199   198    2
   174    22    23    1
   175   223   225   am
   176    71    70    1
   177    71    72    1
   178    26    23    1
   179    44    43    1
   180   221   218    1
   181   198   208   am
   182    11    10    1
   183    23    24    1
   184    46    43    1
   185    43    42    1
   186   208   209    1
   187   218   217    1
   188   218   219    1
   189   217   210   am
   190    25    24    2
   191   220   219    2
   192   210   209    1
   193   210   211    2
   194   209   212    1
   195   212   213    1
   196   215   214   ar
   197   214   213    1
   198   214   216   ar
   199     9     7   am
   200     8     7    2
   201    39    40    1
   202    39    38    1
   203     7     6    1
   204    41    40    2
   205    38    32   am
   206     3     4    2
   207     3     2    1
   208    30    31    1
   209     6     5    1
   210    32    31    1
   211    32    33    2
   212     5     2    1
   213     2     1    1
   214    31    34    1
   215    34    35    1
   216    35    36   ar
   217    35    37   ar
