@<TRIPOS>MOLECULE
tmp/3leoA07.pdb
 68 62 0 0 0
SMALL
GASTEIGER

@<TRIPOS>ATOM
      1  N        -21.1880  -28.0970   45.8540 N.3    12  LEU12      -0.1245
      2  CA       -20.3480  -26.8770   45.7600 C.3    12  LEU12       0.1561
      3  C        -20.3780  -26.1060   47.0630 C.2    12  LEU12       0.2260
      4  O        -19.3480  -25.5810   47.4810 O.2    12  LEU12      -0.2867
      5  CB       -20.7540  -25.9210   44.6160 C.3    12  LEU12       0.0270
      6  CG       -20.8530  -26.4900   43.2090 C.3    12  LEU12       0.0019
      7  CD1      -21.4870  -25.4530   42.2070 C.3    12  LEU12       0.0001
      8  CD2      -19.4810  -26.9850   42.7220 C.3    12  LEU12       0.0001
      9  N        -18.1430  -28.0050   49.4650 N.3    15  ALA15      -0.1231
     10  CA       -16.7200  -27.8180   49.1110 C.3    15  ALA15       0.1694
     11  C        -16.2050  -26.4370   49.5540 C.2    15  ALA15       0.2591
     12  O        -15.0880  -26.3020   50.0640 O.2    15  ALA15      -0.2718
     13  CB       -16.5150  -28.0070   47.5950 C.3    15  ALA15       0.0304
     14  N        -17.0040  -25.3990   49.3220 N.am   16  VAL16      -0.1980
     15  CA       -16.6330  -24.0410   49.7500 C.3    16  VAL16       0.1595
     16  C        -16.6340  -23.9480   51.2850 C.2    16  VAL16       0.2287
     17  O        -15.8070  -23.2350   51.8680 O.2    16  VAL16      -0.2864
     18  CB       -17.5680  -22.9800   49.1380 C.3    16  VAL16       0.0276
     19  CG1      -17.3760  -21.6070   49.8270 C.3    16  VAL16       0.0022
     20  CG2      -17.3400  -22.9220   47.5860 C.3    16  VAL16       0.0022
     21  N        -13.4060  -25.6150   52.4020 N.3    19  LEU19      -0.1245
     22  CA       -12.3110  -24.6870   52.1700 C.3    19  LEU19       0.1561
     23  C        -12.2560  -23.5920   53.2650 C.2    19  LEU19       0.2260
     24  O        -11.1720  -23.2000   53.6940 O.2    19  LEU19      -0.2867
     25  CB       -12.4500  -24.0490   50.7850 C.3    19  LEU19       0.0270
     26  CG       -11.3030  -23.0760   50.4000 C.3    19  LEU19       0.0019
     27  CD1       -9.9180  -23.7480   50.4110 C.3    19  LEU19       0.0001
     28  CD2      -11.5370  -22.4950   49.0250 C.3    19  LEU19       0.0001
     29  N        -29.3220  -19.6970   43.9940 N.3    80  HIS80      -0.1241
     30  CA       -28.5920  -20.4280   42.9240 C.3    80  HIS80       0.1621
     31  C        -27.2950  -20.9660   43.5520 C.2    80  HIS80       0.2264
     32  O        -26.5400  -20.2040   44.1610 O.2    80  HIS80      -0.2867
     33  CB       -28.2490  -19.4710   41.7580 C.3    80  HIS80       0.0745
     34  CG       -27.6100  -20.1420   40.5700 C.ar   80  HIS80       0.0817
     35  ND1      -26.2490  -20.2830   40.4440 N.ar   80  HIS80      -0.2268
     36  CD2      -28.1470  -20.7000   39.4520 C.ar   80  HIS80       0.1154
     37  CE1      -25.9670  -20.9000   39.3100 C.ar   80  HIS80       0.1986
     38  NE2      -27.1020  -21.1680   38.6900 N.ar   80  HIS80      -0.2212
     39  N        -24.3440  -22.2740   42.2740 N.3    82  GLY82      -0.1210
     40  CA       -23.0810  -21.8310   41.6660 C.3    82  GLY82       0.1956
     41  C        -22.7800  -20.4010   41.9990 C.2    82  GLY82       0.2611
     42  O        -21.6540  -20.0730   42.3300 O.2    82  GLY82      -0.2717
     43  N        -23.7770  -19.5270   41.9250 N.am   83  ALA83      -0.1979
     44  CA       -23.5730  -18.1210   42.3100 C.3    83  ALA83       0.1597
     45  C        -23.1790  -17.9720   43.7590 C.2    83  ALA83       0.2287
     46  O        -22.2930  -17.1510   44.0840 O.2    83  ALA83      -0.2864
     47  CB       -24.8210  -17.2680   42.0230 C.3    83  ALA83       0.0319
     48  N        -21.7250  -20.2430   45.7020 N.3    85  ALA85      -0.1231
     49  CA       -20.3810  -20.8390   45.8540 C.3    85  ALA85       0.1694
     50  C        -19.3140  -19.8900   45.3700 C.2    85  ALA85       0.2591
     51  O        -18.2960  -19.7280   46.0330 O.2    85  ALA85      -0.2718
     52  CB       -20.2710  -22.1910   45.1060 C.3    85  ALA85       0.0304
     53  N        -19.5630  -19.2410   44.2320 N.am   86  LEU86      -0.1980
     54  CA       -18.6540  -18.2190   43.7040 C.3    86  LEU86       0.1596
     55  C        -18.5000  -17.0020   44.6180 C.2    86  LEU86       0.2287
     56  O        -17.3660  -16.5860   44.8730 O.2    86  LEU86      -0.2864
     57  CB       -19.1360  -17.7170   42.3570 C.3    86  LEU86       0.0297
     58  CG       -18.3010  -18.2110   41.1880 C.3    86  LEU86       0.0022
     59  CD1      -18.9070  -17.6070   39.9020 C.3    86  LEU86       0.0001
     60  CD2      -16.8260  -17.8240   41.3200 C.3    86  LEU86       0.0001
     61  N        -16.2630  -18.2270   47.4920 N.3    89  LEU89      -0.1245
     62  CA       -14.8470  -18.2640   47.1760 C.3    89  LEU89       0.1561
     63  C        -14.2330  -16.8950   47.2280 C.2    89  LEU89       0.2260
     64  O        -13.1270  -16.7410   47.7520 O.2    89  LEU89      -0.2867
     65  CB       -14.6020  -18.7620   45.7450 C.3    89  LEU89       0.0270
     66  CG       -14.7080  -20.2700   45.5520 C.3    89  LEU89       0.0019
     67  CD1      -14.3230  -20.5250   44.0820 C.3    89  LEU89       0.0001
     68  CD2      -13.7860  -21.0110   46.6080 C.3    89  LEU89       0.0001
@<TRIPOS>BOND
     1    38    37   ar
     2    38    36   ar
     3    37    35   ar
     4    36    34   ar
     5    59    58    1
     6    35    34   ar
     7    34    33    1
     8    58    60    1
     9    58    57    1
    10    40    41    1
    11    40    39    1
    12    33    30    1
    13    43    41   am
    14    43    44    1
    15    41    42    2
    16    47    44    1
    17     7     6    1
    18    44    45    1
    19    57    54    1
    20     8     6    1
    21    30    31    1
    22    30    29    1
    23     6     5    1
    24    31    32    2
    25    54    53    1
    26    54    55    1
    27    45    46    2
    28    67    66    1
    29    53    50   am
    30     5     2    1
    31    55    56    2
    32    52    49    1
    33    50    49    1
    34    50    51    2
    35    66    65    1
    36    66    68    1
    37    48    49    1
    38    65    62    1
    39     2     1    1
    40     2     3    1
    41     3     4    2
    42    62    63    1
    43    62    61    1
    44    63    64    2
    45    20    18    1
    46    13    10    1
    47    28    26    1
    48    10     9    1
    49    10    11    1
    50    18    15    1
    51    18    19    1
    52    14    11   am
    53    14    15    1
    54    11    12    2
    55    15    16    1
    56    26    27    1
    57    26    25    1
    58    25    22    1
    59    16    17    2
    60    22    21    1
    61    22    23    1
    62    23    24    2
