@<TRIPOS>MOLECULE
tmp/3lewA04.pdb
 91 89 0 0 0
SMALL
GASTEIGER

@<TRIPOS>ATOM
      1  N         50.7600   -2.5140   11.0510 N.3    69  TRP69      -0.1227
      2  CA        51.0740   -2.8250    9.6470 C.3    69  TRP69       0.1737
      3  C         50.7030   -1.6650    8.7120 C.2    69  TRP69       0.2595
      4  O         51.4700   -1.2750    7.8160 O.2    69  TRP69      -0.2718
      5  CB        50.3190   -4.0810    9.2220 C.3    69  TRP69       0.0564
      6  CG        50.8830   -4.7310    7.9610 C.ar   69  TRP69       0.0003
      7  CD1       50.3300   -4.7060    6.7400 C.ar   69  TRP69       0.0946
      8  CD2       52.0870   -5.4970    7.8450 C.ar   69  TRP69       0.0152
      9  NE1       51.1070   -5.4100    5.8250 N.ar   69  TRP69      -0.2442
     10  CE2       52.2030   -5.9000    6.4830 C.ar   69  TRP69       0.0810
     11  CE3       53.0920   -5.8630    8.7380 C.ar   69  TRP69       0.0012
     12  CZ2       53.2690   -6.6870    6.0230 C.ar   69  TRP69       0.0191
     13  CZ3       54.1530   -6.6550    8.2850 C.ar   69  TRP69       0.0001
     14  CH2       54.2490   -7.0210    6.9150 C.ar   69  TRP69       0.0015
     15  N         49.4950   -1.1340    8.8940 N.am   70  LEU70      -0.1980
     16  CA        49.0000   -0.0630    8.0430 C.3    70  LEU70       0.1596
     17  C         49.8340    1.2070    8.1820 C.2    70  LEU70       0.2287
     18  O         50.1900    1.8260    7.1830 O.2    70  LEU70      -0.2864
     19  CB        47.5220    0.1980    8.3560 C.3    70  LEU70       0.0297
     20  CG        46.8090    1.4710    7.8840 C.3    70  LEU70       0.0022
     21  CD1       45.3610    1.4010    8.3170 C.3    70  LEU70       0.0001
     22  CD2       47.4070    2.7020    8.4830 C.3    70  LEU70       0.0001
     23  N         53.5100    0.7760    6.6450 N.3    73  TYR73      -0.1227
     24  CA        53.6260    0.7280    5.2010 C.3    73  TYR73       0.1736
     25  C         53.0640    1.9460    4.4930 C.2    73  TYR73       0.2595
     26  O         53.6290    2.3750    3.4820 O.2    73  TYR73      -0.2718
     27  CB        53.0960   -0.6080    4.6090 C.3    73  TYR73       0.0548
     28  CG        54.0970   -1.7210    4.8510 C.ar   73  TYR73      -0.0200
     29  CD1       55.2510   -1.8240    4.0860 C.ar   73  TYR73      -0.0009
     30  CD2       53.9320   -2.6290    5.9000 C.ar   73  TYR73      -0.0009
     31  CE1       56.1910   -2.7890    4.3190 C.ar   73  TYR73       0.0417
     32  CE2       54.8700   -3.6320    6.1210 C.ar   73  TYR73       0.0417
     33  CZ        56.0050   -3.7050    5.3610 C.ar   73  TYR73       0.1957
     34  OH        56.9560   -4.6990    5.5900 O.3    73  TYR73      -0.2866
     35  N         51.9970    2.5550    5.0170 N.am   74  ARG74      -0.1980
     36  CA        51.5150    3.7770    4.3920 C.3    74  ARG74       0.1597
     37  C         52.5230    4.9140    4.5330 C.2    74  ARG74       0.2287
     38  O         52.7080    5.6870    3.5690 O.2    74  ARG74      -0.2864
     39  CB        50.1220    4.1590    4.8830 C.3    74  ARG74       0.0334
     40  CG        49.0560    3.2650    4.3020 C.3    74  ARG74       0.0492
     41  CD        47.6570    3.5850    4.7570 C.3    74  ARG74       0.2205
     42  NE        46.8000    2.4400    4.4650 N.pl3  74  ARG74      -0.0865
     43  CZ        45.4760    2.4730    4.3930 C.cat  74  ARG74       0.5346
     44  NH1       44.8220    3.6010    4.6020 N.pl3  74  ARG74       0.1354
     45  NH2       44.8140    1.3830    4.0450 N.pl3  74  ARG74       0.1354
     46  N         58.2980   -7.4370    4.2280 N.pl3 132  PRO132     -0.2301
     47  CA        58.7660   -6.9770    2.9100 C.3   132  PRO132      0.1611
     48  C         59.4000   -5.6010    2.9900 C.2   132  PRO132      0.2289
     49  O         58.9800   -4.7670    3.8180 O.2   132  PRO132     -0.2864
     50  CB        57.4870   -6.9440    2.0600 C.3   132  PRO132      0.0570
     51  CG        56.3580   -7.3420    2.9510 C.2   132  PRO132     -0.0065
     52  CD        56.8270   -7.5900    4.3140 C.2   132  PRO132      0.0760
     53  N         60.2000   -2.2170    0.8330 N.3   134  TYR134     -0.1241
     54  CA        59.9760   -1.3950   -0.3520 C.3   134  TYR134      0.1605
     55  C         60.7810   -0.1230   -0.2510 C.2   134  TYR134      0.2264
     56  O         60.7810    0.5630    0.8140 O.2   134  TYR134     -0.2867
     57  CB        58.4920   -1.0010   -0.4930 C.3   134  TYR134      0.0534
     58  CG        57.5860   -2.1800   -0.5190 C.ar  134  TYR134     -0.0201
     59  CD1       57.4650   -2.9440   -1.6440 C.ar  134  TYR134     -0.0009
     60  CD2       56.8810   -2.5740    0.6270 C.ar  134  TYR134     -0.0009
     61  CE1       56.6420   -4.0790   -1.6660 C.ar  134  TYR134      0.0417
     62  CE2       56.0620   -3.6770    0.6070 C.ar  134  TYR134      0.0417
     63  CZ        55.9590   -4.4350   -0.5250 C.ar  134  TYR134      0.1957
     64  OH        55.1550   -5.5630   -0.5410 O.3   134  TYR134     -0.2866
     65  N         49.6650   -9.3320    8.7840 N.3   447  THR447     -0.1218
     66  CA        48.1840   -9.3790    8.7710 C.3   447  THR447      0.1862
     67  C         47.6140  -10.4700    7.8960 C.2   447  THR447      0.2287
     68  O         48.2580  -10.9100    6.9120 O.2   447  THR447     -0.2866
     69  CB        47.5920   -8.0510    8.2900 C.3   447  THR447      0.1770
     70  OG1       48.0260   -7.7780    6.9500 O.3   447  THR447     -0.2211
     71  CG2       47.9790   -6.8810    9.2630 C.3   447  THR447      0.0375
     72  N         45.2170   -9.9520    5.7990 N.3   449  SER449     -0.1202
     73  CA        45.0370   -9.3410    4.4820 C.3   449  SER449      0.2020
     74  C         46.3050   -9.4700    3.6590 C.2   449  SER449      0.2618
     75  O         46.2490   -9.8120    2.4790 O.2   449  SER449     -0.2717
     76  CB        44.5880   -7.8700    4.5790 C.3   449  SER449      0.2103
     77  OG        44.3240   -7.3550    3.2770 O.3   449  SER449     -0.2182
     78  N         47.4590   -9.2180    4.2850 N.am  450  GLU450     -0.1979
     79  CA        48.7240   -9.3430    3.5700 C.3   450  GLU450      0.1602
     80  C         48.9750  -10.7870    3.1340 C.2   450  GLU450      0.2287
     81  O         49.4420  -11.0360    2.0460 O.2   450  GLU450     -0.2864
     82  CB        49.8920   -8.8630    4.4470 C.3   450  GLU450      0.0415
     83  CG        51.2580   -8.9600    3.7830 C.3   450  GLU450      0.1163
     84  CD        51.5640   -7.8150    2.8260 C.2   450  GLU450      0.3649
     85  OE1       50.9120   -6.7380    2.9460 O.co2 450  GLU450     -0.2457
     86  OE2       52.5080   -8.0080    2.0130 O.co2 450  GLU450     -0.2457
     87  N         46.7650  -11.2230   -0.0010 N.3   453  ALA453     -0.1245
     88  CA        47.0840  -10.3680   -1.1280 C.3   453  ALA453      0.1562
     89  C         48.4770  -10.6050   -1.6820 C.2   453  ALA453      0.2260
     90  O         48.7070  -10.4550   -2.8770 O.2   453  ALA453     -0.2867
     91  CB        46.9330   -8.8860   -0.7260 C.3   453  ALA453      0.0290
@<TRIPOS>BOND
     1    90    89    2
     2    89    88    1
     3    61    59   ar
     4    61    63   ar
     5    59    58   ar
     6    88    91    1
     7    88    87    1
     8    64    63    1
     9    63    62   ar
    10    58    57    1
    11    58    60   ar
    12    57    54    1
    13    54    55    1
    14    54    53    1
    15    55    56    2
    16    62    60   ar
    17    86    84   ar
    18    81    80    2
    19    50    47    1
    20    50    51    1
    21    75    74    2
    22    84    85   ar
    23    84    83    1
    24    47    48    1
    25    47    46    1
    26    51    52    2
    27    48    49    2
    28    80    79    1
    29    77    76    1
    30    26    25    2
    31    38    37    2
    32    79    78    1
    33    79    82    1
    34    74    78   am
    35    74    73    1
    36    83    82    1
    37    45    43    1
    38    29    31   ar
    39    29    28   ar
    40    46    52    1
    41    40    41    1
    42    40    39    1
    43    31    33   ar
    44    36    37    1
    45    36    39    1
    46    36    35    1
    47    43    42    2
    48    43    44    1
    49    42    41    1
    50    73    76    1
    51    73    72    1
    52    25    35   am
    53    25    24    1
    54    27    28    1
    55    27    24    1
    56    28    30   ar
    57    24    23    1
    58    33    34    1
    59    33    32   ar
    60     9    10   ar
    61     9     7   ar
    62    30    32   ar
    63    12    10   ar
    64    12    14   ar
    65    10     8   ar
    66     7     6   ar
    67    68    67    2
    68    14    13   ar
    69    70    69    1
    70    18    17    2
    71     4     3    2
    72     8     6   ar
    73     8    11   ar
    74    20    21    1
    75    20    19    1
    76    20    22    1
    77    67    66    1
    78     6     5    1
    79    16    17    1
    80    16    19    1
    81    16    15    1
    82    13    11   ar
    83    69    66    1
    84    69    71    1
    85     3    15   am
    86     3     2    1
    87    66    65    1
    88     5     2    1
    89     2     1    1
