@<TRIPOS>MOLECULE
tmp/3lexB00.pdb
 123 120 0 0 0
SMALL
GASTEIGER

@<TRIPOS>ATOM
      1  N        -31.4720   -2.6820   -1.1920 N.3    31  ASP31      -0.1239
      2  CA       -31.5090   -3.7940   -2.1150 C.3    31  ASP31       0.1674
      3  C        -32.2480   -5.0170   -1.5820 C.2    31  ASP31       0.2266
      4  O        -32.3090   -5.2400   -0.4090 O.2    31  ASP31      -0.2867
      5  CB       -30.1280   -4.2070   -2.5580 C.3    31  ASP31       0.1410
      6  CG       -30.1400   -5.1860   -3.6750 C.2    31  ASP31       0.3668
      7  OD1      -30.3860   -4.8190   -4.7790 O.co2  31  ASP31      -0.2456
      8  OD2      -29.8850   -6.3600   -3.4710 O.co2  31  ASP31      -0.2456
      9  N        -31.1740   -7.8300   -1.4000 N.3    33  ASP33      -0.1239
     10  CA       -30.2260   -8.6290   -0.6200 C.3    33  ASP33       0.1674
     11  C        -29.9940   -8.0570    0.7800 C.2    33  ASP33       0.2266
     12  O        -29.1180   -8.5200    1.5150 O.2    33  ASP33      -0.2867
     13  CB       -28.8930   -8.7850   -1.3610 C.3    33  ASP33       0.1410
     14  CG       -28.0980   -7.4910   -1.4240 C.2    33  ASP33       0.3668
     15  OD1      -28.5800   -6.4600   -0.9090 O.co2  33  ASP33      -0.2456
     16  OD2      -26.9850   -7.5030   -1.9920 O.co2  33  ASP33      -0.2456
     17  N        -28.9020   -5.0850    1.6350 N.3    35  LYS35      -0.1245
     18  CA       -27.8840   -4.0440    1.7490 C.3    35  LYS35       0.1561
     19  C        -28.1830   -2.7980    0.9150 C.2    35  LYS35       0.2260
     20  O        -28.9830   -2.8370   -0.0250 O.2    35  LYS35      -0.2867
     21  CB       -26.4980   -4.6040    1.4200 C.3    35  LYS35       0.0271
     22  CG       -26.2030   -5.9140    2.1410 C.3    35  LYS35       0.0035
     23  CD       -24.7510   -6.0180    2.5770 C.3    35  LYS35       0.0206
     24  CE       -23.8260   -6.2490    1.3990 C.3    35  LYS35       0.1093
     25  NZ       -22.4290   -6.5150    1.8470 N.3    35  LYS35      -0.1314
     26  N        -26.3950    0.0940   -1.2910 N.3    37  TYR37      -0.1241
     27  CA       -25.1580    0.4220   -1.9860 C.3    37  TYR37       0.1605
     28  C        -25.0200    1.9240   -2.2510 C.2    37  TYR37       0.2264
     29  O        -25.0970    2.3790   -3.3880 O.2    37  TYR37      -0.2867
     30  CB       -25.0500   -0.3990   -3.2750 C.3    37  TYR37       0.0534
     31  CG       -24.9810   -1.8900   -3.0020 C.ar   37  TYR37      -0.0201
     32  CD1      -26.1370   -2.6510   -2.8850 C.ar   37  TYR37      -0.0009
     33  CD2      -23.7590   -2.5280   -2.8300 C.ar   37  TYR37      -0.0009
     34  CE1      -26.0790   -4.0090   -2.6210 C.ar   37  TYR37       0.0417
     35  CE2      -23.6890   -3.8850   -2.5650 C.ar   37  TYR37       0.0417
     36  CZ       -24.8510   -4.6200   -2.4610 C.ar   37  TYR37       0.1957
     37  OH       -24.7830   -5.9680   -2.2000 O.3    37  TYR37      -0.2866
     38  N        -12.2730    6.9690   -3.7310 N.3    51  ARG51      -0.1245
     39  CA       -13.3490    6.4140   -2.9360 C.3    51  ARG51       0.1563
     40  C        -13.1540    6.7490   -1.4630 C.2    51  ARG51       0.2260
     41  O        -12.0580    6.6050   -0.9220 O.2    51  ARG51      -0.2867
     42  CB       -13.4390    4.9000   -3.1190 C.3    51  ARG51       0.0307
     43  CG       -14.5190    4.2550   -2.2620 C.3    51  ARG51       0.0489
     44  CD       -14.7880    2.8130   -2.6640 C.3    51  ARG51       0.2205
     45  NE       -13.7200    1.9110   -2.2420 N.pl3  51  ARG51      -0.0865
     46  CZ       -13.8810    0.6020   -2.0720 C.cat  51  ARG51       0.5346
     47  NH1      -15.0660    0.0500   -2.2910 N.pl3  51  ARG51       0.1354
     48  NH2      -12.8640   -0.1540   -1.6810 N.pl3  51  ARG51       0.1354
     49  N        -18.2250    3.2210    1.0490 N.3    54  TYR54      -0.1227
     50  CA       -19.1370    2.3520    0.3210 C.3    54  TYR54       0.1736
     51  C        -20.0850    1.6720    1.3060 C.2    54  TYR54       0.2595
     52  O        -19.8260    1.6500    2.5090 O.2    54  TYR54      -0.2718
     53  CB       -18.3710    1.3200   -0.5110 C.3    54  TYR54       0.0548
     54  CG       -17.5370    0.3480    0.2950 C.ar   54  TYR54      -0.0200
     55  CD1      -17.9680   -0.9590    0.5040 C.ar   54  TYR54      -0.0009
     56  CD2      -16.3170    0.7290    0.8400 C.ar   54  TYR54      -0.0009
     57  CE1      -17.2100   -1.8570    1.2370 C.ar   54  TYR54       0.0417
     58  CE2      -15.5470   -0.1710    1.5800 C.ar   54  TYR54       0.0417
     59  CZ       -16.0010   -1.4590    1.7720 C.ar   54  TYR54       0.1957
     60  OH       -15.2460   -2.3520    2.5040 O.3    54  TYR54      -0.2866
     61  N        -21.1870    1.1340    0.7920 N.am   55  LEU55      -0.1980
     62  CA       -22.2030    0.5120    1.6340 C.3    55  LEU55       0.1596
     63  C        -22.6100    1.4260    2.7840 C.2    55  LEU55       0.2287
     64  O        -22.7160    0.9880    3.9310 O.2    55  LEU55      -0.2864
     65  CB       -21.7180   -0.8440    2.1590 C.3    55  LEU55       0.0297
     66  CG       -21.7510   -1.9890    1.1440 C.3    55  LEU55       0.0022
     67  CD1      -21.0980   -3.2440    1.7120 C.3    55  LEU55       0.0001
     68  CD2      -23.1810   -2.2730    0.7070 C.3    55  LEU55       0.0001
     69  N        -19.0780    2.0210    5.2110 N.3    58  LYS58      -0.1245
     70  CA       -17.8080    1.2990    5.2140 C.3    58  LYS58       0.1561
     71  C        -16.6830    2.1360    4.6120 C.2    58  LYS58       0.2260
     72  O        -16.8300    2.7140    3.5340 O.2    58  LYS58      -0.2867
     73  CB       -17.9410   -0.0500    4.5040 C.3    58  LYS58       0.0271
     74  CG       -19.0840   -0.8800    5.0540 C.3    58  LYS58       0.0035
     75  CD       -18.9690   -2.3450    4.6990 C.3    58  LYS58       0.0206
     76  CE       -20.0840   -3.1280    5.3780 C.3    58  LYS58       0.1093
     77  NZ       -20.0620   -4.5730    5.0280 N.3    58  LYS58      -0.1314
     78  N        -25.2780    2.5260   -6.1140 N.3    96  GLY96      -0.1210
     79  CA       -24.9630    1.3210   -6.8580 C.3    96  GLY96       0.1956
     80  C        -25.9880    0.2290   -6.6180 C.2    96  GLY96       0.2613
     81  O        -25.7490   -0.9340   -6.9290 O.2    96  GLY96      -0.2717
     82  N        -27.1340    0.6030   -6.0590 N.am   97  THR97      -0.1938
     83  CA       -28.2150   -0.3510   -5.8370 C.3    97  THR97       0.2028
     84  C        -28.9680   -0.6220   -7.1320 C.2    97  THR97       0.2642
     85  O        -29.3540   -1.7560   -7.4110 O.2    97  THR97      -0.2714
     86  CB       -29.2170    0.1520   -4.7900 C.3    97  THR97       0.1808
     87  OG1      -28.5850    0.1950   -3.5060 O.3    97  THR97      -0.2208
     88  CG2      -30.4230   -0.7770   -4.7230 C.3    97  THR97       0.0379
     89  N        -29.1660    0.4280   -7.9220 N.am   98  HIS98      -0.1959
     90  CA       -29.9530    0.3250   -9.1420 C.3    98  HIS98       0.1787
     91  C        -29.1240    0.5510  -10.3980 C.2    98  HIS98       0.2620
     92  O        -28.1810    1.3420  -10.4100 O.2    98  HIS98      -0.2715
     93  CB       -31.1120    1.3210   -9.1210 C.3    98  HIS98       0.0785
     94  CG       -31.9450    1.2590   -7.8790 C.ar   98  HIS98       0.0821
     95  ND1      -32.9050    0.2930   -7.6760 N.ar   98  HIS98      -0.2267
     96  CD2      -31.9670    2.0520   -6.7840 C.ar   98  HIS98       0.1154
     97  CE1      -33.4790    0.4900   -6.5020 C.ar   98  HIS98       0.1986
     98  NE2      -32.9320    1.5530   -5.9420 N.ar   98  HIS98      -0.2212
     99  N        -29.5060   -0.1450  -11.4610 N.am   99  PHE99      -0.1974
    100  CA       -28.8460   -0.0270  -12.7510 C.3    99  PHE99       0.1639
    101  C        -29.5970    0.9850  -13.6130 C.2    99  PHE99       0.2290
    102  O        -30.8200    0.9110  -13.7330 O.2    99  PHE99      -0.2864
    103  CB       -28.8160   -1.3980  -13.4290 C.3    99  PHE99       0.0560
    104  CG       -28.0760   -1.4150  -14.7300 C.ar   99  PHE99      -0.0200
    105  CD1      -26.7100   -1.6260  -14.7590 C.ar   99  PHE99      -0.0042
    106  CD2      -28.7480   -1.2310  -15.9260 C.ar   99  PHE99      -0.0042
    107  CE1      -26.0260   -1.6440  -15.9560 C.ar   99  PHE99      -0.0003
    108  CE2      -28.0680   -1.2490  -17.1270 C.ar   99  PHE99      -0.0003
    109  CZ       -26.7060   -1.4550  -17.1410 C.ar   99  PHE99      -0.0000
    110  N        -25.7740    2.6300  -12.4210 N.3   101  TRP101     -0.1241
    111  CA       -25.2490    3.3880  -11.2900 C.3   101  TRP101      0.1605
    112  C        -25.2590    4.8660  -11.6510 C.2   101  TRP101      0.2264
    113  O        -24.9000    5.2280  -12.7690 O.2   101  TRP101     -0.2867
    114  CB       -23.8290    2.9340  -10.9630 C.3   101  TRP101      0.0550
    115  CG       -23.6940    1.4420  -10.9060 C.ar  101  TRP101      0.0003
    116  CD1      -24.6480    0.5500  -10.5190 C.ar  101  TRP101      0.0946
    117  CD2      -22.5330    0.6710  -11.2360 C.ar  101  TRP101      0.0152
    118  NE1      -24.1590   -0.7310  -10.5950 N.ar  101  TRP101     -0.2442
    119  CE2      -22.8610   -0.6850  -11.0320 C.ar  101  TRP101      0.0810
    120  CE3      -21.2480    0.9960  -11.6830 C.ar  101  TRP101      0.0012
    121  CZ2      -21.9500   -1.7160  -11.2580 C.ar  101  TRP101      0.0191
    122  CZ3      -20.3430   -0.0330  -11.9100 C.ar  101  TRP101      0.0001
    123  CH2      -20.7010   -1.3700  -11.6980 C.ar  101  TRP101      0.0015
@<TRIPOS>BOND
     1   109   108   ar
     2   109   107   ar
     3   108   106   ar
     4   107   105   ar
     5   106   104   ar
     6   105   104   ar
     7   104   103    1
     8   102   101    2
     9   101   100    1
    10   103   100    1
    11   113   112    2
    12   100    99    1
    13   110   111    1
    14   122   123   ar
    15   122   120   ar
    16   123   121   ar
    17   120   117   ar
    18   112   111    1
    19    99    91   am
    20   111   114    1
    21   121   119   ar
    22   117   119   ar
    23   117   115   ar
    24   119   118   ar
    25   114   115    1
    26   115   116   ar
    27   118   116   ar
    28    92    91    2
    29    91    90    1
    30    90    93    1
    31    90    89    1
    32    93    94    1
    33    89    84   am
    34    94    95   ar
    35    94    96   ar
    36    95    97   ar
    37    85    84    2
    38    84    83    1
    39    81    80    2
    40    79    80    1
    41    79    78    1
    42    96    98   ar
    43    80    82   am
    44    97    98   ar
    45    82    83    1
    46    83    86    1
    47    86    88    1
    48    86    87    1
    49     7     6   ar
    50    38    39    1
    51     6     8   ar
    52     6     5    1
    53    29    28    2
    54    30    31    1
    55    30    27    1
    56    42    39    1
    57    42    43    1
    58    31    32   ar
    59    31    33   ar
    60    39    40    1
    61    32    34   ar
    62    33    35   ar
    63    44    43    1
    64    44    45    1
    65    34    36   ar
    66    35    36   ar
    67     5     2    1
    68    36    37    1
    69    47    46    1
    70    28    27    1
    71    45    46    2
    72     2     3    1
    73     2     1    1
    74    46    48    1
    75    16    14   ar
    76    27    26    1
    77     3     4    2
    78    40    41    2
    79    14    13    1
    80    14    15   ar
    81     9    10    1
    82    13    10    1
    83    10    11    1
    84    53    54    1
    85    53    50    1
    86    20    19    2
    87    54    55   ar
    88    54    56   ar
    89    50    49    1
    90    50    51    1
    91    55    57   ar
    92    68    66    1
    93    11    12    2
    94    61    51   am
    95    61    62    1
    96    56    58   ar
    97    19    18    1
    98    66    67    1
    99    66    65    1
   100    57    59   ar
   101    51    52    2
   102    24    25    1
   103    24    23    1
   104    21    18    1
   105    21    22    1
   106    58    59   ar
   107    62    65    1
   108    62    63    1
   109    17    18    1
   110    59    60    1
   111    22    23    1
   112    63    64    2
   113    72    71    2
   114    73    74    1
   115    73    70    1
   116    71    70    1
   117    75    74    1
   118    75    76    1
   119    77    76    1
   120    69    70    1
