@<TRIPOS>MOLECULE
tmp/3lexA00.pdb
 93 94 0 0 0
SMALL
GASTEIGER

@<TRIPOS>ATOM
      1  N         -9.9240  -10.7850  -12.1160 N.3    32  ASP32      -0.1225
      2  CA       -11.1110  -10.4720  -11.3310 C.3    32  ASP32       0.1805
      3  C        -11.5650   -9.0440  -11.6120 C.2    32  ASP32       0.2597
      4  O        -10.8940   -8.3020  -12.3260 O.2    32  ASP32      -0.2718
      5  CB       -10.8120  -10.6330   -9.8390 C.3    32  ASP32       0.1424
      6  CG       -12.0570  -10.9110   -9.0150 C.2    32  ASP32       0.3668
      7  OD1      -13.1760  -10.8570   -9.5690 O.co2  32  ASP32      -0.2456
      8  OD2      -11.9130  -11.1880   -7.8050 O.co2  32  ASP32      -0.2456
      9  N        -12.7190   -8.6860  -11.0580 N.am   33  TYR33      -0.1976
     10  CA       -13.2060   -7.3110  -11.0420 C.3    33  TYR33       0.1639
     11  C        -13.9340   -6.8740  -12.3070 C.2    33  TYR33       0.2290
     12  O        -13.8780   -7.5440  -13.3430 O.2    33  TYR33      -0.2864
     13  CB       -12.0680   -6.3340  -10.7360 C.3    33  TYR33       0.0560
     14  CG       -11.3380   -6.6270   -9.4470 C.ar   33  TYR33      -0.0198
     15  CD1      -12.0150   -7.1190   -8.3380 C.ar   33  TYR33      -0.0009
     16  CD2       -9.9730   -6.3940   -9.3330 C.ar   33  TYR33      -0.0009
     17  CE1      -11.3510   -7.3830   -7.1540 C.ar   33  TYR33       0.0417
     18  CE2       -9.3010   -6.6530   -8.1530 C.ar   33  TYR33       0.0417
     19  CZ        -9.9940   -7.1460   -7.0680 C.ar   33  TYR33       0.1957
     20  OH        -9.3270   -7.4040   -5.8940 O.3    33  TYR33      -0.2866
     21  N        -19.1430   -1.1860  -18.0810 N.3    51  TYR51      -0.1241
     22  CA       -17.9480   -1.9390  -17.7250 C.3    51  TYR51       0.1605
     23  C        -17.7790   -3.1890  -18.5650 C.2    51  TYR51       0.2264
     24  O        -18.6960   -3.6220  -19.2610 O.2    51  TYR51      -0.2867
     25  CB       -17.9360   -2.3160  -16.2350 C.3    51  TYR51       0.0534
     26  CG       -18.9870   -3.3210  -15.7980 C.ar   51  TYR51      -0.0201
     27  CD1      -20.0330   -2.9370  -14.9710 C.ar   51  TYR51      -0.0009
     28  CD2      -18.9190   -4.6560  -16.1890 C.ar   51  TYR51      -0.0009
     29  CE1      -20.9930   -3.8450  -14.5590 C.ar   51  TYR51       0.0417
     30  CE2      -19.8760   -5.5740  -15.7780 C.ar   51  TYR51       0.0417
     31  CZ       -20.9110   -5.1590  -14.9620 C.ar   51  TYR51       0.1957
     32  OH       -21.8690   -6.0560  -14.5480 O.3    51  TYR51      -0.2866
     33  N        -11.8630    0.5950  -11.6770 N.3    98  TYR98      -0.1227
     34  CA       -12.1920   -0.8000  -11.4170 C.3    98  TYR98       0.1736
     35  C        -12.7590   -0.9620  -10.0130 C.2    98  TYR98       0.2596
     36  O        -12.5030   -0.1510   -9.1210 O.2    98  TYR98      -0.2718
     37  CB       -10.9780   -1.7140  -11.6250 C.3    98  TYR98       0.0548
     38  CG        -9.9780   -1.6810  -10.4900 C.ar   98  TYR98      -0.0200
     39  CD1      -10.0170   -2.6290   -9.4750 C.ar   98  TYR98      -0.0009
     40  CD2       -8.9920   -0.7040  -10.4340 C.ar   98  TYR98      -0.0009
     41  CE1       -9.1060   -2.6040   -8.4340 C.ar   98  TYR98       0.0417
     42  CE2       -8.0760   -0.6730   -9.3980 C.ar   98  TYR98       0.0417
     43  CZ        -8.1380   -1.6220   -8.4010 C.ar   98  TYR98       0.1957
     44  OH        -7.2260   -1.5870   -7.3710 O.3    98  TYR98      -0.2866
     45  N        -13.5490   -2.0090   -9.8380 N.am   99  GLY99      -0.1942
     46  CA       -14.1630   -2.3120   -8.5630 C.3    99  GLY99       0.2014
     47  C        -14.7120   -3.7180   -8.6270 C.2    99  GLY99       0.2639
     48  O        -14.4680   -4.4430   -9.5940 O.2    99  GLY99      -0.2714
     49  N        -15.4660   -4.1080   -7.6090 N.am  100  ASN100     -0.1958
     50  CA       -15.9320   -5.4870   -7.5250 C.3   100  ASN100      0.1819
     51  C        -17.4130   -5.6130   -7.1740 C.2   100  ASN100      0.2621
     52  O        -17.7480   -6.2020   -6.1510 O.2   100  ASN100     -0.2715
     53  CB       -15.0900   -6.2480   -6.4940 C.3   100  ASN100      0.1195
     54  CG       -15.1630   -7.7550   -6.6730 C.2   100  ASN100      0.2630
     55  OD1      -15.6650   -8.2520   -7.6820 O.2   100  ASN100     -0.2716
     56  ND2      -14.6500   -8.4890   -5.6930 N.am  100  ASN100     -0.0877
     57  N        -18.3050   -5.0960   -8.0180 N.am  101  TYR101     -0.1960
     58  CA       -17.9670   -4.4610   -9.2910 C.3   101  TYR101      0.1771
     59  C        -17.9460   -2.9330   -9.1890 C.2   101  TYR101      0.2619
     60  O        -17.4030   -2.2530  -10.0640 O.2   101  TYR101     -0.2715
     61  CB       -18.9960   -4.8610  -10.3520 C.3   101  TYR101      0.0574
     62  CG       -18.8170   -6.2500  -10.9320 C.ar  101  TYR101     -0.0198
     63  CD1      -17.8970   -7.1430  -10.3950 C.ar  101  TYR101     -0.0009
     64  CD2      -19.5930   -6.6750  -12.0070 C.ar  101  TYR101     -0.0009
     65  CE1      -17.7390   -8.4150  -10.9290 C.ar  101  TYR101      0.0417
     66  CE2      -19.4440   -7.9380  -12.5420 C.ar  101  TYR101      0.0417
     67  CZ       -18.5180   -8.8050  -12.0010 C.ar  101  TYR101      0.1957
     68  OH       -18.3780  -10.0650  -12.5400 O.3   101  TYR101     -0.2866
     69  N        -18.5520   -2.3940   -8.1320 N.am  102  LEU102     -0.1977
     70  CA       -18.6630   -0.9400   -7.9740 C.3   102  LEU102      0.1596
     71  C        -17.2880   -0.2890   -7.8880 C.2   102  LEU102      0.2287
     72  O        -16.4750   -0.6730   -7.0480 O.2   102  LEU102     -0.2864
     73  CB       -19.4870   -0.5860   -6.7320 C.3   102  LEU102      0.0297
     74  CG       -20.9860   -0.8940   -6.7980 C.3   102  LEU102      0.0022
     75  CD1      -21.6790   -0.5360   -5.4880 C.3   102  LEU102      0.0001
     76  CD2      -21.6300   -0.1650   -7.9650 C.3   102  LEU102      0.0001
     77  N        -13.8460    1.2750   -7.2840 N.3   104  ALA104     -0.1231
     78  CA       -13.1430    1.4840   -6.0270 C.3   104  ALA104      0.1694
     79  C        -11.8980    2.3340   -6.2560 C.2   104  ALA104      0.2592
     80  O        -11.4420    3.0360   -5.3570 O.2   104  ALA104     -0.2718
     81  CB       -12.7640    0.1390   -5.4080 C.3   104  ALA104      0.0304
     82  N        -11.3530    2.2620   -7.4670 N.am  105  TYR105     -0.1976
     83  CA       -10.1520    3.0170   -7.8150 C.3   105  TYR105      0.1639
     84  C        -10.2570    3.6020   -9.2140 C.2   105  TYR105      0.2290
     85  O        -10.7600    2.9540  -10.1270 O.2   105  TYR105     -0.2864
     86  CB        -8.9090    2.1350   -7.6970 C.3   105  TYR105      0.0560
     87  CG        -8.5930    1.7600   -6.2700 C.ar  105  TYR105     -0.0198
     88  CD1       -7.8370    2.6030   -5.4660 C.ar  105  TYR105     -0.0009
     89  CD2       -9.0620    0.5760   -5.7210 C.ar  105  TYR105     -0.0009
     90  CE1       -7.5500    2.2720   -4.1580 C.ar  105  TYR105      0.0417
     91  CE2       -8.7800    0.2370   -4.4100 C.ar  105  TYR105      0.0417
     92  CZ        -8.0230    1.0910   -3.6360 C.ar  105  TYR105      0.1957
     93  OH        -7.7360    0.7630   -2.3320 O.3   105  TYR105     -0.2866
@<TRIPOS>BOND
     1    24    23    2
     2    23    22    1
     3    21    22    1
     4    22    25    1
     5    25    26    1
     6    28    26   ar
     7    28    30   ar
     8    26    27   ar
     9    30    31   ar
    10    27    29   ar
    11    31    29   ar
    12    31    32    1
    13    12    11    2
    14    66    64   ar
    15    66    67   ar
    16    68    67    1
    17     4     3    2
    18    11    10    1
    19     1     2    1
    20    64    62   ar
    21    67    65   ar
    22    33    34    1
    23    37    34    1
    24    37    38    1
    25     3     2    1
    26     3     9   am
    27    34    35    1
    28     2     5    1
    29     9    10    1
    30    10    13    1
    31    62    63   ar
    32    62    61    1
    33    65    63   ar
    34    13    14    1
    35    38    40   ar
    36    38    39   ar
    37    40    42   ar
    38    61    58    1
    39    85    84    2
    40    60    59    2
    41    35    45   am
    42    35    36    2
    43     5     6    1
    44    45    46    1
    45    48    47    2
    46     7     6   ar
    47    39    41   ar
    48    14    16   ar
    49    14    15   ar
    50    42    43   ar
    51    16    18   ar
    52    58    59    1
    53    58    57    1
    54    84    83    1
    55    59    69   am
    56     6     8   ar
    57    47    46    1
    58    47    49   am
    59    41    43   ar
    60    43    44    1
    61    15    17   ar
    62    18    19   ar
    63    69    70    1
    64    57    51   am
    65    70    71    1
    66    70    73    1
    67    76    74    1
    68    71    72    2
    69    83    86    1
    70    83    82    1
    71    86    87    1
    72    55    54    2
    73    49    50    1
    74    50    51    1
    75    50    53    1
    76    82    79   am
    77    77    78    1
    78    51    52    2
    79    17    19   ar
    80    19    20    1
    81    74    73    1
    82    74    75    1
    83    54    53    1
    84    54    56   am
    85    87    89   ar
    86    87    88   ar
    87    79    78    1
    88    79    80    2
    89    78    81    1
    90    89    91   ar
    91    88    90   ar
    92    91    92   ar
    93    90    92   ar
    94    92    93    1
