@<TRIPOS>MOLECULE
tmp/3lezA00.pdb
 99 94 0 0 0
SMALL
GASTEIGER

@<TRIPOS>ATOM
      1  N         13.1120  -14.4690   14.7910 N.3    41  SER41      -0.1217
      2  CA        12.8490  -15.8980   14.9690 C.3    41  SER41       0.1889
      3  C         11.6700  -16.4450   14.1700 C.2    41  SER41       0.2288
      4  O         11.4800  -17.6580   14.1060 O.2    41  SER41      -0.2866
      5  CB        12.6800  -16.2370   16.4530 C.3    41  SER41       0.2089
      6  OG        13.9350  -16.2560   17.0860 O.3    41  SER41      -0.2183
      7  N         20.9140  -18.0300   24.0650 N.3    74  TYR74      -0.1241
      8  CA        19.5520  -18.5530   24.2130 C.3    74  TYR74       0.1605
      9  C         19.2880  -19.8530   23.4380 C.2    74  TYR74       0.2264
     10  O         18.5870  -19.8740   22.4120 O.2    74  TYR74      -0.2867
     11  CB        18.4500  -17.5100   23.9530 C.3    74  TYR74       0.0534
     12  CG        17.1750  -17.9760   24.6080 C.ar   74  TYR74      -0.0201
     13  CD1       17.0230  -17.8900   25.9900 C.ar   74  TYR74      -0.0009
     14  CD2       16.1500  -18.5580   23.8690 C.ar   74  TYR74      -0.0009
     15  CE1       15.8940  -18.3400   26.6100 C.ar   74  TYR74       0.0417
     16  CE2       15.0050  -19.0290   24.4950 C.ar   74  TYR74       0.0417
     17  CZ        14.8900  -18.9130   25.8740 C.ar   74  TYR74       0.1957
     18  OH        13.7750  -19.3780   26.5160 O.3    74  TYR74      -0.2866
     19  N         10.2870  -23.2830   21.4700 N.3    98  TYR98      -0.1227
     20  CA        11.0720  -22.5760   22.4850 C.3    98  TYR98       0.1736
     21  C         11.9260  -21.4480   21.9110 C.2    98  TYR98       0.2596
     22  O         12.5370  -20.6850   22.6550 O.2    98  TYR98      -0.2718
     23  CB        11.9490  -23.5570   23.2680 C.3    98  TYR98       0.0548
     24  CG        11.1570  -24.5650   24.0730 C.ar   98  TYR98      -0.0200
     25  CD1       11.0690  -25.8970   23.6720 C.ar   98  TYR98      -0.0009
     26  CD2       10.4790  -24.1840   25.2290 C.ar   98  TYR98      -0.0009
     27  CE1       10.3460  -26.8230   24.4110 C.ar   98  TYR98       0.0417
     28  CE2        9.7470  -25.1040   25.9630 C.ar   98  TYR98       0.0417
     29  CZ         9.6840  -26.4170   25.5510 C.ar   98  TYR98       0.1957
     30  OH         8.9640  -27.3320   26.3010 O.3    98  TYR98      -0.2866
     31  N         11.9670  -21.3290   20.5830 N.am   99  SER99      -0.1952
     32  CA        12.7860  -20.3230   19.9140 C.3    99  SER99       0.1924
     33  C         14.2740  -20.5170   20.2110 C.2    99  SER99       0.2314
     34  O         15.0400  -19.5650   20.3160 O.2    99  SER99      -0.2863
     35  CB        12.3160  -18.9010   20.2330 C.3    99  SER99       0.2116
     36  OG        12.5620  -18.0560   19.1170 O.3    99  SER99      -0.2180
     37  N         17.9330  -20.7960   19.6660 N.3   101  ASN101     -0.1240
     38  CA        18.7010  -20.1550   18.5990 C.3   101  ASN101      0.1653
     39  C         19.6910  -21.0810   17.9060 C.2   101  ASN101      0.2266
     40  O         19.8470  -21.0160   16.6770 O.2   101  ASN101     -0.2867
     41  CB        19.4060  -18.9000   19.1190 C.3   101  ASN101      0.1155
     42  CG        18.4660  -17.7270   19.2540 C.2   101  ASN101      0.2627
     43  OD1       17.5270  -17.5710   18.4630 O.2   101  ASN101     -0.2716
     44  ND2       18.7150  -16.8800   20.2580 N.am  101  ASN101     -0.0877
     45  N          5.8580  -19.5920   23.4950 N.3   185  THR185     -0.1218
     46  CA         6.3410  -18.2190   23.6620 C.3   185  THR185      0.1862
     47  C          5.3400  -17.1220   23.2790 C.2   185  THR185      0.2287
     48  O          5.6530  -15.9330   23.3860 O.2   185  THR185     -0.2866
     49  CB         7.5960  -17.9700   22.8220 C.3   185  THR185      0.1770
     50  OG1        7.2330  -18.0190   21.4310 O.3   185  THR185     -0.2211
     51  CG2        8.6650  -19.0130   23.0990 C.3   185  THR185      0.0375
     52  N          4.4100  -18.4660   15.7120 N.3   203  LYS203     -0.1231
     53  CA         5.8200  -18.3140   16.0270 C.3   203  LYS203      0.1693
     54  C          6.1210  -16.8330   16.2150 C.2   203  LYS203      0.2593
     55  O          5.8420  -16.0090   15.3360 O.2   203  LYS203     -0.2718
     56  CB         6.7130  -18.8780   14.9190 C.3   203  LYS203      0.0285
     57  CG         8.2020  -18.6760   15.1900 C.3   203  LYS203      0.0035
     58  CD         8.7200  -19.6930   16.1990 C.3   203  LYS203      0.0206
     59  CE        10.0840  -19.3250   16.7930 C.3   203  LYS203      0.1093
     60  NZ         9.9970  -18.2350   17.8040 N.3   203  LYS203     -0.1314
     61  N          6.7010  -16.5090   17.3640 N.am  204  THR204     -0.1939
     62  CA         7.0720  -15.1480   17.7110 C.3   204  THR204      0.2028
     63  C          8.4770  -14.7890   17.2420 C.2   204  THR204      0.2643
     64  O          9.2850  -15.6570   16.9100 O.2   204  THR204     -0.2714
     65  CB         7.0560  -14.9960   19.2490 C.3   204  THR204      0.1808
     66  OG1        7.9250  -15.9830   19.8260 O.3   204  THR204     -0.2208
     67  CG2        5.6470  -15.2060   19.8020 C.3   204  THR204      0.0379
     68  N          8.7730  -13.5010   17.2560 N.am  205  GLY205     -0.1939
     69  CA        10.1300  -13.0350   17.0710 C.3   205  GLY205      0.2014
     70  C         10.3720  -11.7350   17.8080 C.2   205  GLY205      0.2638
     71  O          9.4330  -10.9790   18.0730 O.2   205  GLY205     -0.2714
     72  N         11.6390  -11.4910   18.1380 N.am  206  ALA206     -0.1977
     73  CA        12.0880  -10.2500   18.7660 C.3   206  ALA206      0.1597
     74  C         13.5080   -9.9890   18.2890 C.2   206  ALA206      0.2287
     75  O         14.2720  -10.9260   18.0580 O.2   206  ALA206     -0.2864
     76  CB        12.0740  -10.3770   20.3020 C.3   206  ALA206      0.0319
     77  N          9.3980   -6.6950   16.9370 N.3   212  ARG212     -0.1245
     78  CA         8.5120   -7.6270   17.6290 C.3   212  ARG212      0.1563
     79  C          7.5020   -8.1660   16.6220 C.2   212  ARG212      0.2260
     80  O          6.7020   -7.3990   16.0740 O.2   212  ARG212     -0.2867
     81  CB         7.8110   -6.9460   18.8190 C.3   212  ARG212      0.0307
     82  CG         7.0370   -7.9200   19.7030 C.3   212  ARG212      0.0489
     83  CD         7.9390   -9.0370   20.2050 C.3   212  ARG212      0.2205
     84  NE         7.4160   -9.7160   21.3830 N.pl3 212  ARG212     -0.0865
     85  CZ         7.7580  -10.9430   21.7560 C.cat 212  ARG212      0.5346
     86  NH1        8.5530  -11.6900   20.9960 N.pl3 212  ARG212      0.1354
     87  NH2        7.2700  -11.4420   22.8880 N.pl3 212  ARG212      0.1354
     88  N          9.9660   -3.1100   22.9710 N.3   242  TYR242     -0.1241
     89  CA         8.6710   -3.3670   22.3680 C.3   242  TYR242      0.1605
     90  C          7.6150   -3.5610   23.4510 C.2   242  TYR242      0.2264
     91  O          7.9370   -3.6670   24.6440 O.2   242  TYR242     -0.2867
     92  CB         8.7310   -4.5920   21.4480 C.3   242  TYR242      0.0534
     93  CG         9.1720   -5.8630   22.1360 C.ar  242  TYR242     -0.0201
     94  CD1        8.2970   -6.5910   22.9410 C.ar  242  TYR242     -0.0009
     95  CD2       10.4630   -6.3470   21.9710 C.ar  242  TYR242     -0.0009
     96  CE1        8.7070   -7.7640   23.5720 C.ar  242  TYR242      0.0417
     97  CE2       10.8790   -7.5110   22.5920 C.ar  242  TYR242      0.0417
     98  CZ        10.0030   -8.2150   23.3900 C.ar  242  TYR242      0.1957
     99  OH        10.4380   -9.3750   23.9910 O.3   242  TYR242     -0.2866
@<TRIPOS>BOND
     1     4     3    2
     2     3     2    1
     3     1     2    1
     4    56    57    1
     5    56    53    1
     6     2     5    1
     7    57    58    1
     8    55    54    2
     9    52    53    1
    10    53    54    1
    11    80    79    2
    12    58    59    1
    13    54    61   am
    14     5     6    1
    15    79    78    1
    16    40    39    2
    17    59    60    1
    18    64    63    2
    19    77    78    1
    20    69    68    1
    21    69    70    1
    22    63    68   am
    23    63    62    1
    24    61    62    1
    25    78    81    1
    26    62    65    1
    27    70    71    2
    28    70    72   am
    29    39    38    1
    30    75    74    2
    31    72    73    1
    32    74    73    1
    33    43    42    2
    34    38    41    1
    35    38    37    1
    36    73    76    1
    37    81    82    1
    38    36    35    1
    39    41    42    1
    40    65    67    1
    41    65    66    1
    42    42    44   am
    43    82    83    1
    44    32    33    1
    45    32    35    1
    46    32    31    1
    47    83    84    1
    48    33    34    2
    49    31    21   am
    50    86    85    1
    51    84    85    2
    52    50    49    1
    53    92    93    1
    54    92    89    1
    55    19    20    1
    56    85    87    1
    57    21    20    1
    58    21    22    2
    59    95    93   ar
    60    95    97   ar
    61    93    94   ar
    62    89    88    1
    63    89    90    1
    64    10     9    2
    65    20    23    1
    66    97    98   ar
    67    49    51    1
    68    49    46    1
    69    94    96   ar
    70    23    24    1
    71    47    48    2
    72    47    46    1
    73    98    96   ar
    74    98    99    1
    75     9     8    1
    76    90    91    2
    77    45    46    1
    78    25    24   ar
    79    25    27   ar
    80    14    16   ar
    81    14    12   ar
    82    11     8    1
    83    11    12    1
    84     7     8    1
    85    24    26   ar
    86    27    29   ar
    87    16    17   ar
    88    12    13   ar
    89    26    28   ar
    90    29    28   ar
    91    29    30    1
    92    17    18    1
    93    17    15   ar
    94    13    15   ar
