@<TRIPOS>MOLECULE
tmp/3lf0B00.pdb
 115 109 0 0 0
SMALL
GASTEIGER

@<TRIPOS>ATOM
      1  N         14.4210   -8.7740    0.5250 N.3     4  LEU4       -0.1245
      2  CA        15.7200   -9.2370    0.0770 C.3     4  LEU4        0.1561
      3  C         15.6690   -9.4010   -1.4090 C.2     4  LEU4        0.2260
      4  O         14.7890  -10.1010   -1.9320 O.2     4  LEU4       -0.2867
      5  CB        16.1140  -10.5580    0.7480 C.3     4  LEU4        0.0270
      6  CG        17.4830  -11.1170    0.3770 C.3     4  LEU4        0.0019
      7  CD1       18.5320  -10.2150    0.9100 C.3     4  LEU4        0.0001
      8  CD2       17.6360  -12.4740    0.9730 C.3     4  LEU4        0.0001
      9  N         21.7520    2.7090   -2.9150 N.3    26  VAL26      -0.1231
     10  CA        22.0000    1.4690   -2.1810 C.3    26  VAL26       0.1692
     11  C         23.5000    1.3640   -1.8610 C.2    26  VAL26       0.2592
     12  O         24.3350    1.3020   -2.7670 O.2    26  VAL26      -0.2718
     13  CB        21.5020    0.2510   -2.9990 C.3    26  VAL26       0.0266
     14  CG1       21.7750   -1.0560   -2.2770 C.3    26  VAL26       0.0020
     15  CG2       20.0170    0.3850   -3.3000 C.3    26  VAL26       0.0020
     16  N         23.8300    1.3590   -0.5690 N.am   27  LEU27      -0.1966
     17  CA        25.2240    1.5240   -0.1140 C.3    27  LEU27       0.1728
     18  C         25.7080    0.3450    0.7490 C.2    27  LEU27       0.2617
     19  O         26.0760    0.5010    1.9300 O.2    27  LEU27      -0.2715
     20  CB        25.4020    2.8700    0.6200 C.3    27  LEU27       0.0311
     21  CG        25.3400    4.1290   -0.2440 C.3    27  LEU27       0.0022
     22  CD1       25.3870    5.3380    0.6600 C.3    27  LEU27       0.0001
     23  CD2       26.4820    4.1990   -1.2250 C.3    27  LEU27       0.0001
     24  N         25.7000   -0.8320    0.1410 N.am   28  GLY28      -0.1940
     25  CA        26.1360   -2.0520    0.7780 C.3    28  GLY28       0.2014
     26  C         25.5000   -3.2100    0.0400 C.2    28  GLY28       0.2642
     27  O         24.3830   -3.0910   -0.4690 O.2    28  GLY28      -0.2714
     28  N         26.2160   -4.3210   -0.0510 N.am   29  MET29      -0.1917
     29  CA        25.6860   -5.5070   -0.6670 C.3    29  MET29       0.1952
     30  C         26.4640   -6.6780   -0.0990 C.2    29  MET29       0.2659
     31  O         27.5620   -6.4880    0.4500 O.2    29  MET29      -0.2711
     32  CB        25.7550   -5.4290   -2.2180 C.2    29  MET29       0.0110
     33  CG        27.1290   -5.6670   -2.8400 C.2    29  MET29       0.0285
     34  SD        27.3800   -5.1900   -4.6040 S.3    29  MET29      -0.1125
     35  CE        26.0770   -6.0910   -5.4060 C.3    29  MET29       0.0742
     36  N         25.8760   -7.8710   -0.2090 N.am   30  THR30      -0.1948
     37  CA        26.5180   -9.1130    0.1880 C.3    30  THR30       0.1897
     38  C         26.7400   -9.9480   -1.0700 C.2    30  THR30       0.2313
     39  O         25.7840  -10.1910   -1.8210 O.2    30  THR30      -0.2863
     40  CB        25.6490   -9.8650    1.2530 C.3    30  THR30       0.1794
     41  OG1       25.7590   -9.2080    2.5170 O.3    30  THR30      -0.2208
     42  CG2       26.1220  -11.2330    1.4860 C.3    30  THR30       0.0378
     43  N         23.2830  -10.2290   -2.8180 N.3    62  GLU62      -0.1231
     44  CA        22.1530   -9.9540   -1.9000 C.3    62  GLU62       0.1699
     45  C         22.0650   -8.5440   -1.3340 C.2    62  GLU62       0.2592
     46  O         23.0200   -8.0520   -0.7240 O.2    62  GLU62      -0.2718
     47  CB        22.1720  -10.9160   -0.7320 C.3    62  GLU62       0.0402
     48  CG        21.8290  -12.2910   -1.0980 C.3    62  GLU62       0.1161
     49  CD        22.0710  -13.1510    0.0620 C.2    62  GLU62       0.3649
     50  OE1       23.1830  -13.0290    0.6630 O.co2  62  GLU62      -0.2457
     51  OE2       21.1360  -13.9060    0.4240 O.co2  62  GLU62      -0.2457
     52  N         20.9270   -7.8950   -1.5700 N.am   63  VAL63      -0.1966
     53  CA        20.6510   -6.5760   -1.0010 C.3    63  VAL63       0.1727
     54  C         19.3060   -6.5280   -0.2600 C.2    63  VAL63       0.2616
     55  O         18.2650   -6.8520   -0.8310 O.2    63  VAL63      -0.2715
     56  CB        20.5740   -5.4440   -2.0800 C.3    63  VAL63       0.0290
     57  CG1       21.2250   -4.1710   -1.5650 C.3    63  VAL63       0.0023
     58  CG2       21.1650   -5.8440   -3.3810 C.3    63  VAL63       0.0023
     59  N         19.3220   -6.0690    0.9900 N.am   64  VAL64      -0.1977
     60  CA        18.0750   -5.7670    1.7160 C.3    64  VAL64       0.1596
     61  C         17.6960   -4.3310    1.4550 C.2    64  VAL64       0.2287
     62  O         18.4760   -3.4260    1.6970 O.2    64  VAL64      -0.2864
     63  CB        18.1500   -6.0880    3.2320 C.3    64  VAL64       0.0276
     64  CG1       16.8200   -5.8000    3.9050 C.3    64  VAL64       0.0022
     65  CG2       18.5890   -7.5420    3.5050 C.3    64  VAL64       0.0022
     66  N         15.1870   -6.4770   10.2270 N.3    99  ILE99      -0.1245
     67  CA        16.6270   -6.3470   10.0920 C.3    99  ILE99       0.1561
     68  C         17.1470   -5.4770   11.2380 C.2    99  ILE99       0.2260
     69  O         16.4740   -4.5030   11.6650 O.2    99  ILE99      -0.2867
     70  CB        17.0130   -5.7700    8.7010 C.3    99  ILE99       0.0252
     71  CG1       18.5300   -5.8600    8.4610 C.3    99  ILE99       0.0019
     72  CG2       16.4300   -4.3790    8.4790 C.3    99  ILE99       0.0019
     73  CD1       18.8580   -6.3060    7.0980 C.3    99  ILE99       0.0001
     74  N         20.8600   -3.5920   12.8740 N.3   101  ARG101     -0.1231
     75  CA        22.3090   -3.2970   12.7330 C.3   101  ARG101      0.1694
     76  C         23.0160   -3.8400   13.9520 C.2   101  ARG101      0.2592
     77  O         22.6230   -3.5340   15.0720 O.2   101  ARG101     -0.2718
     78  CB        22.5820   -1.7910   12.5590 C.3   101  ARG101      0.0321
     79  CG        24.0550   -1.4950   12.2030 C.3   101  ARG101      0.0489
     80  CD        24.4230    0.0010   12.0190 C.3   101  ARG101      0.2205
     81  NE        23.4430    0.7670   11.2410 N.pl3 101  ARG101     -0.0865
     82  CZ        23.4870    0.9770    9.9250 C.cat 101  ARG101      0.5346
     83  NH1       22.5260    1.6890    9.3520 N.pl3 101  ARG101      0.1354
     84  NH2       24.4730    0.4930    9.1810 N.pl3 101  ARG101      0.1354
     85  N         24.0670   -4.6420   13.7530 N.am  102  VAL102     -0.1966
     86  CA        24.7220   -5.2860   14.9220 C.3   102  VAL102      0.1727
     87  C         25.2850   -4.3030   15.9550 C.2   102  VAL102      0.2616
     88  O         25.0540   -4.4760   17.1520 O.2   102  VAL102     -0.2715
     89  CB        25.7320   -6.4220   14.5540 C.3   102  VAL102      0.0290
     90  CG1       26.6790   -6.7370   15.7490 C.3   102  VAL102      0.0023
     91  CG2       24.9880   -7.6910   14.0830 C.3   102  VAL102      0.0023
     92  N         25.9580   -3.2480   15.4900 N.am  103  ARG103     -0.1977
     93  CA        26.5810   -2.2440   16.3510 C.3   103  ARG103      0.1597
     94  C         25.6420   -1.3540   17.1960 C.2   103  ARG103      0.2287
     95  O         25.9740   -1.0110   18.3370 O.2   103  ARG103     -0.2864
     96  CB        27.4880   -1.3430   15.5010 C.3   103  ARG103      0.0334
     97  CG        28.3230   -0.3240   16.2870 C.3   103  ARG103      0.0492
     98  CD        29.3000    0.4240   15.3820 C.3   103  ARG103      0.2205
     99  NE        28.6120    1.1320   14.3040 N.pl3 103  ARG103     -0.0865
    100  CZ        28.2000    2.3960   14.3810 C.cat 103  ARG103      0.5346
    101  NH1       28.4060    3.1150   15.4920 N.pl3 103  ARG103      0.1354
    102  NH2       27.5670    2.9400   13.3520 N.pl3 103  ARG103      0.1354
    103  N         18.5260    0.4470    9.9970 N.3   111  ALA111     -0.1231
    104  CA        19.5450   -0.6250   10.0160 C.3   111  ALA111      0.1694
    105  C         20.3410   -0.7750    8.7210 C.2   111  ALA111      0.2591
    106  O         21.3330   -1.4920    8.7080 O.2   111  ALA111     -0.2718
    107  CB        18.9150   -1.9750   10.3960 C.3   111  ALA111      0.0304
    108  N         19.9170   -0.1000    7.6550 N.am  112  LEU112     -0.1980
    109  CA        20.5020   -0.2680    6.3170 C.3   112  LEU112      0.1596
    110  C         21.7490    0.5970    6.0320 C.2   112  LEU112      0.2287
    111  O         21.9330    1.7090    6.5600 O.2   112  LEU112     -0.2864
    112  CB        19.4310   -0.0760    5.2200 C.3   112  LEU112      0.0297
    113  CG        18.1830   -0.9860    5.3450 C.3   112  LEU112      0.0022
    114  CD1       17.1180   -0.5590    4.3500 C.3   112  LEU112      0.0001
    115  CD2       18.5200   -2.5080    5.2150 C.3   112  LEU112      0.0001
@<TRIPOS>BOND
     1    35    34    1
     2    34    33    1
     3    58    56    1
     4    15    13    1
     5    13    14    1
     6    13    10    1
     7     9    10    1
     8    33    32    2
     9    43    44    1
    10    12    11    2
    11    32    29    1
    12    10    11    1
    13    56    57    1
    14    56    53    1
    15     4     3    2
    16    44    45    1
    17    44    47    1
    18    11    16   am
    19    39    38    2
    20    52    45   am
    21    52    53    1
    22     3     2    1
    23    45    46    2
    24    23    21    1
    25    48    47    1
    26    48    49    1
    27    38    37    1
    28    53    54    1
    29    55    54    2
    30    29    30    1
    31    29    28    1
    32    16    17    1
    33    27    26    2
    34    54    59   am
    35    21    20    1
    36    21    22    1
    37    36    30   am
    38    36    37    1
    39    17    20    1
    40    17    18    1
    41    30    31    2
    42    28    26   am
    43    26    25    1
    44    49    51   ar
    45    49    50   ar
    46     2     1    1
    47     2     5    1
    48    24    18   am
    49    24    25    1
    50    37    40    1
    51     6     5    1
    52     6     7    1
    53     6     8    1
    54    18    19    2
    55    59    60    1
    56    40    42    1
    57    40    41    1
    58    61    62    2
    59    61    60    1
    60    60    63    1
    61    63    65    1
    62    63    64    1
    63   114   113    1
    64   115   113    1
    65   112   113    1
    66   112   109    1
    67   110   109    1
    68   110   111    2
    69   109   108    1
    70    73    71    1
    71   108   105   am
    72    71    70    1
    73    72    70    1
    74    70    67    1
    75   106   105    2
    76   105   104    1
    77    84    82    1
    78    83    82    1
    79    82    81    2
    80   103   104    1
    81   104   107    1
    82    67    66    1
    83    67    68    1
    84    68    69    2
    85    81    80    1
    86    80    79    1
    87    79    78    1
    88    78    75    1
    89    75    74    1
    90    75    76    1
    91   102   100    1
    92    85    76   am
    93    85    86    1
    94    76    77    2
    95    91    89    1
    96    99   100    2
    97    99    98    1
    98   100   101    1
    99    89    86    1
   100    89    90    1
   101    86    87    1
   102    98    97    1
   103    92    87   am
   104    92    93    1
   105    96    97    1
   106    96    93    1
   107    87    88    2
   108    93    94    1
   109    94    95    2
