@<TRIPOS>MOLECULE
tmp/3lf0B01.pdb
 128 124 0 0 0
SMALL
GASTEIGER

@<TRIPOS>ATOM
      1  N         21.4490  -13.6830   -9.2290 N.3     8  ILE8       -0.1245
      2  CA        22.4520  -14.5880   -9.8050 C.3     8  ILE8        0.1561
      3  C         22.9090  -14.0890  -11.1940 C.2     8  ILE8        0.2260
      4  O         22.1570  -14.1130  -12.1490 O.2     8  ILE8       -0.2867
      5  CB        21.9120  -16.0100   -9.9780 C.3     8  ILE8        0.0252
      6  CG1       21.1060  -16.4560   -8.7700 C.3     8  ILE8        0.0019
      7  CG2       23.0550  -16.9670  -10.2790 C.3     8  ILE8        0.0019
      8  CD1       21.9240  -16.5290   -7.4850 C.3     8  ILE8        0.0001
      9  N         28.7900  -18.8300   -6.5250 N.3    34  ILE34      -0.1245
     10  CA        28.0160  -20.0770   -6.6780 C.3    34  ILE34       0.1561
     11  C         28.3610  -20.8690   -7.9740 C.2    34  ILE34       0.2260
     12  O         28.8920  -20.3200   -8.9240 O.2    34  ILE34      -0.2867
     13  CB        26.4700  -19.8460   -6.5430 C.3    34  ILE34       0.0252
     14  CG1       25.9260  -18.9520   -7.6750 C.3    34  ILE34       0.0019
     15  CG2       26.0970  -19.3170   -5.1270 C.3    34  ILE34       0.0019
     16  CD1       25.4780  -19.7380   -8.8730 C.3    34  ILE34       0.0001
     17  N         26.4290  -22.4870  -10.8610 N.3    36  GLY36      -0.1210
     18  CA        25.1050  -22.4660  -11.4440 C.3    36  GLY36       0.1956
     19  C         24.9150  -23.5480  -12.4620 C.2    36  GLY36       0.2612
     20  O         25.8510  -24.0000  -13.1010 O.2    36  GLY36      -0.2717
     21  N         23.6710  -23.9450  -12.6300 N.am   37  TYR37      -0.1962
     22  CA        23.3080  -24.9850  -13.5810 C.3    37  TYR37       0.1771
     23  C         22.0320  -24.5340  -14.2770 C.2    37  TYR37       0.2620
     24  O         21.1140  -24.0220  -13.6220 O.2    37  TYR37      -0.2715
     25  CB        23.0730  -26.2840  -12.8180 C.3    37  TYR37       0.0574
     26  CG        22.9320  -27.5260  -13.6570 C.ar   37  TYR37      -0.0198
     27  CD1       21.6660  -28.0240  -13.9980 C.ar   37  TYR37      -0.0009
     28  CD2       24.0590  -28.2290  -14.0740 C.ar   37  TYR37      -0.0009
     29  CE1       21.5260  -29.1780  -14.7570 C.ar   37  TYR37       0.0417
     30  CE2       23.9380  -29.3990  -14.8420 C.ar   37  TYR37       0.0417
     31  CZ        22.6690  -29.8680  -15.1810 C.ar   37  TYR37       0.1957
     32  OH        22.5560  -31.0210  -15.9370 O.3    37  TYR37      -0.2866
     33  N         21.9650  -24.7000  -15.5930 N.am   38  GLY38      -0.1940
     34  CA        20.7400  -24.3320  -16.3020 C.3    38  GLY38       0.2014
     35  C         20.7580  -24.6340  -17.7810 C.2    38  GLY38       0.2639
     36  O         21.2870  -25.6640  -18.1990 O.2    38  GLY38      -0.2714
     37  N         20.1630  -23.7320  -18.5640 N.am   39  ARG39      -0.1963
     38  CA        20.1700  -23.8030  -20.0320 C.3    39  ARG39       0.1729
     39  C         21.6020  -23.6800  -20.5510 C.2    39  ARG39       0.2616
     40  O         21.9270  -24.2330  -21.5950 O.2    39  ARG39      -0.2715
     41  CB        19.2860  -22.6960  -20.6280 C.3    39  ARG39       0.0348
     42  CG        17.8080  -22.7960  -20.2350 C.3    39  ARG39       0.0492
     43  CD        17.1040  -21.4060  -20.1330 C.3    39  ARG39       0.2205
     44  NE        15.6420  -21.6010  -20.4830 N.pl3  39  ARG39      -0.0865
     45  CZ        14.8460  -20.6780  -21.0440 C.cat  39  ARG39       0.5346
     46  NH1       15.3630  -19.4620  -21.3360 N.pl3  39  ARG39       0.1354
     47  NH2       13.5230  -20.9780  -21.3350 N.pl3  39  ARG39       0.1354
     48  N         22.4420  -22.9560  -19.7970 N.am   40  GLN40      -0.1977
     49  CA        23.8750  -22.8050  -20.0750 C.3    40  GLN40       0.1601
     50  C         24.6190  -24.1440  -19.9620 C.2    40  GLN40       0.2287
     51  O         24.1830  -25.0690  -19.2610 O.2    40  GLN40      -0.2864
     52  CB        24.5420  -21.7950  -19.0900 C.3    40  GLN40       0.0394
     53  CG        26.0230  -21.5330  -19.3610 C.3    40  GLN40       0.0908
     54  CD        26.2690  -20.8630  -20.7050 C.2    40  GLN40       0.2608
     55  OE1       25.5060  -19.9930  -21.1300 O.2    40  GLN40      -0.2717
     56  NE2       27.3350  -21.2740  -21.3840 N.am   40  GLN40      -0.0878
     57  N         28.3680  -23.7660  -14.0940 N.3    56  VAL56      -0.1245
     58  CA        29.0060  -22.5470  -14.4930 C.3    56  VAL56       0.1561
     59  C         29.1220  -21.5760  -13.3220 C.2    56  VAL56       0.2260
     60  O         28.1570  -21.3400  -12.6100 O.2    56  VAL56      -0.2867
     61  CB        28.4430  -21.9900  -15.8600 C.3    56  VAL56       0.0252
     62  CG1       27.1680  -22.7530  -16.3470 C.3    56  VAL56       0.0019
     63  CG2       28.3090  -20.4800  -15.8900 C.3    56  VAL56       0.0019
     64  N         28.8240  -18.4620  -11.1080 N.3    58  LYS58      -0.1245
     65  CA        28.0300  -17.2190  -11.1000 C.3    58  LYS58       0.1561
     66  C         28.3270  -16.4780   -9.8390 C.2    58  LYS58       0.2260
     67  O         29.0040  -16.9950   -8.9540 O.2    58  LYS58      -0.2867
     68  CB        26.5250  -17.4590  -11.1930 C.3    58  LYS58       0.0271
     69  CG        26.0520  -18.1750  -12.3730 C.3    58  LYS58       0.0035
     70  CD        26.0770  -17.3200  -13.6580 C.3    58  LYS58       0.0206
     71  CE        25.4890  -18.1530  -14.8080 C.3    58  LYS58       0.1093
     72  NZ        25.8260  -17.5920  -16.1400 N.3    58  LYS58      -0.1314
     73  N         23.7180  -12.2340  -24.4730 N.3    85  LYS85      -0.1231
     74  CA        24.0280  -13.6410  -24.5730 C.3    85  LYS85       0.1693
     75  C         23.2740  -14.4280  -23.4930 C.2    85  LYS85       0.2592
     76  O         22.6840  -13.8360  -22.5740 O.2    85  LYS85      -0.2718
     77  CB        25.5420  -13.8070  -24.4160 C.3    85  LYS85       0.0285
     78  CG        26.3290  -13.1210  -25.5210 C.3    85  LYS85       0.0035
     79  CD        27.8000  -13.1460  -25.2130 C.3    85  LYS85       0.0206
     80  CE        28.6190  -12.7250  -26.4250 C.3    85  LYS85       0.1093
     81  NZ        30.0610  -13.0390  -26.2170 N.3    85  LYS85      -0.1314
     82  N         23.2810  -15.7570  -23.6030 N.am   86  ILE86      -0.1966
     83  CA        22.5910  -16.6170  -22.6260 C.3    86  ILE86       0.1727
     84  C         23.3280  -16.6830  -21.2840 C.2    86  ILE86       0.2617
     85  O         24.5180  -16.4380  -21.2080 O.2    86  ILE86      -0.2715
     86  CB        22.3320  -18.0680  -23.1710 C.3    86  ILE86       0.0290
     87  CG1       23.6590  -18.7790  -23.5180 C.3    86  ILE86       0.0022
     88  CG2       21.3520  -18.0390  -24.3630 C.3    86  ILE86       0.0023
     89  CD1       23.5060  -20.2430  -24.0120 C.3    86  ILE86       0.0001
     90  N         22.6020  -17.0190  -20.2310 N.am   87  GLY87      -0.1940
     91  CA        23.2150  -17.2480  -18.9370 C.3    87  GLY87       0.2014
     92  C         23.4230  -15.9880  -18.1180 C.2    87  GLY87       0.2639
     93  O         24.2110  -15.9940  -17.1820 O.2    87  GLY87      -0.2714
     94  N         22.7250  -14.9130  -18.4890 N.am   88  ASP88      -0.1957
     95  CA        22.7360  -13.6470  -17.7630 C.3    88  ASP88       0.1840
     96  C         22.2800  -13.7890  -16.2780 C.2    88  ASP88       0.2623
     97  O         22.8350  -13.1590  -15.4020 O.2    88  ASP88      -0.2715
     98  CB        21.8450  -12.6300  -18.4700 C.3    88  ASP88       0.1450
     99  CG        22.5040  -11.9850  -19.6600 C.2    88  ASP88       0.3671
    100  OD1       23.7090  -12.2180  -19.9070 O.co2  88  ASP88      -0.2456
    101  OD2       21.7900  -11.2350  -20.3760 O.co2  88  ASP88      -0.2456
    102  N         21.2550  -14.6030  -16.0330 N.am   89  GLY89      -0.1940
    103  CA        20.8450  -14.9120  -14.6890 C.3    89  GLY89       0.2014
    104  C         19.4440  -14.4600  -14.3540 C.2    89  GLY89       0.2638
    105  O         18.5610  -14.3650  -15.2180 O.2    89  GLY89      -0.2714
    106  N         19.2480  -14.1670  -13.0840 N.am   90  LYS90      -0.1977
    107  CA        17.9240  -14.0080  -12.5300 C.3    90  LYS90       0.1596
    108  C         18.0530  -13.1570  -11.2980 C.2    90  LYS90       0.2287
    109  O         19.0560  -13.2320  -10.5990 O.2    90  LYS90      -0.2864
    110  CB        17.3460  -15.3500  -12.0580 C.3    90  LYS90       0.0298
    111  CG        17.1290  -16.3650  -13.1080 C.3    90  LYS90       0.0038
    112  CD        16.5040  -17.5920  -12.4730 C.3    90  LYS90       0.0206
    113  CE        16.5650  -18.7490  -13.4490 C.3    90  LYS90       0.1093
    114  NZ        16.4560  -18.2370  -14.8310 N.3    90  LYS90      -0.1314
    115  N         15.4640  -12.2380   -7.9760 N.3    92  TRP92      -0.1241
    116  CA        14.1910  -12.4850   -7.3120 C.3    92  TRP92       0.1605
    117  C         14.0980  -11.7310   -5.9800 C.2    92  TRP92       0.2264
    118  O         15.1330  -11.4280   -5.3600 O.2    92  TRP92      -0.2867
    119  CB        13.9360  -14.0000   -7.1820 C.3    92  TRP92       0.0550
    120  CG        14.8180  -14.8180   -6.1790 C.ar   92  TRP92       0.0003
    121  CD1       14.6510  -14.8940   -4.8300 C.ar   92  TRP92       0.0946
    122  CD2       15.9140  -15.7030   -6.4940 C.ar   92  TRP92       0.0152
    123  NE1       15.5580  -15.7630   -4.2820 N.ar   92  TRP92      -0.2442
    124  CE2       16.3550  -16.2710   -5.2700 C.ar   92  TRP92       0.0810
    125  CE3       16.5680  -16.0650   -7.6930 C.ar   92  TRP92       0.0012
    126  CZ2       17.4210  -17.1750   -5.1920 C.ar   92  TRP92       0.0191
    127  CZ3       17.6280  -16.9680   -7.6280 C.ar   92  TRP92       0.0001
    128  CH2       18.0510  -17.5150   -6.3780 C.ar   92  TRP92       0.0015
@<TRIPOS>BOND
     1    80    81    1
     2    80    79    1
     3    78    79    1
     4    78    77    1
     5    74    73    1
     6    74    77    1
     7    74    75    1
     8    88    86    1
     9    89    87    1
    10    82    75   am
    11    82    83    1
    12    87    86    1
    13    75    76    2
    14    86    83    1
    15    83    84    1
    16    40    39    2
    17    56    54   am
    18    46    45    1
    19    47    45    1
    20    84    85    2
    21    84    90   am
    22    55    54    2
    23    45    44    2
    24    54    53    1
    25    41    42    1
    26    41    38    1
    27    39    38    1
    28    39    48   am
    29    44    43    1
    30   101    99   ar
    31    42    43    1
    32    90    91    1
    33    49    50    1
    34    49    48    1
    35    49    52    1
    36    38    37    1
    37    50    51    2
    38   100    99   ar
    39    99    98    1
    40    53    52    1
    41    91    92    1
    42    37    35   am
    43    94    92   am
    44    94    95    1
    45    98    95    1
    46    36    35    2
    47    92    93    2
    48    35    34    1
    49    95    96    1
    50    62    61    1
    51    34    33    1
    52    96   102   am
    53    96    97    2
    54    72    71    1
    55   102   103    1
    56    32    31    1
    57    63    61    1
    58    61    58    1
    59    33    23   am
    60   105   104    2
    61    31    30   ar
    62    31    29   ar
    63    30    28   ar
    64   114   113    1
    65    71    70    1
    66    29    27   ar
    67   103   104    1
    68    58    57    1
    69    58    59    1
    70   104   106   am
    71    23    24    2
    72    23    22    1
    73    28    26   ar
    74    27    26   ar
    75    70    69    1
    76    26    25    1
    77    22    25    1
    78    22    21    1
    79   113   112    1
    80    59    60    2
    81   111   112    1
    82   111   110    1
    83    20    19    2
    84   106   107    1
    85    21    19   am
    86   107   110    1
    87   107   108    1
    88    19    18    1
    89    69    68    1
    90     4     3    2
    91    18    17    1
    92   108   109    2
    93     3     2    1
    94    68    65    1
    95    64    65    1
    96    65    66    1
    97     7     5    1
    98     5     2    1
    99     5     6    1
   100    66    67    2
   101     2     1    1
   102    12    11    2
   103    16    14    1
   104     6     8    1
   105   115   116    1
   106    11    10    1
   107   125   127   ar
   108   125   122   ar
   109    14    13    1
   110   127   128   ar
   111   116   119    1
   112   116   117    1
   113   119   120    1
   114    10    13    1
   115    10     9    1
   116    13    15    1
   117   122   120   ar
   118   122   124   ar
   119   128   126   ar
   120   120   121   ar
   121   117   118    2
   122   124   126   ar
   123   124   123   ar
   124   121   123   ar
