@<TRIPOS>MOLECULE
tmp/3lf2C00.pdb
 124 117 0 0 0
SMALL
GASTEIGER

@<TRIPOS>ATOM
      1  N        -30.2680   78.9230  -85.6480 N.3    11  GLY11      -0.1225
      2  CA       -28.8710   78.5600  -85.4820 C.3    11  GLY11       0.1811
      3  C        -28.3020   77.8700  -86.7130 C.2    11  GLY11       0.2280
      4  O        -27.4890   76.9530  -86.6100 O.2    11  GLY11      -0.2866
      5  N        -26.3420   78.9040  -89.3360 N.3    13  SER13      -0.1202
      6  CA       -25.2240   79.4750  -90.1030 C.3    13  SER13       0.2020
      7  C        -23.9180   78.6690  -90.0290 C.2    13  SER13       0.2619
      8  O        -22.9640   78.9730  -90.7430 O.2    13  SER13      -0.2717
      9  CB       -24.9630   80.9340  -89.6990 C.3    13  SER13       0.2103
     10  OG       -24.2370   81.0200  -88.4850 O.3    13  SER13      -0.2182
     11  N        -23.8660   77.6620  -89.1590 N.am   14  SER14      -0.1937
     12  CA       -22.7060   76.7740  -89.1130 C.3    14  SER14       0.2055
     13  C        -23.0170   75.4380  -88.4380 C.2    14  SER14       0.2643
     14  O        -24.1220   75.2210  -87.9390 O.2    14  SER14      -0.2714
     15  CB       -21.5310   77.4420  -88.4040 C.3    14  SER14       0.2130
     16  OG       -21.6610   77.3050  -87.0020 O.3    14  SER14      -0.2179
     17  N        -22.0240   74.5520  -88.4370 N.am   15  GLY15      -0.1954
     18  CA       -22.1380   73.2370  -87.8320 C.3    15  GLY15       0.1869
     19  C        -23.3470   72.4160  -88.2590 C.2    15  GLY15       0.2309
     20  O        -23.6720   72.3170  -89.4370 O.2    15  GLY15      -0.2863
     21  N        -31.7620   81.5680  -89.1340 N.3    34  CYS34      -0.1221
     22  CA       -31.2980   82.7430  -88.4200 C.3    34  CYS34       0.1808
     23  C        -30.0000   82.4640  -87.6600 C.2    34  CYS34       0.2601
     24  O        -29.4720   81.3570  -87.6920 O.2    34  CYS34      -0.2717
     25  CB       -32.3910   83.2810  -87.4800 C.3    34  CYS34       0.0970
     26  SG       -32.7870   82.2640  -86.0300 S.3    34  CYS34      -0.0800
     27  N        -29.4980   83.4890  -86.9840 N.am   35  ALA35      -0.1965
     28  CA       -28.2650   83.4190  -86.2140 C.3    35  ALA35       0.1728
     29  C        -27.9550   84.8560  -85.8250 C.2    35  ALA35       0.2616
     30  O        -28.6130   85.7880  -86.3110 O.2    35  ALA35      -0.2715
     31  CB       -27.1270   82.8130  -87.0320 C.3    35  ALA35       0.0334
     32  N        -26.9630   85.0490  -84.9660 N.am   36  ARG36      -0.1963
     33  CA       -26.6480   86.3880  -84.4830 C.3    36  ARG36       0.1729
     34  C        -25.6700   87.1260  -85.4070 C.2    36  ARG36       0.2616
     35  O        -25.9130   88.2750  -85.7870 O.2    36  ARG36      -0.2715
     36  CB       -26.1090   86.3300  -83.0590 C.3    36  ARG36       0.0348
     37  CG       -27.1580   85.9880  -81.9930 C.3    36  ARG36       0.0492
     38  CD       -26.4630   85.6660  -80.6980 C.3    36  ARG36       0.2205
     39  NE       -25.4260   84.6640  -80.9400 N.pl3  36  ARG36      -0.0865
     40  CZ       -24.6030   84.1760  -80.0160 C.cat  36  ARG36       0.5346
     41  NH1      -24.6860   84.5930  -78.7580 N.pl3  36  ARG36       0.1354
     42  NH2      -23.6920   83.2710  -80.3580 N.pl3  36  ARG36       0.1354
     43  N        -24.5780   86.4590  -85.7680 N.am   37  ASP37      -0.1971
     44  CA       -23.5450   87.0550  -86.5990 C.3    37  ASP37       0.1709
     45  C        -24.0350   87.2480  -88.0380 C.2    37  ASP37       0.2293
     46  O        -24.0880   86.2950  -88.8210 O.2    37  ASP37      -0.2864
     47  CB       -22.2880   86.1840  -86.5730 C.3    37  ASP37       0.1436
     48  CG       -21.1120   86.8250  -87.2990 C.2    37  ASP37       0.3671
     49  OD1      -21.2670   87.9340  -87.8500 O.co2  37  ASP37      -0.2456
     50  OD2      -20.0230   86.2140  -87.3190 O.co2  37  ASP37      -0.2456
     51  N        -21.4790   86.2000  -90.9220 N.3    40  ARG40      -0.1245
     52  CA       -21.4860   84.7690  -91.1870 C.3    40  ARG40       0.1563
     53  C        -22.8290   84.2860  -91.7260 C.2    40  ARG40       0.2260
     54  O        -22.8700   83.4520  -92.6240 O.2    40  ARG40      -0.2867
     55  CB       -21.0660   83.9810  -89.9460 C.3    40  ARG40       0.0307
     56  CG       -19.5860   84.1290  -89.6200 C.3    40  ARG40       0.0489
     57  CD       -19.1880   83.3950  -88.3380 C.3    40  ARG40       0.2205
     58  NE       -17.7700   83.5830  -88.0280 N.pl3  40  ARG40      -0.0865
     59  CZ       -17.1650   83.1010  -86.9460 C.cat  40  ARG40       0.5346
     60  NH1      -17.8520   82.3970  -86.0540 N.pl3  40  ARG40       0.1354
     61  NH2      -15.8710   83.3240  -86.7540 N.pl3  40  ARG40       0.1354
     62  N        -31.0810   86.9890  -86.0740 N.3    62  CYS62      -0.1221
     63  CA       -32.0270   86.9240  -84.9630 C.3    62  CYS62       0.1808
     64  C        -31.3990   86.2650  -83.7370 C.2    62  CYS62       0.2601
     65  O        -30.8410   85.1710  -83.8350 O.2    62  CYS62      -0.2717
     66  CB       -33.3050   86.1820  -85.3800 C.3    62  CYS62       0.0970
     67  SG       -34.5600   86.0630  -84.0650 S.3    62  CYS62      -0.0800
     68  N        -31.4680   86.9350  -82.5900 N.am   63  ASP63      -0.1959
     69  CA       -31.1110   86.2830  -81.3300 C.3    63  ASP63       0.1840
     70  C        -32.3340   85.5770  -80.7600 C.2    63  ASP63       0.2622
     71  O        -33.3470   86.2100  -80.4300 O.2    63  ASP63      -0.2715
     72  CB       -30.5530   87.2650  -80.2950 C.3    63  ASP63       0.1450
     73  CG       -29.8260   86.5570  -79.1470 C.2    63  ASP63       0.3671
     74  OD1      -30.2550   85.4580  -78.7280 O.co2  63  ASP63      -0.2456
     75  OD2      -28.8100   87.0990  -78.6720 O.co2  63  ASP63      -0.2456
     76  N        -32.2290   84.2620  -80.6280 N.am   64  VAL64      -0.1963
     77  CA       -33.3540   83.4680  -80.1600 C.3    64  VAL64       0.1727
     78  C        -33.6410   83.7180  -78.6770 C.2    64  VAL64       0.2616
     79  O        -34.6770   83.3050  -78.1480 O.2    64  VAL64      -0.2715
     80  CB       -33.1340   81.9790  -80.4770 C.3    64  VAL64       0.0290
     81  CG1      -32.8840   81.8130  -81.9900 C.3    64  VAL64       0.0023
     82  CG2      -31.9550   81.4320  -79.6950 C.3    64  VAL64       0.0023
     83  N        -32.7340   84.4140  -78.0050 N.am   65  LEU65      -0.1977
     84  CA       -32.9640   84.7590  -76.6030 C.3    65  LEU65       0.1596
     85  C        -33.8530   86.0010  -76.4840 C.2    65  LEU65       0.2287
     86  O        -34.3430   86.3400  -75.4130 O.2    65  LEU65      -0.2864
     87  CB       -31.6360   84.9390  -75.8670 C.3    65  LEU65       0.0297
     88  CG       -30.8770   83.6170  -75.7170 C.3    65  LEU65       0.0022
     89  CD1      -29.5210   83.7820  -75.0490 C.3    65  LEU65       0.0001
     90  CD2      -31.7280   82.6330  -74.9390 C.3    65  LEU65       0.0001
     91  N        -31.6210   74.7090  -83.0770 N.3    90  ASN90      -0.1225
     92  CA       -30.2450   74.2580  -82.9660 C.3    90  ASN90       0.1785
     93  C        -29.3790   75.1970  -82.1200 C.2    90  ASN90       0.2597
     94  O        -28.4370   74.7510  -81.4710 O.2    90  ASN90      -0.2718
     95  CB       -29.6480   74.0460  -84.3690 C.3    90  ASN90       0.1169
     96  CG       -28.2140   73.5530  -84.3300 C.2    90  ASN90       0.2627
     97  OD1      -27.9010   72.5750  -83.6530 O.2    90  ASN90      -0.2716
     98  ND2      -27.3280   74.2380  -85.0520 N.am   90  ASN90      -0.0877
     99  N        -29.7210   76.4870  -82.1190 N.am   91  ALA91      -0.1966
    100  CA       -28.9570   77.5240  -81.4040 C.3    91  ALA91       0.1728
    101  C        -28.5070   77.1270  -79.9900 C.2    91  ALA91       0.2617
    102  O        -29.2220   76.4340  -79.2710 O.2    91  ALA91      -0.2715
    103  CB       -29.7450   78.8430  -81.3630 C.3    91  ALA91       0.0334
    104  N        -27.3180   77.5830  -79.6030 N.am   92  GLY92      -0.1940
    105  CA       -26.7540   77.2740  -78.3020 C.3    92  GLY92       0.2014
    106  C        -25.4600   76.4850  -78.3940 C.2    92  GLY92       0.2638
    107  O        -25.2610   75.6970  -79.3250 O.2    92  GLY92      -0.2714
    108  N        -24.5820   76.6950  -77.4150 N.am   93  GLN93      -0.1977
    109  CA       -23.2950   76.0090  -77.3620 C.3    93  GLN93       0.1601
    110  C        -23.1770   75.1330  -76.1160 C.2    93  GLN93       0.2287
    111  O        -24.1380   74.9700  -75.3640 O.2    93  GLN93      -0.2864
    112  CB       -22.1500   77.0250  -77.3810 C.3    93  GLN93       0.0394
    113  CG       -22.3060   78.1160  -78.4350 C.3    93  GLN93       0.0908
    114  CD       -21.0600   78.9800  -78.5920 C.2    93  GLN93       0.2608
    115  OE1      -20.0930   78.8440  -77.8400 O.2    93  GLN93      -0.2717
    116  NE2      -21.0810   79.8740  -79.5790 N.am   93  GLN93      -0.0878
    117  N        -30.0990   79.9730  -72.1000 N.3   113  LEU113     -0.1245
    118  CA       -29.7380   79.6780  -73.4810 C.3   113  LEU113      0.1561
    119  C        -30.3990   78.3810  -73.9890 C.2   113  LEU113      0.2260
    120  O        -30.9740   78.3520  -75.0850 O.2   113  LEU113     -0.2867
    121  CB       -28.2140   79.6150  -73.6220 C.3   113  LEU113      0.0270
    122  CG       -27.6500   79.4170  -75.0310 C.3   113  LEU113      0.0019
    123  CD1      -28.1060   80.5210  -75.9790 C.3   113  LEU113      0.0001
    124  CD2      -26.1330   79.3470  -74.9840 C.3   113  LEU113      0.0001
@<TRIPOS>BOND
     1    54    53    2
     2    53    52    1
     3    52    51    1
     4    52    55    1
     5     8     7    2
     6     6     7    1
     7     6     9    1
     8     6     5    1
     9     7    11   am
    10    55    56    1
    11     9    10    1
    12    56    57    1
    13    20    19    2
    14    11    12    1
    15    21    22    1
    16    12    13    1
    17    12    15    1
    18    46    45    2
    19    13    17   am
    20    13    14    2
    21    17    18    1
    22    22    23    1
    23    22    25    1
    24    15    16    1
    25    57    58    1
    26    19    18    1
    27    45    44    1
    28    58    59    2
    29    49    48   ar
    30    24    23    2
    31    23    27   am
    32    25    26    1
    33    50    48   ar
    34    48    47    1
    35    31    28    1
    36    27    28    1
    37    59    61    1
    38    59    60    1
    39     3     4    2
    40     3     2    1
    41    44    47    1
    42    44    43    1
    43    30    29    2
    44    28    29    1
    45    62    63    1
    46    29    32   am
    47    35    34    2
    48    43    34   am
    49     1     2    1
    50    34    33    1
    51    66    63    1
    52    66    67    1
    53    98    96   am
    54    32    33    1
    55    63    64    1
    56    33    36    1
    57    95    96    1
    58    95    92    1
    59    96    97    2
    60    65    64    2
    61    64    68   am
    62    91    92    1
    63    36    37    1
    64    92    93    1
    65    68    69    1
    66    93    99   am
    67    93    94    2
    68    99   100    1
    69    37    38    1
    70    81    80    1
    71   100   103    1
    72   100   101    1
    73    69    70    1
    74    69    72    1
    75    39    38    1
    76    39    40    2
    77    70    76   am
    78    70    71    2
    79    76    77    1
    80    80    77    1
    81    80    82    1
    82    42    40    1
    83    72    73    1
    84    77    78    1
    85    40    41    1
    86   101   104   am
    87   101   102    2
    88   104   105    1
    89   116   114   am
    90   107   106    2
    91    73    74   ar
    92    73    75   ar
    93    78    79    2
    94    78    83   am
    95   114   113    1
    96   114   115    2
    97   113   112    1
    98   106   105    1
    99   106   108   am
   100    83    84    1
   101   108   109    1
   102   112   109    1
   103   109   110    1
   104    84    85    1
   105    84    87    1
   106    85    86    2
   107   110   111    2
   108   123   122    1
   109    87    88    1
   110    88    89    1
   111    88    90    1
   112   120   119    2
   113   122   124    1
   114   122   121    1
   115   119   118    1
   116   121   118    1
   117   118   117    1
