@<TRIPOS>MOLECULE
tmp/3lf5A00.pdb
 164 157 0 0 0
SMALL
GASTEIGER

@<TRIPOS>ATOM
      1  N         -1.9430    0.5100   14.1320 N.3    23  ILE23      -0.1245
      2  CA        -0.6230    0.4230   14.7450 C.3    23  ILE23       0.1561
      3  C         -0.6500   -0.6820   15.7890 C.2    23  ILE23       0.2260
      4  O         -1.6350   -0.8260   16.5260 O.2    23  ILE23      -0.2867
      5  CB        -0.1970    1.7620   15.4070 C.3    23  ILE23       0.0252
      6  CG1       -0.1730    2.8950   14.3940 C.3    23  ILE23       0.0019
      7  CG2        1.1250    1.6730   16.1210 C.3    23  ILE23       0.0019
      8  CD1        0.0860    4.3030   15.0020 C.3    23  ILE23       0.0001
      9  N          1.0560   -1.9870   19.2260 N.3    25  ILE25      -0.1245
     10  CA         1.8310   -1.6430   20.4000 C.3    25  ILE25       0.1561
     11  C          1.8370   -2.8570   21.3200 C.2    25  ILE25       0.2260
     12  O          0.7980   -3.3130   21.7780 O.2    25  ILE25      -0.2867
     13  CB         1.2760   -0.4260   21.1620 C.3    25  ILE25       0.0252
     14  CG1        1.1210    0.7990   20.2470 C.3    25  ILE25       0.0019
     15  CG2        2.1800   -0.1110   22.3640 C.3    25  ILE25       0.0019
     16  CD1        2.4000    1.4470   19.8090 C.3    25  ILE25       0.0001
     17  N         -6.0360    3.6020   14.9360 N.3    32  VAL32      -0.1245
     18  CA        -5.8180    4.9520   15.4520 C.3    32  VAL32       0.1561
     19  C         -6.3430    6.0470   14.5380 C.2    32  VAL32       0.2260
     20  O         -6.1810    7.2110   14.8440 O.2    32  VAL32      -0.2867
     21  CB        -4.3370    5.2040   15.8270 C.3    32  VAL32       0.0252
     22  CG1       -3.8900    4.2690   16.9590 C.3    32  VAL32       0.0019
     23  CG2       -3.4370    5.1530   14.5850 C.3    32  VAL32       0.0019
     24  N         -8.1830    8.5910   16.4440 N.3    35  TYR35      -0.1241
     25  CA        -7.3330    9.2710   17.4200 C.3    35  TYR35       0.1605
     26  C         -6.4200   10.3080   16.7540 C.2    35  TYR35       0.2264
     27  O         -5.8750   11.1800   17.4420 O.2    35  TYR35      -0.2867
     28  CB        -6.4660    8.2390   18.1740 C.3    35  TYR35       0.0534
     29  CG        -5.6150    8.8340   19.2960 C.ar   35  TYR35      -0.0201
     30  CD1       -6.2080    9.5350   20.3380 C.ar   35  TYR35      -0.0009
     31  CD2       -4.2370    8.7340   19.2770 C.ar   35  TYR35      -0.0009
     32  CE1       -5.4280   10.1180   21.3300 C.ar   35  TYR35       0.0417
     33  CE2       -3.4920    9.2940   20.2470 C.ar   35  TYR35       0.0417
     34  CZ        -4.0700    9.9970   21.2760 C.ar   35  TYR35       0.1957
     35  OH        -3.2870   10.5910   22.2470 O.3    35  TYR35      -0.2866
     36  N         -4.1130   13.3250   18.9070 N.3    39  HIS39      -0.1227
     37  CA        -2.7790   12.9950   19.4130 C.3    39  HIS39       0.1737
     38  C         -2.0010   14.2530   19.7570 C.2    39  HIS39       0.2438
     39  O         -1.7690   15.0820   18.8800 O.2    39  HIS39      -0.2733
     40  CB        -2.0300   12.2010   18.3580 C.3    39  HIS39       0.0758
     41  CG        -0.6510   11.7960   18.7720 C.ar   39  HIS39       0.0818
     42  ND1        0.4590   12.0140   17.9930 N.ar   39  HIS39      -0.2268
     43  CD2       -0.2040   11.2510   19.9300 C.ar   39  HIS39       0.1154
     44  CE1        1.5280   11.5700   18.6360 C.ar   39  HIS39       0.1986
     45  NE2        1.1510   11.0900   19.8130 N.ar   39  HIS39      -0.2212
     46  N         -1.5560   14.3800   21.0350 N.am   40  PRO40      -0.2718
     47  CA        -0.8300   15.6020   21.3540 C.3    40  PRO40       0.1535
     48  C          0.4300   15.8450   20.5190 C.2    40  PRO40       0.2599
     49  O          0.7730   16.9750   20.2740 O.2    40  PRO40      -0.2715
     50  CB        -0.5450   15.4540   22.8460 C.3    40  PRO40       0.0310
     51  CG        -1.6650   14.5910   23.3700 C.3    40  PRO40       0.0237
     52  CD        -1.8990   13.6050   22.2480 C.3    40  PRO40       0.0939
     53  N          1.1000   14.7820   20.0810 N.am   41  GLY41      -0.1955
     54  CA         2.2990   14.9240   19.2750 C.3    41  GLY41       0.1869
     55  C          2.0400   15.2130   17.8090 C.2    41  GLY41       0.2309
     56  O          2.9790   15.4000   17.0460 O.2    41  GLY41      -0.2863
     57  N          3.6420   12.5840   13.4060 N.3    45  GLU45      -0.1231
     58  CA         4.3710   11.7050   14.3060 C.3    45  GLU45       0.1699
     59  C          3.6690   10.3520   14.4220 C.2    45  GLU45       0.2592
     60  O          4.3200    9.3020   14.3390 O.2    45  GLU45      -0.2718
     61  CB         4.5470   12.3300   15.6930 C.3    45  GLU45       0.0402
     62  CG         5.5710   13.4490   15.7410 C.3    45  GLU45       0.1161
     63  CD         6.9950   12.9750   15.7920 C.2    45  GLU45       0.3649
     64  OE1        7.2540   11.7840   16.0170 O.co2  45  GLU45      -0.2457
     65  OE2        7.8880   13.8200   15.6240 O.co2  45  GLU45      -0.2457
     66  N          2.3600   10.3600   14.6250 N.am   46  LEU46      -0.1980
     67  CA         1.6420    9.1230   14.7730 C.3    46  LEU46       0.1596
     68  C          1.7650    8.3020   13.4610 C.2    46  LEU46       0.2287
     69  O          1.9200    7.0810   13.4700 O.2    46  LEU46      -0.2864
     70  CB         0.1910    9.4200   15.1500 C.3    46  LEU46       0.0297
     71  CG        -0.6600    8.2460   15.5680 C.3    46  LEU46       0.0022
     72  CD1       -0.0420    7.4550   16.7050 C.3    46  LEU46       0.0001
     73  CD2       -2.0210    8.7860   15.9460 C.3    46  LEU46       0.0001
     74  N          4.2300    7.9870   11.5710 N.3    48  ARG48      -0.1231
     75  CA         5.5040    7.3030   11.4640 C.3    48  ARG48       0.1694
     76  C          5.3450    5.8170   11.7120 C.2    48  ARG48       0.2591
     77  O          6.1540    5.0270   11.2180 O.2    48  ARG48      -0.2718
     78  CB         6.5080    7.8730   12.4550 C.3    48  ARG48       0.0321
     79  CG         6.9210    9.3010   12.1270 C.3    48  ARG48       0.0489
     80  CD         7.7530    9.8550   13.2310 C.3    48  ARG48       0.2205
     81  NE         9.0560    9.2130   13.2760 N.pl3  48  ARG48      -0.0865
     82  CZ         9.9390    9.3970   14.2450 C.cat  48  ARG48       0.5346
     83  NH1        9.6740   10.2180   15.2510 N.pl3  48  ARG48       0.1354
     84  NH2       11.0860    8.7500   14.2020 N.pl3  48  ARG48       0.1354
     85  N          4.3210    5.4270   12.4730 N.am   49  ALA49      -0.1980
     86  CA         4.0880    4.0290   12.8350 C.3    49  ALA49       0.1597
     87  C          2.9580    3.4020   12.0330 C.2    49  ALA49       0.2287
     88  O          2.5990    2.2720   12.2880 O.2    49  ALA49      -0.2864
     89  CB         3.8190    3.8820   14.3460 C.3    49  ALA49       0.0319
     90  N          4.5590   -0.0760   16.2680 N.3    54  GLY54      -0.1225
     91  CA         4.9560    1.2110   16.8040 C.3    54  GLY54       0.1811
     92  C          5.5800    1.1890   18.1740 C.2    54  GLY54       0.2280
     93  O          5.8270    2.2340   18.7330 O.2    54  GLY54      -0.2866
     94  N          8.9800    3.2190   18.6630 N.3    57  LEU57      -0.1231
     95  CA         8.7450    4.6490   18.5760 C.3    57  LEU57       0.1693
     96  C          8.0050    5.1410   19.8290 C.2    57  LEU57       0.2592
     97  O          8.3480    6.1790   20.3930 O.2    57  LEU57      -0.2718
     98  CB         7.9370    4.9860   17.3250 C.3    57  LEU57       0.0284
     99  CG         8.6950    4.9110   15.9960 C.3    57  LEU57       0.0019
    100  CD1        7.7250    4.9550   14.8010 C.3    57  LEU57       0.0001
    101  CD2        9.7220    6.0480   15.9030 C.3    57  LEU57       0.0001
    102  N          6.9590    4.4170   20.2120 N.am   58  PHE58      -0.1976
    103  CA         6.1410    4.7820   21.3760 C.3    58  PHE58       0.1639
    104  C          7.0250    4.8560   22.6340 C.2    58  PHE58       0.2290
    105  O          6.9250    5.7920   23.4320 O.2    58  PHE58      -0.2864
    106  CB         5.0330    3.7210   21.5370 C.3    58  PHE58       0.0560
    107  CG         4.0620    3.9700   22.6670 C.ar   58  PHE58      -0.0200
    108  CD1        2.8650    4.6190   22.4340 C.ar   58  PHE58      -0.0042
    109  CD2        4.3530    3.5790   23.9670 C.ar   58  PHE58      -0.0042
    110  CE1        1.9700    4.8490   23.4870 C.ar   58  PHE58      -0.0003
    111  CE2        3.4870    3.8180   25.0050 C.ar   58  PHE58      -0.0003
    112  CZ         2.2970    4.4660   24.7510 C.ar   58  PHE58      -0.0000
    113  N          9.3770    7.9510   23.0640 N.3    61  VAL61      -0.1231
    114  CA         8.8000    9.2590   23.3510 C.3    61  VAL61       0.1692
    115  C          7.9730    9.2950   24.6240 C.2    61  VAL61       0.2592
    116  O          7.9680   10.3140   25.3110 O.2    61  VAL61      -0.2718
    117  CB         7.9860    9.7870   22.1480 C.3    61  VAL61       0.0266
    118  CG1        6.8680    8.8600   21.7160 C.3    61  VAL61       0.0020
    119  CG2        7.5120   11.2040   22.4270 C.3    61  VAL61       0.0020
    120  N          7.2420    8.2310   24.9470 N.am   62  HIS62      -0.1976
    121  CA         6.3760    8.2390   26.1250 C.3    62  HIS62       0.1656
    122  C          5.9930    6.8370   26.5510 C.2    62  HIS62       0.2291
    123  O          4.8610    6.3960   26.3980 O.2    62  HIS62      -0.2864
    124  CB         5.1190    9.0990   25.9280 C.3    62  HIS62       0.0771
    125  CG         4.4660    8.9710   24.5860 C.ar   62  HIS62       0.0820
    126  ND1        4.0810    7.7660   24.0430 N.ar   62  HIS62      -0.2267
    127  CD2        4.0280    9.9150   23.7330 C.ar   62  HIS62       0.1154
    128  CE1        3.4820    7.9830   22.8870 C.ar   62  HIS62       0.1986
    129  NE2        3.4280    9.2870   22.6780 N.ar   62  HIS62      -0.2212
    130  N          2.6470    6.2140   28.7200 N.3    65  VAL65      -0.1245
    131  CA         1.3000    6.6290   28.3240 C.3    65  VAL65       0.1561
    132  C          0.3620    5.4200   28.3690 C.2    65  VAL65       0.2260
    133  O          0.7360    4.3390   27.9090 O.2    65  VAL65      -0.2867
    134  CB         1.3140    7.3150   26.9340 C.3    65  VAL65       0.0252
    135  CG1       -0.0300    7.2300   26.1960 C.3    65  VAL65       0.0019
    136  CG2        1.7030    8.7600   27.1040 C.3    65  VAL65       0.0019
    137  N         -1.9280    3.7000   26.8590 N.3    67  TYR67      -0.1241
    138  CA        -2.5770    3.4690   25.5660 C.3    67  TYR67       0.1605
    139  C         -3.6860    2.4210   25.6680 C.2    67  TYR67       0.2264
    140  O         -4.6640    2.5290   24.9410 O.2    67  TYR67      -0.2867
    141  CB        -1.5760    3.0760   24.4690 C.3    67  TYR67       0.0534
    142  CG        -0.9260    1.7490   24.7230 C.ar   67  TYR67      -0.0201
    143  CD1       -1.5050    0.5660   24.2690 C.ar   67  TYR67      -0.0009
    144  CD2        0.2040    1.6630   25.5120 C.ar   67  TYR67      -0.0009
    145  CE1       -0.9400   -0.6520   24.5530 C.ar   67  TYR67       0.0417
    146  CE2        0.7810    0.4520   25.7990 C.ar   67  TYR67       0.0417
    147  CZ         0.2120   -0.7020   25.3230 C.ar   67  TYR67       0.1957
    148  OH         0.8010   -1.9090   25.6240 O.3    67  TYR67      -0.2866
    149  N         -6.6760    4.3040   26.9420 N.3    70  MET70      -0.1230
    150  CA        -7.0590    5.3940   26.0490 C.3    70  MET70       0.1702
    151  C         -7.6760    4.8670   24.7350 C.2    70  MET70       0.2592
    152  O         -8.6390    5.4440   24.2200 O.2    70  MET70      -0.2718
    153  CB        -5.8320    6.2240   25.7050 C.3    70  MET70       0.0401
    154  CG        -5.2040    7.0490   26.8510 C.3    70  MET70       0.0596
    155  SD        -3.7970    7.9850   26.2340 S.3    70  MET70      -0.1393
    156  CE        -4.7450    8.6860   24.8780 C.3    70  MET70       0.0692
    157  N         -7.1050    3.7840   24.1980 N.am   71  LEU71      -0.1980
    158  CA        -7.4910    3.3000   22.8810 C.3    71  LEU71       0.1596
    159  C         -8.3870    2.0710   22.9370 C.2    71  LEU71       0.2287
    160  O         -8.6150    1.4330   21.9120 O.2    71  LEU71      -0.2864
    161  CB        -6.2410    3.0070   22.0390 C.3    71  LEU71       0.0297
    162  CG        -5.2300    4.1490   21.8190 C.3    71  LEU71       0.0022
    163  CD1       -4.0840    3.6050   21.0110 C.3    71  LEU71       0.0001
    164  CD2       -5.9420    5.3600   21.1760 C.3    71  LEU71       0.0001
@<TRIPOS>BOND
     1    77    76    2
     2    75    74    1
     3    75    76    1
     4    75    78    1
     5    76    85   am
     6    87    88    2
     7    87    86    1
     8    79    78    1
     9    79    80    1
    10    85    86    1
    11    86    89    1
    12    80    81    1
    13    81    82    2
    14    57    58    1
    15    68    69    2
    16    68    67    1
    17     1     2    1
    18    84    82    1
    19    82    83    1
    20    58    59    1
    21    58    61    1
    22    60    59    2
    23     6     8    1
    24     6     5    1
    25    59    66   am
    26    19    20    2
    27    19    18    1
    28    23    21    1
    29    66    67    1
    30     2     5    1
    31     2     3    1
    32    67    70    1
    33   100    99    1
    34    17    18    1
    35    70    71    1
    36     5     7    1
    37    18    21    1
    38    71    73    1
    39    71    72    1
    40    65    63   ar
    41    61    62    1
    42    62    63    1
    43     3     4    2
    44    63    64   ar
    45    21    22    1
    46   101    99    1
    47    99    98    1
    48    90    91    1
    49    24    25    1
    50    26    25    1
    51    26    27    2
    52    91    92    1
    53    56    55    2
    54    98    95    1
    55    25    28    1
    56    55    54    1
    57    42    44   ar
    58    42    41   ar
    59    28    29    1
    60    92    93    2
    61    40    41    1
    62    40    37    1
    63    95    94    1
    64    95    96    1
    65    44    45   ar
    66    41    43   ar
    67    39    38    2
    68    36    37    1
    69     9    10    1
    70    54    53    1
    71    31    29   ar
    72    31    33   ar
    73    29    30   ar
    74    37    38    1
    75    38    46   am
    76    16    14    1
    77    45    43   ar
    78    96   102   am
    79    96    97    2
    80    53    48   am
    81   102   103    1
    82    14    13    1
    83    33    34   ar
    84    49    48    2
    85    30    32   ar
    86    10    13    1
    87    10    11    1
    88    48    47    1
    89   163   162    1
    90    46    47    1
    91    46    52    1
    92    13    15    1
    93   164   162    1
    94    34    32   ar
    95    34    35    1
    96    11    12    2
    97    47    50    1
    98   103   106    1
    99   103   104    1
   100   106   107    1
   101   118   117    1
   102   162   161    1
   103   160   159    2
   104   161   158    1
   105   117   119    1
   106   117   114    1
   107    52    51    1
   108   108   107   ar
   109   108   110   ar
   110   104   105    2
   111   107   109   ar
   112   129   128   ar
   113   129   127   ar
   114    50    51    1
   115   158   159    1
   116   158   157    1
   117   128   126   ar
   118   113   114    1
   119   114   115    1
   120   110   112   ar
   121   127   125   ar
   122   109   111   ar
   123   126   125   ar
   124   157   151   am
   125   152   151    2
   126   143   145   ar
   127   143   142   ar
   128   141   142    1
   129   141   138    1
   130   145   147   ar
   131   125   124    1
   132   115   120   am
   133   115   116    2
   134   142   144   ar
   135   151   150    1
   136   112   111   ar
   137   156   155    1
   138   140   139    2
   139   120   121    1
   140   147   148    1
   141   147   146   ar
   142   144   146   ar
   143   138   139    1
   144   138   137    1
   145   153   150    1
   146   153   154    1
   147   124   121    1
   148   150   149    1
   149   121   122    1
   150   135   134    1
   151   155   154    1
   152   123   122    2
   153   134   136    1
   154   134   131    1
   155   133   132    2
   156   131   132    1
   157   131   130    1
