@<TRIPOS>MOLECULE
tmp/3lfbA00.pdb
 179 168 0 0 0
SMALL
GASTEIGER

@<TRIPOS>ATOM
      1  N         25.7330    3.4430  -17.7480 N.3    31  VAL31      -0.1245
      2  CA        25.6140    3.0050  -19.1350 C.3    31  VAL31       0.1561
      3  C         26.2170    4.0300  -20.1050 C.2    31  VAL31       0.2260
      4  O         25.9820    5.2390  -19.9890 O.2    31  VAL31      -0.2867
      5  CB        24.1260    2.7050  -19.5110 C.3    31  VAL31       0.0252
      6  CG1       24.0350    1.9920  -20.8480 C.3    31  VAL31       0.0019
      7  CG2       23.4600    1.8630  -18.4420 C.3    31  VAL31       0.0019
      8  N         25.2230   -0.6020  -26.2140 N.3    44  ALA44      -0.1245
      9  CA        25.2060   -0.0660  -24.8620 C.3    44  ALA44       0.1562
     10  C         26.1830   -0.8760  -24.0240 C.2    44  ALA44       0.2260
     11  O         26.1220   -2.1060  -24.0040 O.2    44  ALA44      -0.2867
     12  CB        23.8100   -0.1390  -24.2670 C.3    44  ALA44       0.0290
     13  N         27.5660   -1.3580  -20.0850 N.3    46  LYS46      -0.1245
     14  CA        27.2160   -1.0940  -18.6940 C.3    46  LYS46       0.1561
     15  C         28.3470   -1.5260  -17.7790 C.2    46  LYS46       0.2260
     16  O         28.7380   -2.6980  -17.7670 O.2    46  LYS46      -0.2867
     17  CB        25.9060   -1.7890  -18.2990 C.3    46  LYS46       0.0271
     18  CG        25.6330   -1.8030  -16.7950 C.3    46  LYS46       0.0035
     19  CD        24.3550   -2.5560  -16.4270 C.3    46  LYS46       0.0206
     20  CE        23.1190   -1.6520  -16.4650 C.3    46  LYS46       0.1093
     21  NZ        21.8790   -2.3240  -15.9500 N.3    46  LYS46      -0.1314
     22  N         23.3500   -9.4740   -7.0140 N.3    60  ARG60      -0.1245
     23  CA        22.7720   -8.7050   -8.1110 C.3    60  ARG60       0.1563
     24  C         23.5380   -8.9330   -9.4240 C.2    60  ARG60       0.2260
     25  O         22.9320   -9.1740  -10.4690 O.2    60  ARG60      -0.2867
     26  CB        22.7980   -7.2260   -7.7410 C.3    60  ARG60       0.0307
     27  CG        21.5920   -6.4170   -8.1760 C.3    60  ARG60       0.0489
     28  CD        21.6150   -5.0220   -7.5600 C.3    60  ARG60       0.2205
     29  NE        21.0810   -5.0050   -6.1920 N.pl3  60  ARG60      -0.0865
     30  CZ        20.8590   -3.9030   -5.4660 C.cat  60  ARG60       0.5346
     31  NH1       21.1260   -2.6870   -5.9550 N.pl3  60  ARG60       0.1354
     32  NH2       20.3580   -4.0150   -4.2420 N.pl3  60  ARG60       0.1354
     33  N         23.0230  -12.5880  -10.7840 N.3    63  ARG63      -0.1231
     34  CA        21.6680  -12.6700  -11.3100 C.3    63  ARG63       0.1694
     35  C         21.5510  -12.0400  -12.7010 C.2    63  ARG63       0.2591
     36  O         21.1340  -12.7030  -13.6450 O.2    63  ARG63      -0.2718
     37  CB        20.6690  -12.0300  -10.3410 C.3    63  ARG63       0.0321
     38  CG        19.3020  -11.7330  -10.9690 C.3    63  ARG63       0.0489
     39  CD        18.1940  -11.5450   -9.9450 C.3    63  ARG63       0.2205
     40  NE        16.9050  -11.8840  -10.5410 N.pl3  63  ARG63      -0.0865
     41  CZ        15.9070  -11.0250  -10.7550 C.cat  63  ARG63       0.5346
     42  NH1       16.0260   -9.7470  -10.4000 N.pl3  63  ARG63       0.1354
     43  NH2       14.7800  -11.4550  -11.3210 N.pl3  63  ARG63       0.1354
     44  N         21.9300  -10.7690  -12.8340 N.am   64  GLU64      -0.1979
     45  CA        21.7870  -10.0820  -14.1090 C.3    64  GLU64       0.1602
     46  C         22.5410  -10.7990  -15.2310 C.2    64  GLU64       0.2287
     47  O         21.9980  -10.9670  -16.3240 O.2    64  GLU64      -0.2864
     48  CB        22.2000   -8.6120  -14.0130 C.3    64  GLU64       0.0415
     49  CG        21.6680   -7.7730  -15.1740 C.3    64  GLU64       0.1163
     50  CD        21.8530   -6.2790  -14.9800 C.2    64  GLU64       0.3649
     51  OE1       21.0690   -5.5030  -15.5730 O.co2  64  GLU64      -0.2457
     52  OE2       22.7830   -5.8690  -14.2490 O.co2  64  GLU64      -0.2457
     53  N         20.8020  -14.1960  -16.1190 N.3    67  LEU67      -0.1231
     54  CA        19.4990  -14.0020  -16.7380 C.3    67  LEU67       0.1693
     55  C         19.6250  -13.6070  -18.2090 C.2    67  LEU67       0.2591
     56  O         18.9390  -14.1740  -19.0650 O.2    67  LEU67      -0.2718
     57  CB        18.6800  -12.9530  -15.9820 C.3    67  LEU67       0.0284
     58  CG        17.1760  -13.2090  -15.8100 C.3    67  LEU67       0.0019
     59  CD1       16.4800  -11.9520  -15.3230 C.3    67  LEU67       0.0001
     60  CD2       16.4990  -13.7190  -17.0810 C.3    67  LEU67       0.0001
     61  N         20.5030  -12.6510  -18.5010 N.am   68  LEU68      -0.1980
     62  CA        20.6880  -12.1980  -19.8670 C.3    68  LEU68       0.1596
     63  C         21.3620  -13.2850  -20.7080 C.2    68  LEU68       0.2287
     64  O         21.1120  -13.3900  -21.9170 O.2    68  LEU68      -0.2864
     65  CB        21.4700  -10.8740  -19.9240 C.3    68  LEU68       0.0297
     66  CG        20.8910   -9.6180  -19.2430 C.3    68  LEU68       0.0022
     67  CD1       21.8680   -8.4690  -19.2930 C.3    68  LEU68       0.0001
     68  CD2       19.5650   -9.1700  -19.8300 C.3    68  LEU68       0.0001
     69  N         18.6550  -15.2610  -21.9420 N.3    71  MET71      -0.1245
     70  CA        17.6970  -14.5230  -22.7750 C.3    71  MET71       0.1570
     71  C         18.0760  -14.4320  -24.2600 C.2    71  MET71       0.2261
     72  O         18.9250  -13.6360  -24.6460 O.2    71  MET71      -0.2867
     73  CB        17.4470  -13.1230  -22.2110 C.3    71  MET71       0.0387
     74  CG        16.7380  -13.0720  -20.8540 C.3    71  MET71       0.0595
     75  SD        15.0530  -13.7410  -20.7920 S.3    71  MET71      -0.1393
     76  CE        15.3230  -15.4360  -20.3040 C.3    71  MET71       0.0692
     77  N         13.2820   -9.3630  -26.4490 N.3    76  VAL76      -0.1231
     78  CA        13.9500   -9.2220  -25.1540 C.3    76  VAL76       0.1692
     79  C         15.3730   -8.7590  -25.4400 C.2    76  VAL76       0.2591
     80  O         15.9220   -9.1010  -26.4770 O.2    76  VAL76      -0.2718
     81  CB        13.9670  -10.5640  -24.3750 C.3    76  VAL76       0.0266
     82  CG1       14.5710  -10.3850  -22.9890 C.3    76  VAL76       0.0020
     83  CG2       12.5540  -11.1360  -24.2790 C.3    76  VAL76       0.0020
     84  N         15.9470   -7.9670  -24.5430 N.am   77  ILE77      -0.1980
     85  CA        17.3490   -7.5600  -24.6390 C.3    77  ILE77       0.1595
     86  C         18.2330   -8.7900  -24.4560 C.2    77  ILE77       0.2287
     87  O         17.9000   -9.6900  -23.6690 O.2    77  ILE77      -0.2864
     88  CB        17.7020   -6.4710  -23.5750 C.3    77  ILE77       0.0276
     89  CG1       19.0610   -5.8170  -23.8510 C.3    77  ILE77       0.0022
     90  CG2       17.6690   -7.0320  -22.1700 C.3    77  ILE77       0.0022
     91  CD1       18.9990   -4.5820  -24.7610 C.3    77  ILE77       0.0001
     92  N         28.8660   -5.2660  -19.3310 N.3    97  LEU97      -0.1245
     93  CA        27.8830   -5.9420  -20.1520 C.3    97  LEU97       0.1561
     94  C         27.5560   -5.1230  -21.4030 C.2    97  LEU97       0.2260
     95  O         27.3090   -3.9090  -21.3240 O.2    97  LEU97      -0.2867
     96  CB        26.6160   -6.2110  -19.3460 C.3    97  LEU97       0.0270
     97  CG        26.6920   -6.8650  -17.9620 C.3    97  LEU97       0.0019
     98  CD1       25.3410   -6.6920  -17.2690 C.3    97  LEU97       0.0001
     99  CD2       27.0800   -8.3350  -18.0400 C.3    97  LEU97       0.0001
    100  N         25.0740   -4.7870  -24.8640 N.3    99  THR99      -0.1218
    101  CA        23.8470   -5.1090  -25.5800 C.3    99  THR99       0.1862
    102  C         23.7040   -4.1850  -26.7810 C.2    99  THR99       0.2287
    103  O         24.4340   -3.2070  -26.9090 O.2    99  THR99      -0.2866
    104  CB        22.5900   -4.9180  -24.6920 C.3    99  THR99       0.1770
    105  OG1       22.5670   -3.5850  -24.1650 O.3    99  THR99      -0.2211
    106  CG2       22.5530   -5.9150  -23.5500 C.3    99  THR99       0.0375
    107  N          9.4940  -14.1960  -21.6580 N.3   134  ILE134     -0.1245
    108  CA         9.9210  -13.9480  -20.2800 C.3   134  ILE134      0.1561
    109  C          9.1040  -14.7820  -19.2760 C.2   134  ILE134      0.2260
    110  O          9.6730  -15.4040  -18.3680 O.2   134  ILE134     -0.2867
    111  CB         9.8930  -12.4160  -19.9520 C.3   134  ILE134      0.0252
    112  CG1       11.0740  -11.7040  -20.6240 C.3   134  ILE134      0.0019
    113  CG2        9.9860  -12.1520  -18.4620 C.3   134  ILE134      0.0019
    114  CD1       10.7830  -10.2650  -21.0560 C.3   134  ILE134      0.0001
    115  N          9.6480  -16.0300  -15.2130 N.3   139  ILE139     -0.1231
    116  CA        10.1910  -14.7440  -14.7790 C.3   139  ILE139      0.1692
    117  C          9.1310  -13.6780  -14.9320 C.2   139  ILE139      0.2592
    118  O          8.4970  -13.5810  -15.9750 O.2   139  ILE139     -0.2718
    119  CB        11.4540  -14.3460  -15.5990 C.3   139  ILE139      0.0266
    120  CG1       12.5430  -15.4010  -15.4550 C.3   139  ILE139      0.0019
    121  CG2       11.9890  -12.9830  -15.1760 C.3   139  ILE139      0.0020
    122  CD1       13.3810  -15.5340  -16.6830 C.3   139  ILE139      0.0001
    123  N          8.9490  -12.8830  -13.8800 N.am  140  ILE140     -0.1966
    124  CA         8.0760  -11.7110  -13.9020 C.3   140  ILE140      0.1727
    125  C          8.9450  -10.4740  -13.9120 C.2   140  ILE140      0.2616
    126  O          9.8640  -10.3620  -13.1090 O.2   140  ILE140     -0.2715
    127  CB         7.1280  -11.6900  -12.6820 C.3   140  ILE140      0.0290
    128  CG1        6.3820  -13.0270  -12.5610 C.3   140  ILE140      0.0022
    129  CG2        6.1350  -10.5340  -12.7870 C.3   140  ILE140      0.0023
    130  CD1        5.5510  -13.1680  -11.2930 C.3   140  ILE140      0.0001
    131  N          8.6720   -9.5470  -14.8240 N.am  141  HIS141     -0.1973
    132  CA         9.4850   -8.3220  -14.9470 C.3   141  HIS141      0.1656
    133  C          9.3180   -7.3680  -13.7500 C.2   141  HIS141      0.2291
    134  O         10.3100   -6.8660  -13.2000 O.2   141  HIS141     -0.2864
    135  CB         9.1880   -7.6080  -16.2630 C.3   141  HIS141      0.0771
    136  CG        10.0280   -6.3940  -16.4970 C.ar  141  HIS141      0.0820
    137  ND1       10.8370   -6.2510  -17.6020 N.ar  141  HIS141     -0.2267
    138  CD2       10.1950   -5.2720  -15.7620 C.ar  141  HIS141      0.1154
    139  CE1       11.4650   -5.0910  -17.5390 C.ar  141  HIS141      0.1986
    140  NE2       11.0970   -4.4810  -16.4270 N.ar  141  HIS141     -0.2212
    141  N         12.4790   -5.5580  -24.6760 N.3   159  ILE159     -0.1231
    142  CA        12.2370   -5.3750  -23.2640 C.3   159  ILE159      0.1692
    143  C         13.5640   -5.4940  -22.5260 C.2   159  ILE159      0.2592
    144  O         14.3310   -6.4290  -22.7450 O.2   159  ILE159     -0.2718
    145  CB        11.2090   -6.4010  -22.7170 C.3   159  ILE159      0.0266
    146  CG1        9.8550   -6.2140  -23.3870 C.3   159  ILE159      0.0019
    147  CG2       11.0400   -6.2720  -21.2080 C.3   159  ILE159      0.0020
    148  CD1        8.9460   -7.4280  -23.2800 C.3   159  ILE159      0.0001
    149  N         13.8330   -4.5240  -21.6620 N.am  160  LEU160     -0.1966
    150  CA        15.0200   -4.5510  -20.8230 C.3   160  LEU160      0.1728
    151  C         14.6530   -4.1030  -19.4250 C.2   160  LEU160      0.2616
    152  O         13.4800   -3.8580  -19.1270 O.2   160  LEU160     -0.2715
    153  CB        16.1310   -3.6550  -21.4030 C.3   160  LEU160      0.0311
    154  CG        15.8550   -2.1930  -21.8190 C.3   160  LEU160      0.0022
    155  CD1       15.6780   -1.2760  -20.6220 C.3   160  LEU160      0.0001
    156  CD2       16.9750   -1.6690  -22.7090 C.3   160  LEU160      0.0001
    157  N         15.6580   -3.9860  -18.5670 N.am  161  ASP161     -0.1957
    158  CA        15.4380   -3.4530  -17.2310 C.3   161  ASP161      0.1840
    159  C         16.6520   -2.6980  -16.6860 C.2   161  ASP161      0.2622
    160  O         17.5900   -3.3030  -16.1700 O.2   161  ASP161     -0.2715
    161  CB        14.9960   -4.5620  -16.2630 C.3   161  ASP161      0.1450
    162  CG        14.6930   -4.0350  -14.8710 C.2   161  ASP161      0.3671
    163  OD1       14.2260   -4.8240  -14.0210 O.co2 161  ASP161     -0.2456
    164  OD2       14.9240   -2.8320  -14.6290 O.co2 161  ASP161     -0.2456
    165  N         16.6060   -1.3710  -16.8060 N.am  162  PHE162     -0.1960
    166  CA        17.5710   -0.4710  -16.1730 C.3   162  PHE162      0.1771
    167  C         17.2670   -0.3630  -14.6740 C.2   162  PHE162      0.2620
    168  O         16.6340    0.6040  -14.2270 O.2   162  PHE162     -0.2715
    169  CB        17.5100    0.9280  -16.8060 C.3   162  PHE162      0.0574
    170  CG        18.0730    1.0030  -18.2010 C.ar  162  PHE162     -0.0200
    171  CD1       19.3480    0.5110  -18.4900 C.ar  162  PHE162     -0.0042
    172  CD2       17.3430    1.6100  -19.2190 C.ar  162  PHE162     -0.0042
    173  CE1       19.8700    0.5860  -19.7940 C.ar  162  PHE162     -0.0003
    174  CE2       17.8570    1.7020  -20.5170 C.ar  162  PHE162     -0.0003
    175  CZ        19.1220    1.1840  -20.8050 C.ar  162  PHE162     -0.0000
    176  N         17.7110   -1.3580  -13.9060 N.am  163  GLY163     -0.1954
    177  CA        17.4480   -1.4100  -12.4650 C.3   163  GLY163      0.1869
    178  C         17.3790   -0.0440  -11.7980 C.2   163  GLY163      0.2309
    179  O         16.7390    0.1090  -10.7480 O.2   163  GLY163     -0.2863
@<TRIPOS>BOND
     1   103   102    2
     2   102   101    1
     3    80    79    2
     4    77    78    1
     5     8     9    1
     6   101   100    1
     7   101   104    1
     8    79    78    1
     9    79    84   am
    10    78    81    1
    11     9    12    1
    12     9    10    1
    13    91    89    1
    14   104   105    1
    15   104   106    1
    16   141   142    1
    17    72    71    2
    18    85    84    1
    19    85    86    1
    20    85    88    1
    21    86    87    2
    22    81    83    1
    23    81    82    1
    24    71    70    1
    25    10    11    2
    26    89    88    1
    27    88    90    1
    28   146   148    1
    29   146   145    1
    30   142   145    1
    31   142   143    1
    32    70    73    1
    33    70    69    1
    34   144   143    2
    35   145   147    1
    36   156   154    1
    37   143   149   am
    38    73    74    1
    39    64    63    2
    40   154   153    1
    41   154   155    1
    42   149   150    1
    43   107   108    1
    44    94    95    2
    45    94    93    1
    46   153   150    1
    47   114   112    1
    48    74    75    1
    49     6     5    1
    50   150   151    1
    51   175   174   ar
    52   175   173   ar
    53    75    76    1
    54    63    62    1
    55   112   111    1
    56   174   172   ar
    57   108   111    1
    58   108   109    1
    59    93    96    1
    60    93    92    1
    61     3     4    2
    62     3     2    1
    63    13    14    1
    64   111   113    1
    65    65    62    1
    66    65    66    1
    67    62    61    1
    68    68    66    1
    69   173   171   ar
    70     5     2    1
    71     5     7    1
    72   151   152    2
    73   151   157   am
    74    96    97    1
    75    67    66    1
    76   109   110    2
    77   172   170   ar
    78     2     1    1
    79    56    55    2
    80    14    17    1
    81    14    15    1
    82   157   158    1
    83    61    55   am
    84   171   170   ar
    85    17    18    1
    86    55    54    1
    87   170   169    1
    88    99    97    1
    89    97    98    1
    90    15    16    2
    91   137   139   ar
    92   137   136   ar
    93   139   140   ar
    94   158   159    1
    95   158   161    1
    96    60    58    1
    97   169   166    1
    98   165   159   am
    99   165   166    1
   100    18    19    1
   101    54    53    1
   102    54    57    1
   103   159   160    2
   104   122   120    1
   105   136   135    1
   106   136   138   ar
   107    20    19    1
   108    20    21    1
   109   140   138   ar
   110    47    46    2
   111   135   132    1
   112   161   162    1
   113   166   167    1
   114    57    58    1
   115   118   117    2
   116    58    59    1
   117   119   120    1
   118   119   121    1
   119   119   116    1
   120    51    50   ar
   121    46    45    1
   122   115   116    1
   123    49    50    1
   124    49    48    1
   125    50    52   ar
   126   132   131    1
   127   132   133    1
   128   117   116    1
   129   117   123   am
   130   162   164   ar
   131   162   163   ar
   132   131   125   am
   133   167   168    2
   134   167   176   am
   135    45    48    1
   136    45    44    1
   137   125   124    1
   138   125   126    2
   139   176   177    1
   140   124   123    1
   141   124   127    1
   142   133   134    2
   143    36    35    2
   144    44    35   am
   145   129   127    1
   146    35    34    1
   147   127   128    1
   148   128   130    1
   149   177   178    1
   150   178   179    2
   151    43    41    1
   152    34    33    1
   153    34    37    1
   154    38    37    1
   155    38    39    1
   156    41    40    2
   157    41    42    1
   158    40    39    1
   159    25    24    2
   160    24    23    1
   161    27    26    1
   162    27    28    1
   163    23    26    1
   164    23    22    1
   165    28    29    1
   166    29    30    2
   167    31    30    1
   168    30    32    1
