@<TRIPOS>MOLECULE
tmp/3lfcA01.pdb
 193 182 0 0 0
SMALL
GASTEIGER

@<TRIPOS>ATOM
      1  N         27.7940    3.5850  -18.0140 N.3    31  VAL31      -0.1245
      2  CA        27.5600    3.1090  -19.3750 C.3    31  VAL31       0.1561
      3  C         28.1950    4.0450  -20.4040 C.2    31  VAL31       0.2260
      4  O         28.0840    5.2710  -20.3060 O.2    31  VAL31      -0.2867
      5  CB        26.0450    3.0040  -19.6820 C.3    31  VAL31       0.0252
      6  CG1       25.7980    2.2500  -20.9860 C.3    31  VAL31       0.0019
      7  CG2       25.3150    2.3280  -18.5350 C.3    31  VAL31       0.0019
      8  N         26.0910   -0.3590  -26.4520 N.3    44  ALA44      -0.1231
      9  CA        26.1850    0.1930  -25.1110 C.3    44  ALA44       0.1694
     10  C         26.9900   -0.7760  -24.2550 C.2    44  ALA44       0.2592
     11  O         26.7090   -1.9730  -24.2370 O.2    44  ALA44      -0.2718
     12  CB        24.8000    0.4150  -24.5210 C.3    44  ALA44       0.0304
     13  N         28.0080   -0.2580  -23.5740 N.am   45  VAL45      -0.1966
     14  CA        28.8220   -1.0620  -22.6690 C.3    45  VAL45       0.1727
     15  C         28.6250   -0.5760  -21.2410 C.2    45  VAL45       0.2616
     16  O         28.9200    0.5770  -20.9280 O.2    45  VAL45      -0.2715
     17  CB        30.3220   -1.0010  -23.0240 C.3    45  VAL45       0.0290
     18  CG1       31.1370   -1.8300  -22.0420 C.3    45  VAL45       0.0023
     19  CG2       30.5570   -1.4770  -24.4490 C.3    45  VAL45       0.0023
     20  N         28.1150   -1.4540  -20.3830 N.am   46  LYS46      -0.1977
     21  CA        27.8950   -1.1110  -18.9840 C.3    46  LYS46       0.1596
     22  C         28.9840   -1.7120  -18.1060 C.2    46  LYS46       0.2287
     23  O         29.1820   -2.9260  -18.1080 O.2    46  LYS46      -0.2864
     24  CB        26.5110   -1.5850  -18.5140 C.3    46  LYS46       0.0298
     25  CG        26.2330   -1.3200  -17.0320 C.3    46  LYS46       0.0038
     26  CD        25.2790   -2.3400  -16.4470 C.3    46  LYS46       0.0206
     27  CE        23.9950   -1.7000  -15.9580 C.3    46  LYS46       0.1093
     28  NZ        23.0920   -2.6930  -15.3020 N.3    46  LYS46      -0.1314
     29  N         23.7090   -9.3490   -6.7010 N.3    60  ARG60      -0.1245
     30  CA        23.0570   -8.5710   -7.7400 C.3    60  ARG60       0.1563
     31  C         23.7940   -8.6690   -9.0830 C.2    60  ARG60       0.2260
     32  O         23.1690   -8.6800  -10.1390 O.2    60  ARG60      -0.2867
     33  CB        23.0080   -7.1160   -7.2810 C.3    60  ARG60       0.0307
     34  CG        21.8520   -6.3110   -7.7910 C.3    60  ARG60       0.0489
     35  CD        21.7420   -5.0060   -7.0130 C.3    60  ARG60       0.2205
     36  NE        20.8300   -5.1010   -5.8670 N.pl3  60  ARG60      -0.0865
     37  CZ        20.7370   -4.1870   -4.9020 C.cat  60  ARG60       0.5346
     38  NH1       21.5170   -3.1080   -4.9160 N.pl3  60  ARG60       0.1354
     39  NH2       19.8690   -4.3550   -3.9140 N.pl3  60  ARG60       0.1354
     40  N         23.1200  -12.2260  -10.5900 N.3    63  ARG63      -0.1231
     41  CA        21.7530  -12.3380  -11.1080 C.3    63  ARG63       0.1694
     42  C         21.6760  -11.8040  -12.5290 C.2    63  ARG63       0.2591
     43  O         21.2330  -12.4990  -13.4460 O.2    63  ARG63      -0.2718
     44  CB        20.7230  -11.6120  -10.2240 C.3    63  ARG63       0.0321
     45  CG        19.3620  -11.4130  -10.9270 C.3    63  ARG63       0.0489
     46  CD        18.1770  -11.2720   -9.9840 C.3    63  ARG63       0.2205
     47  NE        16.8970  -11.5580  -10.6550 N.pl3  63  ARG63      -0.0865
     48  CZ        16.0820  -10.6430  -11.1890 C.cat  63  ARG63       0.5346
     49  NH1       16.3900   -9.3500  -11.1540 N.pl3  63  ARG63       0.1354
     50  NH2       14.9490  -11.0210  -11.7630 N.pl3  63  ARG63       0.1354
     51  N         22.1200  -10.5670  -12.7060 N.am   64  GLU64      -0.1979
     52  CA        22.0190   -9.9060  -13.9910 C.3    64  GLU64       0.1602
     53  C         22.7090  -10.7120  -15.0910 C.2    64  GLU64       0.2287
     54  O         22.0800  -11.0470  -16.0910 O.2    64  GLU64      -0.2864
     55  CB        22.5890   -8.4950  -13.9060 C.3    64  GLU64       0.0415
     56  CG        21.9590   -7.5640  -14.8950 C.3    64  GLU64       0.1163
     57  CD        22.2780   -6.1230  -14.6240 C.2    64  GLU64       0.3649
     58  OE1       21.7240   -5.2660  -15.3460 O.co2  64  GLU64      -0.2457
     59  OE2       23.0800   -5.8410  -13.7000 O.co2  64  GLU64      -0.2457
     60  N         20.8790  -14.0890  -15.8770 N.3    67  LEU67      -0.1231
     61  CA        19.5870  -13.8550  -16.4930 C.3    67  LEU67       0.1693
     62  C         19.7680  -13.4200  -17.9400 C.2    67  LEU67       0.2591
     63  O         19.1720  -14.0090  -18.8360 O.2    67  LEU67      -0.2718
     64  CB        18.8170  -12.7910  -15.7200 C.3    67  LEU67       0.0284
     65  CG        17.3260  -12.9790  -15.4500 C.3    67  LEU67       0.0019
     66  CD1       16.7220  -11.6270  -15.1080 C.3    67  LEU67       0.0001
     67  CD2       16.6070  -13.6010  -16.6270 C.3    67  LEU67       0.0001
     68  N         20.6080  -12.4120  -18.1640 N.am   68  LEU68      -0.1980
     69  CA        20.8440  -11.9020  -19.5030 C.3    68  LEU68       0.1596
     70  C         21.5290  -12.9280  -20.4160 C.2    68  LEU68       0.2287
     71  O         21.3510  -12.8900  -21.6320 O.2    68  LEU68      -0.2864
     72  CB        21.6060  -10.5630  -19.4680 C.3    68  LEU68       0.0297
     73  CG        20.9080   -9.2970  -18.9160 C.3    68  LEU68       0.0022
     74  CD1       21.8160   -8.0830  -18.9640 C.3    68  LEU68       0.0001
     75  CD2       19.6210   -8.9860  -19.6430 C.3    68  LEU68       0.0001
     76  N         18.5280  -14.9350  -21.4950 N.3    71  MET71      -0.1245
     77  CA        17.6410  -14.1660  -22.3610 C.3    71  MET71       0.1570
     78  C         18.1280  -14.0940  -23.8130 C.2    71  MET71       0.2261
     79  O         19.0520  -13.3380  -24.1430 O.2    71  MET71      -0.2867
     80  CB        17.4390  -12.7630  -21.7930 C.3    71  MET71       0.0387
     81  CG        16.7010  -12.7250  -20.4630 C.3    71  MET71       0.0595
     82  SD        15.0510  -13.4160  -20.5740 S.3    71  MET71      -0.1393
     83  CE        15.2930  -15.0870  -19.9460 C.3    71  MET71       0.0692
     84  N         13.4120   -9.0580  -26.1540 N.3    76  VAL76      -0.1231
     85  CA        14.0160   -8.9780  -24.8200 C.3    76  VAL76       0.1692
     86  C         15.4890   -8.6190  -24.9940 C.2    76  VAL76       0.2591
     87  O         16.1410   -9.1450  -25.8890 O.2    76  VAL76      -0.2718
     88  CB        13.9050  -10.3290  -24.0530 C.3    76  VAL76       0.0266
     89  CG1       14.4240  -10.1930  -22.6260 C.3    76  VAL76       0.0020
     90  CG2       12.4720  -10.8280  -24.0450 C.3    76  VAL76       0.0020
     91  N         16.0190   -7.7450  -24.1440 N.am   77  ILE77      -0.1980
     92  CA        17.4430   -7.3980  -24.2070 C.3    77  ILE77       0.1595
     93  C         18.3350   -8.6320  -24.0030 C.2    77  ILE77       0.2287
     94  O         17.9860   -9.5440  -23.2480 O.2    77  ILE77      -0.2864
     95  CB        17.8180   -6.2430  -23.2320 C.3    77  ILE77       0.0276
     96  CG1       19.1870   -5.6630  -23.6050 C.3    77  ILE77       0.0022
     97  CG2       17.7120   -6.6800  -21.7530 C.3    77  ILE77       0.0022
     98  CD1       19.8500   -4.8370  -22.5250 C.3    77  ILE77       0.0001
     99  N         22.7770  -10.2840  -24.5720 N.3    79  LEU79      -0.1245
    100  CA        24.1960   -9.9560  -24.4580 C.3    79  LEU79       0.1561
    101  C         24.9560  -10.2070  -25.7490 C.2    79  LEU79       0.2260
    102  O         24.9730  -11.3250  -26.2770 O.2    79  LEU79      -0.2867
    103  CB        24.8600  -10.7450  -23.3210 C.3    79  LEU79       0.0270
    104  CG        24.6230  -10.3710  -21.8540 C.3    79  LEU79       0.0019
    105  CD1       25.1610  -11.4810  -20.9930 C.3    79  LEU79       0.0001
    106  CD2       25.2750   -9.0470  -21.4710 C.3    79  LEU79       0.0001
    107  N         29.3660   -5.5230  -19.5510 N.3    97  LEU97      -0.1231
    108  CA        28.3470   -6.1690  -20.3710 C.3    97  LEU97       0.1693
    109  C         28.0060   -5.2840  -21.5740 C.2    97  LEU97       0.2592
    110  O         27.9920   -4.0520  -21.4610 O.2    97  LEU97      -0.2718
    111  CB        27.0870   -6.4550  -19.5500 C.3    97  LEU97       0.0284
    112  CG        27.1850   -7.0030  -18.1260 C.3    97  LEU97       0.0019
    113  CD1       25.8700   -6.7790  -17.4280 C.3    97  LEU97       0.0001
    114  CD2       27.5390   -8.4690  -18.1130 C.3    97  LEU97       0.0001
    115  N         27.7200   -5.9250  -22.7100 N.am   98  VAL98      -0.1966
    116  CA        27.5820   -5.2560  -24.0040 C.3    98  VAL98       0.1727
    117  C         26.2840   -5.6520  -24.7150 C.2    98  VAL98       0.2616
    118  O         25.9310   -6.8260  -24.7400 O.2    98  VAL98      -0.2715
    119  CB        28.7720   -5.6250  -24.9210 C.3    98  VAL98       0.0290
    120  CG1       28.8180   -4.7180  -26.1470 C.3    98  VAL98       0.0023
    121  CG2       30.0930   -5.5540  -24.1550 C.3    98  VAL98       0.0023
    122  N         25.5820   -4.6750  -25.2890 N.am   99  THR99      -0.1951
    123  CA        24.3940   -4.9210  -26.1240 C.3    99  THR99       0.1897
    124  C         24.2470   -3.8390  -27.1820 C.2    99  THR99       0.2313
    125  O         24.8640   -2.7830  -27.0580 O.2    99  THR99      -0.2863
    126  CB        23.0890   -4.9040  -25.3170 C.3    99  THR99       0.1794
    127  OG1       23.0980   -3.8050  -24.3990 O.3    99  THR99      -0.2208
    128  CG2       22.9250   -6.1670  -24.5590 C.3    99  THR99       0.0378
    129  N          9.7270  -14.1700  -21.4470 N.3   134  ILE134     -0.1245
    130  CA        10.0750  -13.9240  -20.0390 C.3   134  ILE134      0.1561
    131  C          9.1820  -14.7170  -19.0900 C.2   134  ILE134      0.2260
    132  O          9.6680  -15.3020  -18.1160 O.2   134  ILE134     -0.2867
    133  CB        10.0120  -12.4130  -19.6940 C.3   134  ILE134      0.0252
    134  CG1       11.1600  -11.6620  -20.3750 C.3   134  ILE134      0.0019
    135  CG2       10.0210  -12.1820  -18.1760 C.3   134  ILE134      0.0019
    136  CD1       10.9310  -10.1580  -20.4540 C.3   134  ILE134      0.0001
    137  N          9.8050  -15.9700  -15.0450 N.3   139  ILE139     -0.1245
    138  CA        10.1880  -14.6460  -14.5750 C.3   139  ILE139      0.1561
    139  C          9.0070  -13.6710  -14.6460 C.2   139  ILE139      0.2260
    140  O          8.1580  -13.7530  -15.5420 O.2   139  ILE139     -0.2867
    141  CB        11.3760  -14.0960  -15.3890 C.3   139  ILE139      0.0252
    142  CG1       12.4660  -15.1600  -15.5140 C.3   139  ILE139      0.0019
    143  CG2       11.9230  -12.8170  -14.7660 C.3   139  ILE139      0.0019
    144  CD1       13.4610  -14.8890  -16.6180 C.3   139  ILE139      0.0001
    145  N          8.4580   -9.5060  -14.7270 N.3   141  HIS141     -0.1241
    146  CA         9.2000   -8.2580  -14.8200 C.3   141  HIS141      0.1621
    147  C          8.9810   -7.3550  -13.6030 C.2   141  HIS141      0.2264
    148  O          9.9490   -6.8380  -13.0530 O.2   141  HIS141     -0.2867
    149  CB         8.9240   -7.4920  -16.1130 C.3   141  HIS141      0.0745
    150  CG         9.8050   -6.2930  -16.2760 C.ar  141  HIS141      0.0817
    151  ND1       10.7460   -6.1870  -17.2760 N.ar  141  HIS141     -0.2268
    152  CD2        9.9190   -5.1690  -15.5310 C.ar  141  HIS141      0.1154
    153  CE1       11.3860   -5.0380  -17.1520 C.ar  141  HIS141      0.1986
    154  NE2       10.9090   -4.4060  -16.0950 N.ar  141  HIS141     -0.2212
    155  N         12.2270   -5.3770  -24.3940 N.3   159  ILE159     -0.1231
    156  CA        11.9310   -5.1540  -22.9760 C.3   159  ILE159      0.1692
    157  C         13.2260   -5.1560  -22.1730 C.2   159  ILE159      0.2592
    158  O         14.0970   -6.0130  -22.3830 O.2   159  ILE159     -0.2718
    159  CB        10.9790   -6.2160  -22.3960 C.3   159  ILE159      0.0266
    160  CG1        9.6680   -6.2650  -23.1760 C.3   159  ILE159      0.0019
    161  CG2       10.6930   -5.9380  -20.9210 C.3   159  ILE159      0.0020
    162  CD1        8.8510   -7.5180  -22.9040 C.3   159  ILE159      0.0001
    163  N         13.3600   -4.1890  -21.2670 N.am  160  LEU160     -0.1966
    164  CA        14.5180   -4.1410  -20.3670 C.3   160  LEU160      0.1728
    165  C         14.1590   -3.7090  -18.9480 C.2   160  LEU160      0.2616
    166  O         13.0260   -3.3050  -18.6870 O.2   160  LEU160     -0.2715
    167  CB        15.6470   -3.2790  -20.9490 C.3   160  LEU160      0.0311
    168  CG        15.3570   -1.8970  -21.5510 C.3   160  LEU160      0.0022
    169  CD1       15.1280   -0.8460  -20.4700 C.3   160  LEU160      0.0001
    170  CD2       16.5050   -1.4710  -22.4560 C.3   160  LEU160      0.0001
    171  N         15.1360   -3.8050  -18.0460 N.am  161  ASP161     -0.1957
    172  CA        14.9570   -3.4910  -16.6220 C.3   161  ASP161      0.1840
    173  C         16.1240   -2.6740  -16.0400 C.2   161  ASP161      0.2622
    174  O         17.1950   -3.2220  -15.7520 O.2   161  ASP161     -0.2715
    175  CB        14.7640   -4.7850  -15.8230 C.3   161  ASP161      0.1450
    176  CG        14.2270   -4.5420  -14.4150 C.2   161  ASP161      0.3671
    177  OD1       14.2540   -5.4930  -13.6050 O.co2 161  ASP161     -0.2456
    178  OD2       13.7770   -3.4160  -14.1110 O.co2 161  ASP161     -0.2456
    179  N         15.8870   -1.3740  -15.8460 N.am  162  PHE162     -0.1960
    180  CA        16.9120   -0.4070  -15.3870 C.3   162  PHE162      0.1771
    181  C         17.3270   -0.5010  -13.9140 C.2   162  PHE162      0.2620
    182  O         17.8610    0.4700  -13.3840 O.2   162  PHE162     -0.2715
    183  CB        16.4420    1.0330  -15.6480 C.3   162  PHE162      0.0574
    184  CG        17.0790    1.6890  -16.8480 C.ar  162  PHE162     -0.0200
    185  CD1       18.1560    2.5580  -16.6890 C.ar  162  PHE162     -0.0042
    186  CD2       16.5800    1.4690  -18.1290 C.ar  162  PHE162     -0.0042
    187  CE1       18.7500    3.1840  -17.7950 C.ar  162  PHE162     -0.0003
    188  CE2       17.1540    2.0890  -19.2430 C.ar  162  PHE162     -0.0003
    189  CZ        18.2460    2.9500  -19.0770 C.ar  162  PHE162     -0.0000
    190  N         17.0800   -1.6400  -13.2600 N.am  163  GLY163     -0.1954
    191  CA        17.4580   -1.8670  -11.8530 C.3   163  GLY163      0.1869
    192  C         17.4680   -0.6640  -10.9100 C.2   163  GLY163      0.2309
    193  O         16.5420    0.1630  -10.8920 O.2   163  GLY163     -0.2863
@<TRIPOS>BOND
     1   124   125    2
     2   124   123    1
     3     8     9    1
     4   102   101    2
     5    84    85    1
     6   120   119    1
     7   123   126    1
     8   123   122    1
     9    87    86    2
    10   101   100    1
    11   126   128    1
    12   126   127    1
    13   122   117   am
    14     9    12    1
    15     9    10    1
    16    86    85    1
    17    86    91   am
    18   119   121    1
    19   119   116    1
    20    85    88    1
    21   118   117    2
    22   117   116    1
    23    99   100    1
    24   100   103    1
    25    19    17    1
    26   155   156    1
    27    10    11    2
    28    10    13   am
    29    92    91    1
    30    92    93    1
    31    92    95    1
    32    79    78    2
    33    88    90    1
    34    88    89    1
    35   116   115    1
    36    93    94    2
    37    78    77    1
    38    96    95    1
    39    96    98    1
    40    13    14    1
    41   103   104    1
    42    95    97    1
    43   160   162    1
    44   160   159    1
    45    17    14    1
    46    17    18    1
    47   156   159    1
    48   156   157    1
    49   115   109   am
    50    14    15    1
    51   170   168    1
    52   159   161    1
    53   158   157    2
    54    77    80    1
    55    77    76    1
    56   157   163   am
    57   104   106    1
    58   104   105    1
    59    80    81    1
    60    71    70    2
    61   109   110    2
    62   109   108    1
    63   168   167    1
    64   168   169    1
    65   129   130    1
    66   163   164    1
    67    15    16    2
    68    15    20   am
    69     6     5    1
    70   167   164    1
    71    82    81    1
    72    82    83    1
    73   136   134    1
    74    70    69    1
    75     3     4    2
    76     3     2    1
    77    20    21    1
    78   134   133    1
    79   108   107    1
    80   108   111    1
    81   164   165    1
    82   130   133    1
    83   130   131    1
    84   133   135    1
    85     5     2    1
    86     5     7    1
    87    75    73    1
    88   111   112    1
    89    69    72    1
    90    69    68    1
    91    72    73    1
    92     2     1    1
    93   188   189   ar
    94   188   186   ar
    95   131   132    2
    96   189   187   ar
    97    21    24    1
    98    21    22    1
    99    74    73    1
   100   165   166    2
   101   165   171   am
   102    63    62    2
   103    24    25    1
   104    68    62   am
   105   186   184   ar
   106   112   114    1
   107   112   113    1
   108    23    22    2
   109   171   172    1
   110    62    61    1
   111   187   185   ar
   112   151   153   ar
   113   151   150   ar
   114   153   154   ar
   115    25    26    1
   116   184   185   ar
   117   184   183    1
   118    67    65    1
   119   172   173    1
   120   172   175    1
   121   144   142    1
   122    61    60    1
   123    61    64    1
   124    26    27    1
   125   150   149    1
   126   150   152   ar
   127   149   146    1
   128   154   152   ar
   129    54    53    2
   130   173   179   am
   131   173   174    2
   132    27    28    1
   133   179   180    1
   134   175   176    1
   135    64    65    1
   136   183   180    1
   137   140   139    2
   138   142   141    1
   139    65    66    1
   140   141   143    1
   141   141   138    1
   142   180   181    1
   143    58    57   ar
   144    53    52    1
   145   137   138    1
   146    56    57    1
   147    56    55    1
   148   146   145    1
   149   146   147    1
   150   139   138    1
   151    57    59   ar
   152   176   178   ar
   153   176   177   ar
   154    52    55    1
   155    52    51    1
   156   181   182    2
   157   181   190   am
   158   147   148    2
   159    43    42    2
   160   190   191    1
   161    51    42   am
   162    42    41    1
   163   191   192    1
   164    50    48    1
   165    48    49    1
   166    48    47    2
   167    41    40    1
   168    41    44    1
   169    45    44    1
   170    45    46    1
   171   192   193    2
   172    47    46    1
   173    32    31    2
   174    31    30    1
   175    34    33    1
   176    34    35    1
   177    30    33    1
   178    30    29    1
   179    35    36    1
   180    36    37    2
   181    38    37    1
   182    37    39    1
