@<TRIPOS>MOLECULE
tmp/3lfeA01.pdb
 218 205 0 0 0
SMALL
GASTEIGER

@<TRIPOS>ATOM
      1  N         27.1720    7.6100  -21.4380 N.3    27  VAL27      -0.1245
      2  CA        25.7680    7.9920  -21.6550 C.3    27  VAL27       0.1561
      3  C         24.8720    7.9880  -20.4100 C.2    27  VAL27       0.2260
      4  O         23.6670    8.2210  -20.5260 O.2    27  VAL27      -0.2867
      5  CB        25.0780    7.1510  -22.7760 C.3    27  VAL27       0.0252
      6  CG1       25.5680    7.5700  -24.1640 C.3    27  VAL27       0.0019
      7  CG2       25.2640    5.6570  -22.5420 C.3    27  VAL27       0.0019
      8  N         27.4550    3.3880  -17.9680 N.3    32  VAL32      -0.1245
      9  CA        27.3530    2.7980  -19.3050 C.3    32  VAL32       0.1561
     10  C         28.0500    3.7130  -20.3070 C.2    32  VAL32       0.2260
     11  O         27.8390    4.9230  -20.2700 O.2    32  VAL32      -0.2867
     12  CB        25.8610    2.6470  -19.7370 C.3    32  VAL32       0.0252
     13  CG1       25.7420    2.3260  -21.2190 C.3    32  VAL32       0.0019
     14  CG2       25.1460    1.5710  -18.9240 C.3    32  VAL32       0.0019
     15  N         26.1240   -0.6450  -26.3150 N.3    45  ALA45      -0.1245
     16  CA        26.2450   -0.1600  -24.9460 C.3    45  ALA45       0.1562
     17  C         27.1460   -1.1130  -24.1420 C.2    45  ALA45       0.2260
     18  O         26.8550   -2.2910  -24.0290 O.2    45  ALA45      -0.2867
     19  CB        24.8470   -0.1000  -24.3150 C.3    45  ALA45       0.0290
     20  N         28.4350   -1.7870  -20.3860 N.3    47  LYS47      -0.1245
     21  CA        28.1370   -1.4330  -18.9880 C.3    47  LYS47       0.1561
     22  C         29.1930   -1.9900  -18.0640 C.2    47  LYS47       0.2260
     23  O         29.4000   -3.2230  -17.9640 O.2    47  LYS47      -0.2867
     24  CB        26.7710   -1.9570  -18.5620 C.3    47  LYS47       0.0271
     25  CG        26.3160   -1.5070  -17.1760 C.3    47  LYS47       0.0035
     26  CD        25.2650   -2.4710  -16.6750 C.3    47  LYS47       0.0206
     27  CE        24.4950   -1.9350  -15.4830 C.3    47  LYS47       0.1093
     28  NZ        23.4410   -2.9270  -15.0310 N.3    47  LYS47      -0.1314
     29  N         23.6870   -9.4860   -7.0300 N.3    61  ARG61      -0.1245
     30  CA        23.0880   -8.7440   -8.1280 C.3    61  ARG61       0.1563
     31  C         23.8720   -8.9170   -9.4200 C.2    61  ARG61       0.2260
     32  O         23.2900   -9.0020  -10.4870 O.2    61  ARG61      -0.2867
     33  CB        23.0340   -7.2480   -7.8130 C.3    61  ARG61       0.0307
     34  CG        22.0060   -6.8490   -6.7930 C.3    61  ARG61       0.0489
     35  CD        22.0600   -5.3310   -6.5600 C.3    61  ARG61       0.2205
     36  NE        21.2470   -4.9690   -5.4000 N.pl3  61  ARG61      -0.0865
     37  CZ        21.3580   -3.8350   -4.7120 C.cat  61  ARG61       0.5346
     38  NH1       22.2590   -2.9200   -5.0420 N.pl3  61  ARG61       0.1354
     39  NH2       20.5600   -3.6260   -3.6790 N.pl3  61  ARG61       0.1354
     40  N         23.1780  -12.4540  -10.4880 N.3    64  ARG64      -0.1231
     41  CA        21.7980  -12.5040  -10.9500 C.3    64  ARG64       0.1694
     42  C         21.6380  -11.7810  -12.2950 C.2    64  ARG64       0.2591
     43  O         21.0160  -12.3120  -13.2040 O.2    64  ARG64      -0.2718
     44  CB        20.8380  -11.9440   -9.8870 C.3    64  ARG64       0.0321
     45  CG        19.4660  -11.5110  -10.3940 C.3    64  ARG64       0.0489
     46  CD        18.4870  -11.1660   -9.2270 C.3    64  ARG64       0.2205
     47  NE        17.6050  -10.0440   -9.5890 N.pl3  64  ARG64      -0.0865
     48  CZ        16.5400  -10.1020  -10.4000 C.cat  64  ARG64       0.5346
     49  NH1       16.1500  -11.2450  -10.9690 N.pl3  64  ARG64       0.1354
     50  NH2       15.8490   -8.9920  -10.6380 N.pl3  64  ARG64       0.1354
     51  N         22.2130  -10.5950  -12.4560 N.am   65  GLU65      -0.1979
     52  CA        22.0370   -9.9290  -13.7360 C.3    65  GLU65       0.1602
     53  C         22.7390  -10.6470  -14.8810 C.2    65  GLU65       0.2287
     54  O         22.1630  -10.8070  -15.9410 O.2    65  GLU65      -0.2864
     55  CB        22.4240   -8.4520  -13.6930 C.3    65  GLU65       0.0415
     56  CG        22.0530   -7.7010  -14.9600 C.3    65  GLU65       0.1163
     57  CD        22.2450   -6.1940  -14.8320 C.2    65  GLU65       0.3649
     58  OE1       21.4670   -5.4350  -15.4580 O.co2  65  GLU65      -0.2457
     59  OE2       23.1580   -5.7630  -14.0990 O.co2  65  GLU65      -0.2457
     60  N         20.8090  -14.1810  -15.7540 N.3    68  LEU68      -0.1231
     61  CA        19.5350  -13.9270  -16.4030 C.3    68  LEU68       0.1693
     62  C         19.6760  -13.3710  -17.8350 C.2    68  LEU68       0.2591
     63  O         18.9620  -13.8040  -18.7360 O.2    68  LEU68      -0.2718
     64  CB        18.7590  -12.9360  -15.5340 C.3    68  LEU68       0.0284
     65  CG        17.3110  -12.5880  -15.8230 C.3    68  LEU68       0.0019
     66  CD1       16.5610  -13.8250  -16.1170 C.3    68  LEU68       0.0001
     67  CD2       16.7110  -11.9100  -14.5950 C.3    68  LEU68       0.0001
     68  N         20.5840  -12.4210  -18.0510 N.am   69  LEU69      -0.1980
     69  CA        20.8210  -11.9250  -19.4220 C.3    69  LEU69       0.1596
     70  C         21.3990  -12.9960  -20.3370 C.2    69  LEU69       0.2287
     71  O         21.0480  -13.0530  -21.5020 O.2    69  LEU69      -0.2864
     72  CB        21.7000  -10.6700  -19.4610 C.3    69  LEU69       0.0297
     73  CG        21.0860   -9.3650  -18.9110 C.3    69  LEU69       0.0022
     74  CD1       22.0600   -8.2350  -19.0190 C.3    69  LEU69       0.0001
     75  CD2       19.8010   -8.9950  -19.5770 C.3    69  LEU69       0.0001
     76  N         18.4720  -14.9270  -21.5550 N.3    72  MET72      -0.1245
     77  CA        17.4470  -14.2250  -22.3290 C.3    72  MET72       0.1570
     78  C         17.8310  -14.1480  -23.8050 C.2    72  MET72       0.2261
     79  O         18.7320  -13.3830  -24.1500 O.2    72  MET72      -0.2867
     80  CB        17.2530  -12.8020  -21.7710 C.3    72  MET72       0.0387
     81  CG        16.6000  -12.7340  -20.3890 C.3    72  MET72       0.0595
     82  SD        14.8940  -13.3470  -20.3610 S.3    72  MET72      -0.1393
     83  CE        15.1240  -15.0190  -19.7870 C.3    72  MET72       0.0692
     84  N         13.4820   -8.9340  -26.1150 N.3    77  VAL77      -0.1231
     85  CA        14.0380   -8.8850  -24.7790 C.3    77  VAL77       0.1692
     86  C         15.4810   -8.5530  -24.9670 C.2    77  VAL77       0.2591
     87  O         16.1390   -9.1020  -25.8610 O.2    77  VAL77      -0.2718
     88  CB        13.9040  -10.2300  -24.0130 C.3    77  VAL77       0.0266
     89  CG1       14.5300  -10.1150  -22.6360 C.3    77  VAL77       0.0020
     90  CG2       12.4490  -10.6230  -23.9060 C.3    77  VAL77       0.0020
     91  N         15.9790   -7.6440  -24.1470 N.am   78  ILE78      -0.1980
     92  CA        17.3770   -7.3110  -24.1920 C.3    78  ILE78       0.1595
     93  C         18.2310   -8.5860  -23.9770 C.2    78  ILE78       0.2287
     94  O         17.8220   -9.5000  -23.2480 O.2    78  ILE78      -0.2864
     95  CB        17.6690   -6.2020  -23.1510 C.3    78  ILE78       0.0276
     96  CG1       18.9010   -5.4050  -23.5510 C.3    78  ILE78       0.0022
     97  CG2       17.6890   -6.7380  -21.7100 C.3    78  ILE78       0.0022
     98  CD1       19.9920   -5.5820  -22.6210 C.3    78  ILE78       0.0001
     99  N         29.4240   -5.6750  -19.3300 N.3    98  LEU98      -0.1245
    100  CA        28.3580   -6.2480  -20.1510 C.3    98  LEU98       0.1561
    101  C         28.1630   -5.4480  -21.4360 C.2    98  LEU98       0.2260
    102  O         28.2430   -4.2350  -21.4230 O.2    98  LEU98      -0.2867
    103  CB        27.0450   -6.2910  -19.3530 C.3    98  LEU98       0.0270
    104  CG        27.1060   -6.9130  -17.9490 C.3    98  LEU98       0.0019
    105  CD1       25.7320   -6.7790  -17.2830 C.3    98  LEU98       0.0001
    106  CD2       27.5500   -8.3890  -17.9770 C.3    98  LEU98       0.0001
    107  N         25.6230   -4.9110  -24.8970 N.3   100  THR100     -0.1203
    108  CA        24.3810   -5.1530  -25.6070 C.3   100  THR100      0.1994
    109  C         24.2780   -4.1690  -26.7860 C.2   100  THR100      0.2618
    110  O         25.0110   -3.1980  -26.8570 O.2   100  THR100     -0.2717
    111  CB        23.1500   -4.8530  -24.7180 C.3   100  THR100      0.1784
    112  OG1       23.1940   -3.4700  -24.3700 O.3   100  THR100     -0.2211
    113  CG2       23.1390   -5.6700  -23.4420 C.3   100  THR100      0.0376
    114  N         23.3080   -4.4250  -27.6620 N.am  101  HIS101     -0.1961
    115  CA        22.8530   -3.4900  -28.6760 C.3   101  HIS101      0.1787
    116  C         22.6080   -2.0880  -28.1290 C.2   101  HIS101      0.2620
    117  O         22.0280   -1.9280  -27.0460 O.2   101  HIS101     -0.2715
    118  CB        21.5110   -3.9690  -29.2240 C.3   101  HIS101      0.0785
    119  CG        21.6210   -5.0520  -30.2400 C.ar  101  HIS101      0.0821
    120  ND1       22.1710   -4.8410  -31.4870 N.ar  101  HIS101     -0.2267
    121  CD2       21.2340   -6.3500  -30.2070 C.ar  101  HIS101      0.1154
    122  CE1       22.1410   -5.9730  -32.1720 C.ar  101  HIS101      0.1986
    123  NE2       21.5760   -6.9020  -31.4200 N.ar  101  HIS101     -0.2212
    124  N         23.0080   -1.0710  -28.8960 N.am  102  LEU102     -0.1963
    125  CA        22.5880    0.2920  -28.5820 C.3   102  LEU102      0.1728
    126  C         21.3030    0.5800  -29.3560 C.2   102  LEU102      0.2616
    127  O         21.2500    0.4270  -30.5810 O.2   102  LEU102     -0.2715
    128  CB        23.6720    1.2860  -28.9280 C.3   102  LEU102      0.0311
    129  CG        23.5100    2.6960  -28.3580 C.3   102  LEU102      0.0022
    130  CD1       23.6760    2.7020  -26.8300 C.3   102  LEU102      0.0001
    131  CD2       24.5170    3.6330  -29.0310 C.3   102  LEU102      0.0001
    132  N         20.2530    0.9640  -28.6490 N.am  103  MET103     -0.1963
    133  CA        18.9580    1.1420  -29.3140 C.3   103  MET103      0.1736
    134  C         18.7460    2.5790  -29.7630 C.2   103  MET103      0.2617
    135  O         18.1690    2.8150  -30.8360 O.2   103  MET103     -0.2715
    136  CB        17.8170    0.7230  -28.4020 C.3   103  MET103      0.0427
    137  CG        16.8800   -0.2490  -29.0620 C.3   103  MET103      0.0599
    138  SD        17.6690   -1.8580  -29.1740 S.3   103  MET103     -0.1393
    139  CE        16.5570   -2.5960  -30.3870 C.3   103  MET103      0.0692
    140  N         19.2120    3.5290  -28.9470 N.am  104  GLY104     -0.1940
    141  CA        19.1130    4.9560  -29.2720 C.3   104  GLY104      0.2014
    142  C         17.9860    5.6920  -28.5660 C.2   104  GLY104      0.2638
    143  O         18.0140    6.9230  -28.4370 O.2   104  GLY104     -0.2714
    144  N         16.9850    4.9600  -28.0930 N.am  105  ALA105     -0.1977
    145  CA        15.8540    5.6210  -27.4670 C.3   105  ALA105      0.1597
    146  C         15.0560    4.6880  -26.5730 C.2   105  ALA105      0.2287
    147  O         15.0920    3.4690  -26.7380 O.2   105  ALA105     -0.2864
    148  CB        14.9400    6.2390  -28.5540 C.3   105  ALA105      0.0319
    149  N          9.4250  -14.0390  -21.3700 N.3   135  ILE135     -0.1245
    150  CA         9.8420  -13.8150  -19.9950 C.3   135  ILE135      0.1561
    151  C          8.9660  -14.5840  -19.0000 C.2   135  ILE135      0.2260
    152  O          9.4570  -15.2930  -18.1250 O.2   135  ILE135     -0.2867
    153  CB         9.8160  -12.2810  -19.6860 C.3   135  ILE135      0.0252
    154  CG1       10.9890  -11.6050  -20.4260 C.3   135  ILE135      0.0019
    155  CG2        9.8410  -12.0250  -18.1710 C.3   135  ILE135      0.0019
    156  CD1       10.9710  -10.0260  -20.4430 C.3   135  ILE135      0.0001
    157  N          9.3830  -15.6600  -14.8030 N.3   140  ILE140     -0.1245
    158  CA         9.9070  -14.4020  -14.3350 C.3   140  ILE140      0.1561
    159  C          8.8010  -13.3730  -14.4950 C.2   140  ILE140      0.2260
    160  O          8.1870  -13.2780  -15.5590 O.2   140  ILE140     -0.2867
    161  CB        11.1420  -13.9710  -15.1990 C.3   140  ILE140      0.0252
    162  CG1       12.2880  -14.9580  -14.9990 C.3   140  ILE140      0.0019
    163  CG2       11.6060  -12.5130  -14.9080 C.3   140  ILE140      0.0019
    164  CD1       13.3190  -14.9550  -16.1170 C.3   140  ILE140      0.0001
    165  N          8.4270   -9.3110  -14.5380 N.3   142  HIS142     -0.1241
    166  CA         9.2040   -8.0870  -14.6340 C.3   142  HIS142      0.1621
    167  C          9.0110   -7.1380  -13.4430 C.2   142  HIS142      0.2264
    168  O          9.9970   -6.6910  -12.8450 O.2   142  HIS142     -0.2867
    169  CB         8.8810   -7.3570  -15.9260 C.3   142  HIS142      0.0745
    170  CG         9.8320   -6.2540  -16.2470 C.ar  142  HIS142      0.0817
    171  ND1        9.8800   -5.0730  -15.5330 N.ar  142  HIS142     -0.2268
    172  CD2       10.7700   -6.1530  -17.2120 C.ar  142  HIS142      0.1154
    173  CE1       10.8100   -4.2940  -16.0530 C.ar  142  HIS142      0.1986
    174  NE2       11.3610   -4.9280  -17.0740 N.ar  142  HIS142     -0.2212
    175  N         13.2740   -0.2600  -24.8590 N.3   151  ALA151     -0.1245
    176  CA        14.1990    0.2990  -25.8240 C.3   151  ALA151      0.1562
    177  C         13.6280    0.1390  -27.2330 C.2   151  ALA151      0.2260
    178  O         13.1340   -0.9150  -27.5910 O.2   151  ALA151     -0.2867
    179  CB        15.5830   -0.3630  -25.6990 C.3   151  ALA151      0.0290
    180  N         12.3810   -5.1860  -24.2570 N.3   160  ILE160     -0.1231
    181  CA        12.1340   -4.9730  -22.8630 C.3   160  ILE160      0.1692
    182  C         13.4690   -5.1230  -22.1740 C.2   160  ILE160      0.2592
    183  O         14.2650   -5.9870  -22.5310 O.2   160  ILE160     -0.2718
    184  CB        11.1670   -6.0260  -22.2580 C.3   160  ILE160      0.0266
    185  CG1        9.7630   -5.9290  -22.8600 C.3   160  ILE160      0.0019
    186  CG2       11.1180   -5.9290  -20.7390 C.3   160  ILE160      0.0020
    187  CD1        8.9200   -7.1700  -22.5690 C.3   160  ILE160      0.0001
    188  N         13.6970   -4.2570  -21.2010 N.am  161  LEU161     -0.1966
    189  CA        14.8670   -4.3100  -20.3520 C.3   161  LEU161      0.1728
    190  C         14.5110   -3.9070  -18.9210 C.2   161  LEU161      0.2616
    191  O         13.3460   -3.6730  -18.6040 O.2   161  LEU161     -0.2715
    192  CB        15.9980   -3.4440  -20.9150 C.3   161  LEU161      0.0311
    193  CG        15.7630   -2.0070  -21.3450 C.3   161  LEU161      0.0022
    194  CD1       15.4950   -1.0650  -20.1590 C.3   161  LEU161      0.0001
    195  CD2       17.0110   -1.5650  -22.0890 C.3   161  LEU161      0.0001
    196  N         15.5240   -3.8380  -18.0690 N.am  162  ASP162     -0.1957
    197  CA        15.3420   -3.4120  -16.6740 C.3   162  ASP162      0.1840
    198  C         16.6020   -2.7100  -16.1990 C.2   162  ASP162      0.2622
    199  O         17.5930   -3.3590  -15.8640 O.2   162  ASP162     -0.2715
    200  CB        14.9900   -4.5990  -15.7610 C.3   162  ASP162      0.1450
    201  CG        14.5520   -4.1620  -14.3470 C.2   162  ASP162      0.3671
    202  OD1       13.9820   -4.9940  -13.6360 O.co2 162  ASP162     -0.2456
    203  OD2       14.7600   -3.0040  -13.9450 O.co2 162  ASP162     -0.2456
    204  N         16.5450   -1.3760  -16.1830 N.am  163  PHE163     -0.1960
    205  CA        17.6480   -0.5180  -15.7120 C.3   163  PHE163      0.1771
    206  C         17.9310   -0.5770  -14.2110 C.2   163  PHE163      0.2620
    207  O         19.0500   -0.2690  -13.8020 O.2   163  PHE163     -0.2715
    208  CB        17.4170    0.9560  -16.1070 C.3   163  PHE163      0.0574
    209  CG        17.6380    1.2140  -17.5500 C.ar  163  PHE163     -0.0200
    210  CD1       16.6980    1.8940  -18.2990 C.ar  163  PHE163     -0.0042
    211  CD2       18.7790    0.7150  -18.1880 C.ar  163  PHE163     -0.0042
    212  CE1       16.9060    2.1140  -19.6630 C.ar  163  PHE163     -0.0003
    213  CE2       18.9970    0.9210  -19.5520 C.ar  163  PHE163     -0.0003
    214  CZ        18.0580    1.6220  -20.2910 C.ar  163  PHE163     -0.0000
    215  N         16.9400   -0.9620  -13.4060 N.am  164  GLY164     -0.1954
    216  CA        17.0440   -0.8670  -11.9320 C.3   164  GLY164      0.1869
    217  C         17.3790    0.5370  -11.4190 C.2   164  GLY164      0.2309
    218  O         16.5650    1.2010  -10.7540 O.2   164  GLY164     -0.2863
@<TRIPOS>BOND
     1   122   120   ar
     2   122   123   ar
     3   120   119   ar
     4   123   121   ar
     5   135   134    2
     6   127   126    2
     7   139   138    1
     8   119   121   ar
     9   119   118    1
    10   134   133    1
    11   134   140   am
    12   126   132   am
    13   126   125    1
    14   133   132    1
    15   133   136    1
    16   141   140    1
    17   141   142    1
    18   118   115    1
    19   138   137    1
    20   137   136    1
    21   131   129    1
    22   128   125    1
    23   128   129    1
    24   124   125    1
    25   124   116   am
    26   115   116    1
    27   115   114    1
    28   142   143    2
    29   142   144   am
    30   148   145    1
    31   129   130    1
    32   116   117    2
    33   144   145    1
    34   114   109   am
    35   178   177    2
    36   145   146    1
    37   177   176    1
    38   110   109    2
    39   109   108    1
    40   147   146    2
    41    15    16    1
    42    84    85    1
    43    87    86    2
    44   176   179    1
    45   176   175    1
    46   108   107    1
    47   108   111    1
    48    86    85    1
    49    86    91   am
    50    16    19    1
    51    16    17    1
    52    85    88    1
    53   111   112    1
    54   111   113    1
    55   180   181    1
    56    92    91    1
    57    92    93    1
    58    92    95    1
    59     6     5    1
    60    79    78    2
    61    17    18    2
    62    88    90    1
    63    88    89    1
    64    93    94    2
    65    78    77    1
    66    96    95    1
    67    96    98    1
    68    95    97    1
    69   181   184    1
    70   181   182    1
    71   185   187    1
    72   185   184    1
    73     5     7    1
    74     5     2    1
    75   183   182    2
    76    77    80    1
    77    77    76    1
    78   184   186    1
    79   182   188   am
    80   195   193    1
    81    80    81    1
    82     2     1    1
    83     2     3    1
    84    71    70    2
    85   101   102    2
    86   101   100    1
    87   149   150    1
    88   193   192    1
    89   193   194    1
    90    13    12    1
    91   188   189    1
    92   192   189    1
    93     4     3    2
    94   156   154    1
    95   154   153    1
    96    81    82    1
    97    20    21    1
    98    82    83    1
    99   189   190    1
   100    70    69    1
   101    10    11    2
   102    10     9    1
   103   214   212   ar
   104   214   213   ar
   105   100   103    1
   106   100    99    1
   107   150   153    1
   108   150   151    1
   109    12     9    1
   110    12    14    1
   111   153   155    1
   112   212   210   ar
   113    75    73    1
   114   213   211   ar
   115    72    69    1
   116    72    73    1
   117    69    68    1
   118   103   104    1
   119     9     8    1
   120    74    73    1
   121   151   152    2
   122    21    24    1
   123    21    22    1
   124   190   191    2
   125   190   196   am
   126    63    62    2
   127    24    25    1
   128   210   209   ar
   129   211   209   ar
   130   196   197    1
   131    22    23    2
   132    68    62   am
   133   106   104    1
   134   104   105    1
   135    62    61    1
   136   209   208    1
   137   172   174   ar
   138   172   170   ar
   139    25    26    1
   140   174   173   ar
   141    26    27    1
   142   197   198    1
   143   197   200    1
   144    61    60    1
   145    61    64    1
   146   170   169    1
   147   170   171   ar
   148   198   204   am
   149   198   199    2
   150   204   205    1
   151    66    65    1
   152   164   162    1
   153   208   205    1
   154   173   171   ar
   155    54    53    2
   156   169   166    1
   157    65    64    1
   158    65    67    1
   159   200   201    1
   160   205   206    1
   161   160   159    2
   162    27    28    1
   163    58    57   ar
   164   161   162    1
   165   161   163    1
   166   161   158    1
   167    56    57    1
   168    56    55    1
   169    53    52    1
   170    57    59   ar
   171   157   158    1
   172   166   165    1
   173   166   167    1
   174   159   158    1
   175   201   203   ar
   176   201   202   ar
   177   206   207    2
   178   206   215   am
   179    52    55    1
   180    52    51    1
   181   167   168    2
   182   215   216    1
   183    43    42    2
   184    51    42   am
   185    42    41    1
   186   216   217    1
   187   217   218    2
   188    49    48    1
   189    41    40    1
   190    41    44    1
   191    50    48    1
   192    32    31    2
   193    48    47    2
   194    45    44    1
   195    45    46    1
   196    47    46    1
   197    31    30    1
   198    30    33    1
   199    30    29    1
   200    33    34    1
   201    34    35    1
   202    35    36    1
   203    36    37    2
   204    38    37    1
   205    37    39    1
