@<TRIPOS>MOLECULE
tmp/3lffA02.pdb
 201 191 0 0 0
SMALL
GASTEIGER

@<TRIPOS>ATOM
      1  N         23.0880    0.8560   -8.3030 N.3    31  TYR31      -0.1241
      2  CA        23.5980   -0.4500   -8.7260 C.3    31  TYR31       0.1605
      3  C         24.6230   -0.3840   -9.8610 C.2    31  TYR31       0.2264
      4  O         25.3540   -1.3490  -10.0940 O.2    31  TYR31      -0.2867
      5  CB        22.4340   -1.3680   -9.1160 C.3    31  TYR31       0.0534
      6  CG        22.9090   -2.6970   -9.6990 C.ar   31  TYR31      -0.0201
      7  CD1       23.5840   -3.6140   -8.9080 C.ar   31  TYR31      -0.0009
      8  CD2       22.7060   -3.0590  -11.0350 C.ar   31  TYR31      -0.0009
      9  CE1       24.0270   -4.8510   -9.3940 C.ar   31  TYR31       0.0417
     10  CE2       23.1540   -4.2800  -11.5590 C.ar   31  TYR31       0.0417
     11  CZ        23.8340   -5.1820  -10.7370 C.ar   31  TYR31       0.1957
     12  OH        24.2820   -6.3760  -11.2320 O.3    31  TYR31      -0.2866
     13  N         25.2870    3.4290  -17.0150 N.3    34  VAL34      -0.1245
     14  CA        25.1850    3.0050  -18.4060 C.3    34  VAL34       0.1561
     15  C         25.7260    4.0820  -19.3350 C.2    34  VAL34       0.2260
     16  O         25.4350    5.2730  -19.1670 O.2    34  VAL34      -0.2867
     17  CB        23.7250    2.6360  -18.7820 C.3    34  VAL34       0.0252
     18  CG1       23.6170    2.2240  -20.2410 C.3    34  VAL34       0.0019
     19  CG2       23.1940    1.5100  -17.8890 C.3    34  VAL34       0.0019
     20  N         24.6410   -0.2780  -25.6080 N.3    47  ALA47      -0.1245
     21  CA        24.6740    0.2050  -24.2380 C.3    47  ALA47       0.1562
     22  C         25.7000   -0.6300  -23.4850 C.2    47  ALA47       0.2260
     23  O         25.7020   -1.8690  -23.5980 O.2    47  ALA47      -0.2867
     24  CB        23.3010    0.0720  -23.5850 C.3    47  ALA47       0.0290
     25  N         26.8710   -1.2970  -19.6770 N.3    49  LYS49      -0.1245
     26  CA        26.5850   -1.1120  -18.2580 C.3    49  LYS49       0.1561
     27  C         27.7580   -1.6050  -17.4280 C.2    49  LYS49       0.2260
     28  O         28.1330   -2.7760  -17.5100 O.2    49  LYS49      -0.2867
     29  CB        25.3090   -1.8560  -17.8620 C.3    49  LYS49       0.0271
     30  CG        24.9020   -1.6770  -16.4040 C.3    49  LYS49       0.0035
     31  CD        23.5100   -2.2530  -16.1970 C.3    49  LYS49       0.0206
     32  CE        23.1670   -2.3820  -14.7350 C.3    49  LYS49       0.1093
     33  NZ        21.8380   -3.0530  -14.5810 N.3    49  LYS49      -0.1314
     34  N         22.4730   -9.7200   -7.2820 N.3    63  ARG63      -0.1245
     35  CA        21.9030   -8.9790   -8.4110 C.3    63  ARG63       0.1563
     36  C         22.8040   -9.0390   -9.6420 C.2    63  ARG63       0.2260
     37  O         22.3180   -9.1070  -10.7700 O.2    63  ARG63      -0.2867
     38  CB        21.6830   -7.5180   -8.0400 C.3    63  ARG63       0.0307
     39  CG        20.4980   -7.2360   -7.1450 C.3    63  ARG63       0.0489
     40  CD        20.5300   -5.7550   -6.7860 C.3    63  ARG63       0.2205
     41  NE        19.4790   -5.3400   -5.8570 N.pl3  63  ARG63      -0.0865
     42  CZ        19.4700   -4.1700   -5.2120 C.cat  63  ARG63       0.5346
     43  NH1       20.4570   -3.2940   -5.3790 N.pl3  63  ARG63       0.1354
     44  NH2       18.4720   -3.8770   -4.3890 N.pl3  63  ARG63       0.1354
     45  N         22.3920  -12.5560  -11.0430 N.3    66  ARG66      -0.1231
     46  CA        21.0400  -12.6730  -11.6090 C.3    66  ARG66       0.1694
     47  C         20.9700  -11.9950  -12.9670 C.2    66  ARG66       0.2591
     48  O         20.4540  -12.5760  -13.9330 O.2    66  ARG66      -0.2718
     49  CB        19.9720  -12.0840  -10.6740 C.3    66  ARG66       0.0321
     50  CG        18.5550  -12.1790  -11.2520 C.3    66  ARG66       0.0489
     51  CD        17.4780  -11.7610  -10.2650 C.3    66  ARG66       0.2205
     52  NE        16.1390  -12.0650  -10.7780 N.pl3  66  ARG66      -0.0865
     53  CZ        15.4200  -11.2620  -11.5600 C.cat  66  ARG66       0.5346
     54  NH1       15.8920  -10.0840  -11.9420 N.pl3  66  ARG66       0.1354
     55  NH2       14.2160  -11.6430  -11.9720 N.pl3  66  ARG66       0.1354
     56  N         21.4940  -10.7730  -13.0470 N.am   67  GLU67      -0.1979
     57  CA        21.4090  -10.0190  -14.2990 C.3    67  GLU67       0.1602
     58  C         22.2030  -10.6930  -15.4090 C.2    67  GLU67       0.2287
     59  O         21.7150  -10.8330  -16.5270 O.2    67  GLU67      -0.2864
     60  CB        21.8440   -8.5620  -14.1470 C.3    67  GLU67       0.0415
     61  CG        21.5570   -7.7590  -15.4080 C.3    67  GLU67       0.1163
     62  CD        21.7280   -6.2650  -15.2440 C.2    67  GLU67       0.3649
     63  OE1       21.1710   -5.5270  -16.0830 O.co2  67  GLU67      -0.2457
     64  OE2       22.4000   -5.8140  -14.2840 O.co2  67  GLU67      -0.2457
     65  N         20.3460  -13.9890  -16.4630 N.3    70  LEU70      -0.1231
     66  CA        19.1230  -13.6720  -17.2100 C.3    70  LEU70       0.1693
     67  C         19.4310  -13.1770  -18.6150 C.2    70  LEU70       0.2591
     68  O         18.8550  -13.6640  -19.5960 O.2    70  LEU70      -0.2718
     69  CB        18.2730  -12.6350  -16.4750 C.3    70  LEU70       0.0284
     70  CG        17.3850  -13.1640  -15.3520 C.3    70  LEU70       0.0019
     71  CD1       16.7160  -12.0150  -14.6400 C.3    70  LEU70       0.0001
     72  CD2       16.3540  -14.1100  -15.9150 C.3    70  LEU70       0.0001
     73  N         20.3380  -12.2150  -18.7310 N.am   71  LEU71      -0.1980
     74  CA        20.6740  -11.6850  -20.0460 C.3    71  LEU71       0.1596
     75  C         21.3090  -12.7430  -20.9570 C.2    71  LEU71       0.2287
     76  O         21.0740  -12.7340  -22.1620 O.2    71  LEU71      -0.2864
     77  CB        21.5750  -10.4580  -19.9400 C.3    71  LEU71       0.0297
     78  CG        20.9350   -9.1780  -19.3860 C.3    71  LEU71       0.0022
     79  CD1       22.0020   -8.1090  -19.1850 C.3    71  LEU71       0.0001
     80  CD2       19.8320   -8.6650  -20.3100 C.3    71  LEU71       0.0001
     81  N         18.3770  -14.8470  -22.4500 N.3    74  MET74      -0.1245
     82  CA        17.3370  -14.2480  -23.2910 C.3    74  MET74       0.1570
     83  C         17.7610  -14.1850  -24.7440 C.2    74  MET74       0.2261
     84  O         18.6840  -13.4550  -25.0950 O.2    74  MET74      -0.2867
     85  CB        16.9950  -12.8430  -22.7950 C.3    74  MET74       0.0387
     86  CG        16.4450  -12.8050  -21.3870 C.3    74  MET74       0.0595
     87  SD        14.7770  -13.4700  -21.2470 S.3    74  MET74      -0.1393
     88  CE        15.0800  -15.1410  -20.7060 C.3    74  MET74       0.0692
     89  N         13.2150   -9.0570  -26.8490 N.3    79  VAL79      -0.1231
     90  CA        13.7740   -8.9890  -25.4980 C.3    79  VAL79       0.1692
     91  C         15.2440   -8.6270  -25.6420 C.2    79  VAL79       0.2591
     92  O         15.9280   -9.1490  -26.5280 O.2    79  VAL79      -0.2718
     93  CB        13.6130  -10.3280  -24.7360 C.3    79  VAL79       0.0266
     94  CG1       14.1070  -10.2000  -23.2990 C.3    79  VAL79       0.0020
     95  CG2       12.1470  -10.7690  -24.7300 C.3    79  VAL79       0.0020
     96  N         15.7210   -7.7160  -24.7990 N.am   80  ILE80      -0.1980
     97  CA        17.1390   -7.3590  -24.8110 C.3    80  ILE80       0.1595
     98  C         17.9890   -8.6100  -24.5830 C.2    80  ILE80       0.2287
     99  O         17.6000   -9.5200  -23.8380 O.2    80  ILE80      -0.2864
    100  CB        17.4480   -6.2400  -23.7800 C.3    80  ILE80       0.0276
    101  CG1       18.7180   -5.4730  -24.1690 C.3    80  ILE80       0.0022
    102  CG2       17.5130   -6.7800  -22.3670 C.3    80  ILE80       0.0022
    103  CD1       18.5220   -4.6060  -25.4040 C.3    80  ILE80       0.0001
    104  N         28.3780   -5.2430  -18.9360 N.3   100  LEU100     -0.1245
    105  CA        27.4050   -5.9090  -19.8190 C.3   100  LEU100      0.1561
    106  C         27.1380   -5.0250  -21.0290 C.2   100  LEU100      0.2260
    107  O         26.9810   -3.8140  -20.8860 O.2   100  LEU100     -0.2867
    108  CB        26.0820   -6.1390  -19.0730 C.3   100  LEU100      0.0270
    109  CG        26.1790   -6.8680  -17.7380 C.3   100  LEU100      0.0019
    110  CD1       24.8550   -6.7400  -17.0000 C.3   100  LEU100      0.0001
    111  CD2       26.5780   -8.3350  -17.9030 C.3   100  LEU100      0.0001
    112  N         24.6950   -4.4820  -24.4800 N.3   102  THR102     -0.1203
    113  CA        23.4660   -4.8200  -25.2060 C.3   102  THR102      0.1994
    114  C         23.2640   -3.8720  -26.3870 C.2   102  THR102      0.2617
    115  O         23.9590   -2.8640  -26.4960 O.2   102  THR102     -0.2717
    116  CB        22.2090   -4.7050  -24.3020 C.3   102  THR102      0.1784
    117  OG1       21.9840   -3.3270  -23.9680 O.3   102  THR102     -0.2211
    118  CG2       22.3420   -5.5500  -23.0310 C.3   102  THR102      0.0376
    119  N         22.3030   -4.1900  -27.2580 N.am  103  HIS103     -0.1975
    120  CA        21.8500   -3.2750  -28.3160 C.3   103  HIS103      0.1656
    121  C         21.3550   -1.9830  -27.6880 C.2   103  HIS103      0.2291
    122  O         20.7170   -2.0180  -26.6360 O.2   103  HIS103     -0.2864
    123  CB        20.6590   -3.8740  -29.0650 C.3   103  HIS103      0.0771
    124  CG        21.0290   -4.8350  -30.1480 C.ar  103  HIS103      0.0820
    125  ND1       20.8490   -6.1970  -30.0250 N.ar  103  HIS103     -0.2267
    126  CD2       21.5300   -4.6320  -31.3890 C.ar  103  HIS103      0.1154
    127  CE1       21.2430   -6.7920  -31.1370 C.ar  103  HIS103      0.1986
    128  NE2       21.6640   -5.8660  -31.9780 N.ar  103  HIS103     -0.2212
    129  N          9.3460  -14.0880  -22.0970 N.3   137  ILE137     -0.1245
    130  CA         9.8250  -13.9110  -20.7280 C.3   137  ILE137      0.1561
    131  C          9.0050  -14.7610  -19.7530 C.2   137  ILE137      0.2260
    132  O          9.5640  -15.4990  -18.9250 O.2   137  ILE137     -0.2867
    133  CB         9.8080  -12.4100  -20.3310 C.3   137  ILE137      0.0252
    134  CG1       10.8040  -11.6170  -21.1870 C.3   137  ILE137      0.0019
    135  CG2       10.1310  -12.2210  -18.8570 C.3   137  ILE137      0.0019
    136  CD1       10.6730  -10.1070  -21.0420 C.3   137  ILE137      0.0001
    137  N          9.7940  -16.0920  -15.6300 N.3   142  ILE142     -0.1231
    138  CA        10.3550  -14.8180  -15.1990 C.3   142  ILE142      0.1692
    139  C          9.2380  -13.7770  -15.2030 C.2   142  ILE142      0.2592
    140  O          8.4350  -13.7200  -16.1410 O.2   142  ILE142     -0.2718
    141  CB        11.4920  -14.3650  -16.1470 C.3   142  ILE142      0.0266
    142  CG1       12.6530  -15.3600  -16.1030 C.3   142  ILE142      0.0019
    143  CG2       11.9830  -12.9420  -15.8010 C.3   142  ILE142      0.0020
    144  CD1       13.4880  -15.3250  -17.3510 C.3   142  ILE142      0.0001
    145  N          9.1750  -12.9810  -14.1430 N.am  143  ILE143     -0.1966
    146  CA         8.2600  -11.8530  -14.0820 C.3   143  ILE143      0.1727
    147  C          9.1110  -10.6040  -14.2330 C.2   143  ILE143      0.2616
    148  O         10.1280  -10.4560  -13.5570 O.2   143  ILE143     -0.2715
    149  CB         7.5140  -11.7930  -12.7300 C.3   143  ILE143      0.0290
    150  CG1        6.7970  -13.1170  -12.4200 C.3   143  ILE143      0.0022
    151  CG2        6.5220  -10.6380  -12.7290 C.3   143  ILE143      0.0023
    152  CD1        6.2990  -13.2080  -10.9700 C.3   143  ILE143      0.0001
    153  N          8.7180   -9.7100  -15.1350 N.am  144  HIS144     -0.1973
    154  CA         9.4740   -8.4770  -15.3210 C.3   144  HIS144      0.1656
    155  C          9.3890   -7.5730  -14.0870 C.2   144  HIS144      0.2291
    156  O         10.4180   -7.2030  -13.5120 O.2   144  HIS144     -0.2864
    157  CB         9.0190   -7.7330  -16.5710 C.3   144  HIS144      0.0771
    158  CG         9.9160   -6.5940  -16.9420 C.ar  144  HIS144      0.0820
    159  ND1       10.0130   -5.4430  -16.1890 N.ar  144  HIS144     -0.2267
    160  CD2       10.7710   -6.4390  -17.9810 C.ar  144  HIS144      0.1154
    161  CE1       10.8750   -4.6190  -16.7630 C.ar  144  HIS144      0.1986
    162  NE2       11.3470   -5.1990  -17.8500 N.ar  144  HIS144     -0.2212
    163  N         12.2410   -5.3390  -24.9840 N.3   162  ILE162     -0.1231
    164  CA        11.9900   -5.1510  -23.5650 C.3   162  ILE162      0.1692
    165  C         13.3220   -5.2470  -22.8330 C.2   162  ILE162      0.2592
    166  O         14.0810   -6.2010  -23.0330 O.2   162  ILE162     -0.2718
    167  CB        11.0420   -6.2420  -23.0180 C.3   162  ILE162      0.0266
    168  CG1        9.6820   -6.1640  -23.7140 C.3   162  ILE162      0.0019
    169  CG2       10.8820   -6.1100  -21.4940 C.3   162  ILE162      0.0020
    170  CD1        8.8550   -7.4120  -23.4910 C.3   162  ILE162      0.0001
    171  N         13.5910   -4.2720  -21.9740 N.am  163  LEU163     -0.1966
    172  CA        14.7760   -4.3560  -21.1100 C.3   163  LEU163      0.1728
    173  C         14.4360   -4.0000  -19.6690 C.2   163  LEU163      0.2616
    174  O         13.2700   -3.7620  -19.3420 O.2   163  LEU163     -0.2715
    175  CB        15.9300   -3.4980  -21.6660 C.3   163  LEU163      0.0311
    176  CG        15.6940   -2.0310  -22.0290 C.3   163  LEU163      0.0022
    177  CD1       15.6340   -1.1730  -20.7850 C.3   163  LEU163      0.0001
    178  CD2       16.8030   -1.5390  -22.9580 C.3   163  LEU163      0.0001
    179  N         15.4490   -3.9890  -18.8050 N.am  164  ASP164     -0.1957
    180  CA        15.2800   -3.5160  -17.4410 C.3   164  ASP164      0.1840
    181  C         16.5840   -2.8710  -17.0200 C.2   164  ASP164      0.2622
    182  O         17.5280   -3.5620  -16.6630 O.2   164  ASP164     -0.2715
    183  CB        14.9110   -4.6640  -16.4850 C.3   164  ASP164      0.1450
    184  CG        14.5660   -4.1780  -15.0850 C.2   164  ASP164      0.3671
    185  OD1       14.7930   -2.9910  -14.7810 O.co2 164  ASP164     -0.2456
    186  OD2       14.0790   -4.9940  -14.2770 O.co2 164  ASP164     -0.2456
    187  N         16.6450   -1.5430  -17.0630 N.am  165  PHE165     -0.1960
    188  CA        17.9060   -0.8710  -16.7380 C.3   165  PHE165      0.1771
    189  C         18.4210   -1.2020  -15.3380 C.2   165  PHE165      0.2620
    190  O         19.6320   -1.2500  -15.1170 O.2   165  PHE165     -0.2715
    191  CB        17.8150    0.6410  -16.9500 C.3   165  PHE165      0.0574
    192  CG        17.9610    1.0520  -18.3820 C.ar  165  PHE165     -0.0200
    193  CD1       19.1140    0.7350  -19.0990 C.ar  165  PHE165     -0.0042
    194  CD2       16.9410    1.7420  -19.0260 C.ar  165  PHE165     -0.0042
    195  CE1       19.2510    1.1070  -20.4320 C.ar  165  PHE165     -0.0003
    196  CE2       17.0740    2.1180  -20.3610 C.ar  165  PHE165     -0.0003
    197  CZ        18.2290    1.8020  -21.0610 C.ar  165  PHE165     -0.0000
    198  N         17.4970   -1.4590  -14.4150 N.am  166  GLY166     -0.1954
    199  CA        17.8430   -1.7950  -13.0360 C.3   166  GLY166      0.1869
    200  C         18.4690   -0.6290  -12.2910 C.2   166  GLY166      0.2309
    201  O         18.3570    0.5240  -12.7100 O.2   166  GLY166     -0.2863
@<TRIPOS>BOND
     1   128   126   ar
     2   128   127   ar
     3   126   124   ar
     4   127   125   ar
     5   124   125   ar
     6   124   123    1
     7   123   120    1
     8   120   121    1
     9   120   119    1
    10   121   122    2
    11   119   114   am
    12    89    90    1
    13    92    91    2
    14   115   114    2
    15   114   113    1
    16    91    90    1
    17    91    96   am
    18    20    21    1
    19    90    93    1
    20   103   101    1
    21   113   112    1
    22   113   116    1
    23    84    83    2
    24   163   164    1
    25    97    96    1
    26    97    98    1
    27    97   100    1
    28    83    82    1
    29    93    95    1
    30    93    94    1
    31    98    99    2
    32   116   117    1
    33   116   118    1
    34    21    24    1
    35    21    22    1
    36   101   100    1
    37   100   102    1
    38   168   170    1
    39   168   167    1
    40    23    22    2
    41   164   167    1
    42   164   165    1
    43    82    85    1
    44    82    81    1
    45   166   165    2
    46   167   169    1
    47   178   176    1
    48   165   171   am
    49    85    86    1
    50    76    75    2
    51   129   130    1
    52   176   175    1
    53   176   177    1
    54   171   172    1
    55   175   172    1
    56    86    87    1
    57    87    88    1
    58   134   136    1
    59   134   133    1
    60   172   173    1
    61   197   195   ar
    62   197   196   ar
    63   106   107    2
    64   106   105    1
    65    75    74    1
    66   130   133    1
    67   130   131    1
    68   195   193   ar
    69   196   194   ar
    70   133   135    1
    71    80    78    1
    72    18    17    1
    73    74    77    1
    74    74    73    1
    75    77    78    1
    76   105   108    1
    77   105   104    1
    78   131   132    2
    79    25    26    1
    80   173   174    2
    81   173   179   am
    82    68    67    2
    83    78    79    1
    84    15    16    2
    85    15    14    1
    86   193   192   ar
    87   108   109    1
    88   194   192   ar
    89   179   180    1
    90    17    14    1
    91    17    19    1
    92    73    67   am
    93    67    66    1
    94    14    13    1
    95   192   191    1
    96    26    29    1
    97    26    27    1
    98   160   162   ar
    99   160   158   ar
   100   111   109    1
   101    29    30    1
   102   162   161   ar
   103   109   110    1
   104    28    27    2
   105   180   181    1
   106   180   183    1
   107   144   142    1
   108    66    69    1
   109    66    65    1
   110   187   181   am
   111   187   188    1
   112   181   182    2
   113   191   188    1
   114   158   157    1
   115   158   159   ar
   116   161   159   ar
   117   188   189    1
   118   157   154    1
   119    59    58    2
   120   183   184    1
   121    69    70    1
   122    30    31    1
   123    31    32    1
   124   141   142    1
   125   141   143    1
   126   141   138    1
   127   140   139    2
   128    63    62   ar
   129    72    70    1
   130   137   138    1
   131    58    57    1
   132    61    62    1
   133    61    60    1
   134    70    71    1
   135   189   190    2
   136   189   198   am
   137   154   153    1
   138   154   155    1
   139    62    64   ar
   140   139   138    1
   141   139   145   am
   142   153   147   am
   143   184   185   ar
   144   184   186   ar
   145    32    33    1
   146   198   199    1
   147    57    60    1
   148    57    56    1
   149   147   146    1
   150   147   148    2
   151   145   146    1
   152   155   156    2
   153   146   149    1
   154    48    47    2
   155    56    47   am
   156   199   200    1
   157    47    46    1
   158   149   151    1
   159   149   150    1
   160   201   200    2
   161   150   152    1
   162    55    53    1
   163    54    53    1
   164    46    45    1
   165    46    49    1
   166    53    52    2
   167    10     8   ar
   168    10    11   ar
   169    50    49    1
   170    50    51    1
   171    12    11    1
   172     8     6   ar
   173    52    51    1
   174    37    36    2
   175    11     9   ar
   176     4     3    2
   177     3     2    1
   178     6     5    1
   179     6     7   ar
   180    36    35    1
   181     9     7   ar
   182     5     2    1
   183     2     1    1
   184    35    38    1
   185    35    34    1
   186    38    39    1
   187    39    40    1
   188    40    41    1
   189    41    42    2
   190    43    42    1
   191    42    44    1
