@<TRIPOS>MOLECULE
tmp/3lfiA00.pdb
 128 123 0 0 0
SMALL
GASTEIGER

@<TRIPOS>ATOM
      1  N        103.8280   12.8120  125.1890 N.3    41  ASP41      -0.1239
      2  CA       103.2660   12.3110  123.9330 C.3    41  ASP41       0.1674
      3  C        102.4270   11.0390  124.0350 C.2    41  ASP41       0.2266
      4  O        102.8170   10.0770  124.7100 O.2    41  ASP41      -0.2867
      5  CB       104.3640   11.9580  122.9200 C.3    41  ASP41       0.1410
      6  CG       105.2340   13.1200  122.5360 C.2    41  ASP41       0.3668
      7  OD1      105.1060   14.2100  123.1230 O.co2  41  ASP41      -0.2456
      8  OD2      106.0650   12.9220  121.6280 O.co2  41  ASP41      -0.2456
      9  N        111.3630    6.7410  124.4870 N.3    99  PHE99      -0.1241
     10  CA       110.5690    7.6940  123.7080 C.3    99  PHE99       0.1605
     11  C        109.3910    6.9950  123.0400 C.2    99  PHE99       0.2264
     12  O        109.1640    5.8030  123.2710 O.2    99  PHE99      -0.2867
     13  CB       111.4310    8.3820  122.6420 C.3    99  PHE99       0.0534
     14  CG       112.3370    9.4700  123.1820 C.ar   99  PHE99      -0.0203
     15  CD1      112.3340    9.8040  124.5370 C.ar   99  PHE99      -0.0042
     16  CD2      113.1890   10.1660  122.3240 C.ar   99  PHE99      -0.0042
     17  CE1      113.1650   10.8150  125.0300 C.ar   99  PHE99      -0.0003
     18  CE2      114.0210   11.1730  122.7980 C.ar   99  PHE99      -0.0003
     19  CZ       114.0110   11.5030  124.1550 C.ar   99  PHE99      -0.0000
     20  N        121.6020   12.0060  125.9450 N.3   122  LEU122     -0.1245
     21  CA       120.8640   13.2710  125.9650 C.3   122  LEU122      0.1561
     22  C        121.9110   14.3510  126.1930 C.2   122  LEU122      0.2260
     23  O        122.9680   14.0810  126.7730 O.2   122  LEU122     -0.2867
     24  CB       119.8520   13.3110  127.1110 C.3   122  LEU122      0.0270
     25  CG       118.5760   12.4750  127.0490 C.3   122  LEU122      0.0019
     26  CD1      117.8970   12.5390  128.4220 C.3   122  LEU122      0.0001
     27  CD2      117.6350   13.0030  125.9590 C.3   122  LEU122      0.0001
     28  N        119.1150   15.8740  123.0690 N.3   124  ILE124     -0.1231
     29  CA       118.8070   15.6100  121.6750 C.3   124  ILE124      0.1692
     30  C        117.9210   16.7660  121.2490 C.2   124  ILE124      0.2592
     31  O        116.8810   17.0060  121.8590 O.2   124  ILE124     -0.2718
     32  CB       117.9950   14.3210  121.4920 C.3   124  ILE124      0.0266
     33  CG1      118.7330   13.1420  122.1240 C.3   124  ILE124      0.0019
     34  CG2      117.7510   14.0750  120.0010 C.3   124  ILE124      0.0020
     35  CD1      117.8960   11.8890  122.2020 C.3   124  ILE124      0.0001
     36  N        118.3380   17.4890  120.2150 N.am  125  HIS125     -0.1976
     37  CA       117.5590   18.6140  119.7220 C.3   125  HIS125      0.1656
     38  C        118.1290   19.0180  118.3700 C.2   125  HIS125      0.2291
     39  O        119.3440   19.0170  118.1730 O.2   125  HIS125     -0.2864
     40  CB       117.6250   19.7750  120.7170 C.3   125  HIS125      0.0771
     41  CG       116.6580   20.8780  120.4190 C.ar  125  HIS125      0.0820
     42  ND1      116.9250   21.8770  119.5080 N.ar  125  HIS125     -0.2267
     43  CD2      115.4050   21.1120  120.8760 C.ar  125  HIS125      0.1154
     44  CE1      115.8780   22.6780  119.4170 C.ar  125  HIS125      0.1986
     45  NE2      114.9410   22.2350  120.2360 N.ar  125  HIS125     -0.2212
     46  N        113.4670    9.4190  115.6790 N.3   171  ARG171     -0.1245
     47  CA       112.5780    8.8120  116.6690 C.3   171  ARG171      0.1563
     48  C        111.1070    8.7520  116.2530 C.2   171  ARG171      0.2260
     49  O        110.7260    9.1980  115.1650 O.2   171  ARG171     -0.2867
     50  CB       112.6770    9.6130  117.9780 C.3   171  ARG171      0.0307
     51  CG       112.4240   11.1180  117.7810 C.3   171  ARG171      0.0489
     52  CD       112.4320   11.9290  119.0860 C.3   171  ARG171      0.2205
     53  NE       112.2790   13.3680  118.8280 N.pl3 171  ARG171     -0.0865
     54  CZ       113.2880   14.2280  118.6710 C.cat 171  ARG171      0.5346
     55  NH1      114.5440   13.8100  118.7590 N.pl3 171  ARG171      0.1354
     56  NH2      113.0400   15.5090  118.4010 N.pl3 171  ARG171      0.1354
     57  N        108.3840   15.5450  113.8500 N.3   273  GLU273     -0.1245
     58  CA       108.1920   14.6680  114.9980 C.3   273  GLU273      0.1567
     59  C        106.8490   13.9620  114.8620 C.2   273  GLU273      0.2260
     60  O        106.0000   14.3620  114.0560 O.2   273  GLU273     -0.2867
     61  CB       108.1990   15.4650  116.3130 C.3   273  GLU273      0.0388
     62  CG       109.5260   16.1210  116.6510 C.3   273  GLU273      0.1160
     63  CD       109.5750   16.7060  118.0630 C.2   273  GLU273      0.3649
     64  OE1      108.9390   17.7510  118.3320 O.co2 273  GLU273     -0.2457
     65  OE2      110.2690   16.1160  118.9070 O.co2 273  GLU273     -0.2457
     66  N        108.7830   21.3650  114.5130 N.3   299  GLU299     -0.1245
     67  CA       109.3900   22.2660  115.4820 C.3   299  GLU299      0.1567
     68  C        109.8610   23.4930  114.7330 C.2   299  GLU299      0.2260
     69  O        110.5990   23.3770  113.7530 O.2   299  GLU299     -0.2867
     70  CB       110.5810   21.6050  116.1510 C.3   299  GLU299      0.0388
     71  CG       110.2410   20.2940  116.8090 C.3   299  GLU299      0.1160
     72  CD       111.3930   19.7650  117.6100 C.2   299  GLU299      0.3649
     73  OE1      111.9650   18.7190  117.2270 O.co2 299  GLU299     -0.2457
     74  OE2      111.7260   20.4140  118.6230 O.co2 299  GLU299     -0.2457
     75  N        112.6270   25.1260  120.9330 N.3   310  SER310     -0.1217
     76  CA       111.7680   25.1030  119.7530 C.3   310  SER310      0.1889
     77  C        110.6240   26.0250  120.1520 C.2   310  SER310      0.2288
     78  O        109.7640   25.6560  120.9480 O.2   310  SER310     -0.2866
     79  CB       111.2480   23.6830  119.4740 C.3   310  SER310      0.2089
     80  OG       112.3030   22.8240  119.0740 O.3   310  SER310     -0.2183
     81  N        105.5440   24.7600  118.0290 N.3   313  HIS313     -0.1241
     82  CA       105.2260   23.3400  117.8980 C.3   313  HIS313      0.1621
     83  C        103.8950   23.2330  117.1540 C.2   313  HIS313      0.2264
     84  O        102.8420   23.2660  117.7770 O.2   313  HIS313     -0.2867
     85  CB       105.0890   22.6730  119.2710 C.3   313  HIS313      0.0745
     86  CG       106.3540   22.6570  120.0760 C.ar  313  HIS313      0.0817
     87  ND1      106.7860   23.7390  120.8120 N.ar  313  HIS313     -0.2268
     88  CD2      107.2810   21.6860  120.2580 C.ar  313  HIS313      0.1154
     89  CE1      107.9230   23.4370  121.4110 C.ar  313  HIS313      0.1986
     90  NE2      108.2450   22.1970  121.0920 N.ar  313  HIS313     -0.2212
     91  N         99.7890   19.2820  120.2060 N.3   350  TYR350     -0.1241
     92  CA       100.9180   18.7090  119.4720 C.3   350  TYR350      0.1605
     93  C        101.0470   17.1860  119.6200 C.2   350  TYR350      0.2264
     94  O        100.2550   16.5430  120.3110 O.2   350  TYR350     -0.2867
     95  CB       102.1980   19.3770  120.0060 C.3   350  TYR350      0.0534
     96  CG       103.4670   19.1800  119.1980 C.ar  350  TYR350     -0.0201
     97  CD1      104.5220   18.4180  119.7010 C.ar  350  TYR350     -0.0009
     98  CD2      103.6410   19.8220  117.9680 C.ar  350  TYR350     -0.0009
     99  CE1      105.7280   18.3020  119.0000 C.ar  350  TYR350      0.0417
    100  CE2      104.8350   19.7180  117.2600 C.ar  350  TYR350      0.0417
    101  CZ       105.8760   18.9550  117.7810 C.ar  350  TYR350      0.1957
    102  OH       107.0540   18.8420  117.0840 O.3   350  TYR350     -0.2866
    103  N         98.0590   15.6170  121.9730 N.3   379  TRP379     -0.1241
    104  CA        98.6300   16.0140  123.2550 C.3   379  TRP379      0.1605
    105  C         98.3870   17.4850  123.5260 C.2   379  TRP379      0.2264
    106  O         98.4480   18.3130  122.6170 O.2   379  TRP379     -0.2867
    107  CB       100.1480   15.7640  123.2790 C.3   379  TRP379      0.0550
    108  CG       100.8320   16.1230  124.5900 C.ar  379  TRP379      0.0003
    109  CD1      100.3830   15.8440  125.8520 C.ar  379  TRP379      0.0946
    110  CD2      102.1370   16.7100  124.7530 C.ar  379  TRP379      0.0152
    111  NE1      101.3280   16.2070  126.7880 N.ar  379  TRP379     -0.2442
    112  CE2      102.4130   16.7410  126.1430 C.ar  379  TRP379      0.0810
    113  CE3      103.1010   17.2060  123.8610 C.ar  379  TRP379      0.0012
    114  CZ2      103.6130   17.2470  126.6630 C.ar  379  TRP379      0.0191
    115  CZ3      104.3050   17.7120  124.3820 C.ar  379  TRP379      0.0001
    116  CH2      104.5440   17.7250  125.7720 C.ar  379  TRP379      0.0015
    117  N        105.2510   23.1790  126.8190 N.3   385  TYR385     -0.1241
    118  CA       106.4190   22.3750  126.4740 C.3   385  TYR385      0.1605
    119  C        107.5960   22.6690  127.4090 C.2   385  TYR385      0.2264
    120  O        108.7530   22.7510  126.9800 O.2   385  TYR385     -0.2867
    121  CB       106.8120   22.6530  125.0200 C.3   385  TYR385      0.0534
    122  CG       105.6480   22.5710  124.0440 C.ar  385  TYR385     -0.0201
    123  CD1      105.1360   21.3370  123.6240 C.ar  385  TYR385     -0.0009
    124  CD2      105.0500   23.7320  123.5520 C.ar  385  TYR385     -0.0009
    125  CE1      104.0460   21.2700  122.7290 C.ar  385  TYR385      0.0417
    126  CE2      103.9700   23.6780  122.6720 C.ar  385  TYR385      0.0417
    127  CZ       103.4710   22.4480  122.2620 C.ar  385  TYR385      0.1957
    128  OH       102.3920   22.4170  121.3940 O.3   385  TYR385     -0.2866
@<TRIPOS>BOND
     1    69    68    2
     2    57    58    1
     3    60    59    2
     4    66    67    1
     5    68    67    1
     6    59    58    1
     7    58    61    1
     8    49    48    2
     9    67    70    1
    10    46    47    1
    11    70    71    1
    12    48    47    1
    13    61    62    1
    14    62    63    1
    15    47    50    1
    16    71    72    1
    17   102   101    1
    18    83    84    2
    19    83    82    1
    20    73    72   ar
    21   100   101   ar
    22   100    98   ar
    23    72    74   ar
    24    51    50    1
    25    51    52    1
    26   101    99   ar
    27    82    81    1
    28    82    85    1
    29    98    96   ar
    30    63    64   ar
    31    63    65   ar
    32    39    38    2
    33    38    37    1
    34    56    54    1
    35    54    55    1
    36    54    53    2
    37    53    52    1
    38    99    97   ar
    39    80    79    1
    40    96    97   ar
    41    96    95    1
    42    85    86    1
    43    44    42   ar
    44    44    45   ar
    45    92    93    1
    46    92    95    1
    47    92    91    1
    48    79    76    1
    49    42    41   ar
    50    93    94    2
    51    37    36    1
    52    37    40    1
    53    76    77    1
    54    76    75    1
    55    34    32    1
    56    86    88   ar
    57    86    87   ar
    58    77    78    2
    59    36    30   am
    60    45    43   ar
    61    88    90   ar
    62    41    40    1
    63    41    43   ar
    64    87    89   ar
    65    90    89   ar
    66    30    29    1
    67    30    31    2
    68   128   127    1
    69    32    29    1
    70    32    33    1
    71     8     6   ar
    72    29    28    1
    73   103   104    1
    74    33    35    1
    75   127   126   ar
    76   127   125   ar
    77    16    18   ar
    78    16    14   ar
    79     6     5    1
    80     6     7   ar
    81   106   105    2
    82    13    14    1
    83    13    10    1
    84   126   124   ar
    85   125   123   ar
    86    18    19   ar
    87     5     2    1
    88    11    12    2
    89    11    10    1
    90    14    15   ar
    91   104   107    1
    92   104   105    1
    93   107   108    1
    94   124   122   ar
    95   123   122   ar
    96    10     9    1
    97   113   115   ar
    98   113   110   ar
    99     2     3    1
   100     2     1    1
   101     3     4    2
   102   122   121    1
   103    19    17   ar
   104   115   116   ar
   105    15    17   ar
   106   108   110   ar
   107   108   109   ar
   108   110   112   ar
   109   121   118    1
   110   116   114   ar
   111   109   111   ar
   112    20    21    1
   113    27    25    1
   114    21    22    1
   115    21    24    1
   116   112   114   ar
   117   112   111   ar
   118    22    23    2
   119   118   117    1
   120   118   119    1
   121   120   119    2
   122    25    24    1
   123    25    26    1
