@<TRIPOS>MOLECULE
tmp/3lflC01.pdb
 98 95 0 0 0
SMALL
GASTEIGER

@<TRIPOS>ATOM
      1  N         -8.8580   24.0910   49.5970 N.3    28  CYS28      -0.1221
      2  CA        -7.7820   25.0460   49.3510 C.3    28  CYS28       0.1794
      3  C         -6.5550   24.3230   48.7820 C.2    28  CYS28       0.2443
      4  O         -5.9810   23.4590   49.4390 O.2    28  CYS28      -0.2733
      5  CB        -7.4280   25.7930   50.6480 C.3    28  CYS28       0.0970
      6  SG        -5.8560   26.7030   50.6170 S.3    28  CYS28      -0.0800
      7  N         -6.1560   24.6770   47.5500 N.am   29  PRO29      -0.2718
      8  CA        -5.0190   24.0240   46.8810 C.3    29  PRO29       0.1535
      9  C         -3.7100   24.2370   47.6380 C.2    29  PRO29       0.2598
     10  O         -2.8710   23.3420   47.6820 O.2    29  PRO29      -0.2715
     11  CB        -4.9370   24.7230   45.5230 C.3    29  PRO29       0.0310
     12  CG        -6.2620   25.4200   45.3360 C.3    29  PRO29       0.0237
     13  CD        -6.8250   25.6800   46.7030 C.3    29  PRO29       0.0939
     14  N         -3.5360   25.4160   48.2200 N.am   30  PHE30      -0.1974
     15  CA        -2.3060   25.7180   48.9470 C.3    30  PHE30       0.1639
     16  C         -2.1660   24.8840   50.2110 C.2    30  PHE30       0.2290
     17  O         -1.0640   24.4540   50.5790 O.2    30  PHE30      -0.2864
     18  CB        -2.2400   27.2020   49.2930 C.3    30  PHE30       0.0560
     19  CG        -2.1950   28.1030   48.0910 C.ar   30  PHE30      -0.0200
     20  CD1       -3.3360   28.7750   47.6650 C.ar   30  PHE30      -0.0042
     21  CD2       -1.0130   28.2760   47.3840 C.ar   30  PHE30      -0.0042
     22  CE1       -3.2930   29.6240   46.5530 C.ar   30  PHE30      -0.0003
     23  CE2       -0.9610   29.1150   46.2770 C.ar   30  PHE30      -0.0003
     24  CZ        -2.1050   29.7900   45.8540 C.ar   30  PHE30      -0.0000
     25  N         -1.1580   21.1840   49.6360 N.3    33  ARG33      -0.1245
     26  CA         0.2890   20.9320   49.6290 C.3    33  ARG33       0.1563
     27  C          0.7380   20.3780   50.9800 C.2    33  ARG33       0.2260
     28  O          1.4500   19.3720   51.0720 O.2    33  ARG33      -0.2867
     29  CB         1.0710   22.2250   49.3710 C.3    33  ARG33       0.0307
     30  CG         0.7990   22.9040   48.0380 C.3    33  ARG33       0.0489
     31  CD         1.5840   24.1850   47.9340 C.3    33  ARG33       0.2205
     32  NE         1.9290   24.5180   46.5540 N.pl3  33  ARG33      -0.0865
     33  CZ         2.3040   25.7280   46.1510 C.cat  33  ARG33       0.5346
     34  NH1        2.3930   26.7220   47.0320 N.pl3  33  ARG33       0.1354
     35  NH2        2.6020   25.9440   44.8670 N.pl3  33  ARG33       0.1354
     36  N        -13.2510   30.4900   55.8680 N.3    52  LEU52      -0.1245
     37  CA       -12.5900   31.6200   55.2210 C.3    52  LEU52       0.1561
     38  C        -13.5450   32.7910   54.9660 C.2    52  LEU52       0.2260
     39  O        -13.1020   33.9330   54.8430 O.2    52  LEU52      -0.2867
     40  CB       -11.8790   31.1740   53.9280 C.3    52  LEU52       0.0270
     41  CG       -10.7770   30.1190   54.1340 C.3    52  LEU52       0.0019
     42  CD1      -10.2400   29.5710   52.8020 C.3    52  LEU52       0.0001
     43  CD2       -9.6460   30.6920   54.9790 C.3    52  LEU52       0.0001
     44  N        -13.9740   34.4830   59.3510 N.3    55  LYS55      -0.1245
     45  CA       -12.8140   33.9900   60.0890 C.3    55  LYS55       0.1561
     46  C        -12.9030   34.2410   61.5920 C.2    55  LYS55       0.2260
     47  O        -13.4090   35.2730   62.0320 O.2    55  LYS55      -0.2867
     48  CB       -11.5180   34.5920   59.5220 C.3    55  LYS55       0.0271
     49  CG       -11.1940   34.1420   58.0870 C.3    55  LYS55       0.0035
     50  CD       -10.0400   34.9400   57.4730 C.3    55  LYS55       0.0206
     51  CE        -9.9530   34.7000   55.9610 C.3    55  LYS55       0.1093
     52  NZ        -9.0520   35.6640   55.3040 N.3    55  LYS55      -0.1314
     53  N         -4.0450   36.1140   57.6750 N.3    66  GLY66      -0.1210
     54  CA        -5.3000   35.3920   57.7120 C.3    66  GLY66       0.1956
     55  C         -5.5010   34.3860   56.5880 C.2    66  GLY66       0.2612
     56  O         -6.6260   34.1660   56.1450 O.2    66  GLY66      -0.2717
     57  N         -4.4250   33.7600   56.1280 N.am   67  LEU67      -0.1965
     58  CA        -4.5780   32.7060   55.1250 C.3    67  LEU67       0.1728
     59  C         -4.2170   31.3490   55.7140 C.2    67  LEU67       0.2616
     60  O         -3.4480   31.2520   56.6690 O.2    67  LEU67      -0.2715
     61  CB        -3.7220   32.9860   53.8800 C.3    67  LEU67       0.0311
     62  CG        -3.8240   34.4120   53.3330 C.3    67  LEU67       0.0022
     63  CD1       -2.7810   34.6760   52.2300 C.3    67  LEU67       0.0001
     64  CD2       -5.2230   34.6980   52.8030 C.3    67  LEU67       0.0001
     65  N         -4.7970   30.3060   55.1410 N.am   68  VAL68      -0.1964
     66  CA        -4.3660   28.9470   55.3980 C.3    68  VAL68       0.1712
     67  C         -3.5560   28.5010   54.1740 C.2    68  VAL68       0.2458
     68  O         -3.8080   28.9630   53.0630 O.2    68  VAL68      -0.2730
     69  CB        -5.5730   28.0200   55.5980 C.3    68  VAL68       0.0289
     70  CG1       -6.3420   28.4000   56.8820 C.3    68  VAL68       0.0023
     71  CG2       -6.4890   28.0650   54.3480 C.3    68  VAL68       0.0023
     72  N         -2.6040   27.5800   54.3620 N.am   69  PRO69      -0.2727
     73  CA        -2.3760   26.8290   55.5990 C.3    69  PRO69       0.1402
     74  C         -1.4720   27.5370   56.5940 C.2    69  PRO69       0.2269
     75  O         -0.6790   28.4180   56.2350 O.2    69  PRO69      -0.2865
     76  CB        -1.6650   25.5550   55.1080 C.3    69  PRO69       0.0296
     77  CG        -1.1340   25.9000   53.7150 C.3    69  PRO69       0.0237
     78  CD        -1.6000   27.2560   53.3320 C.3    69  PRO69       0.0939
     79  N          2.3760   30.3560   54.9310 N.3    81  GLU81      -0.1231
     80  CA         2.8400   30.1840   53.5510 C.3    81  GLU81       0.1699
     81  C          3.0930   28.7110   53.2670 C.2    81  GLU81       0.2593
     82  O          3.9790   28.1040   53.8600 O.2    81  GLU81      -0.2718
     83  CB         4.0890   31.0130   53.2500 C.3    81  GLU81       0.0402
     84  CG         3.8470   32.5150   53.2880 C.3    81  GLU81       0.1161
     85  CD         2.8500   32.9830   52.2250 C.2    81  GLU81       0.3649
     86  OE1        2.0580   33.8990   52.5260 O.co2  81  GLU81      -0.2457
     87  OE2        2.8660   32.4430   51.0960 O.co2  81  GLU81      -0.2457
     88  N          2.3090   28.1470   52.3560 N.am   82  SER82      -0.1938
     89  CA         2.3330   26.7100   52.0900 C.3    82  SER82       0.2055
     90  C          3.7330   26.1440   51.8200 C.2    82  SER82       0.2642
     91  O          4.1120   25.1260   52.4030 O.2    82  SER82      -0.2714
     92  CB         1.3610   26.3550   50.9590 C.3    82  SER82       0.2130
     93  OG         1.7170   26.9900   49.7310 O.3    82  SER82      -0.2179
     94  N          4.4980   26.8040   50.9450 N.am   83  ALA83      -0.1977
     95  CA         5.8240   26.3090   50.5610 C.3    83  ALA83       0.1597
     96  C          6.7670   26.2650   51.7580 C.2    83  ALA83       0.2287
     97  O          7.5660   25.3310   51.8950 O.2    83  ALA83      -0.2864
     98  CB         6.4300   27.1470   49.4220 C.3    83  ALA83       0.0319
@<TRIPOS>BOND
     1    35    33    1
     2    12    11    1
     3    12    13    1
     4    11     8    1
     5    24    23   ar
     6    24    22   ar
     7    33    32    2
     8    33    34    1
     9    23    21   ar
    10    22    20   ar
    11    32    31    1
    12    13     7    1
    13     8     7    1
    14     8     9    1
    15    21    19   ar
    16     7     3   am
    17     9    10    2
    18     9    14   am
    19    20    19   ar
    20    31    30    1
    21    30    29    1
    22    19    18    1
    23    14    15    1
    24     3     2    1
    25     3     4    2
    26    15    18    1
    27    15    16    1
    28     2     1    1
    29     2     5    1
    30    29    26    1
    31    98    95    1
    32    26    25    1
    33    26    27    1
    34    93    92    1
    35    16    17    2
    36    95    94    1
    37    95    96    1
    38     6     5    1
    39    94    90   am
    40    92    89    1
    41    27    28    2
    42    87    85   ar
    43    96    97    2
    44    90    89    1
    45    90    91    2
    46    89    88    1
    47    85    86   ar
    48    85    84    1
    49    63    62    1
    50    88    81   am
    51    42    41    1
    52    64    62    1
    53    68    67    2
    54    83    84    1
    55    83    80    1
    56    81    80    1
    57    81    82    2
    58    78    77    1
    59    78    72    1
    60    62    61    1
    61    80    79    1
    62    77    76    1
    63    61    58    1
    64    40    41    1
    65    40    37    1
    66    41    43    1
    67    67    72   am
    68    67    66    1
    69    71    69    1
    70    72    73    1
    71    39    38    2
    72    38    37    1
    73    76    73    1
    74    58    59    1
    75    58    57    1
    76    65    66    1
    77    65    59   am
    78    37    36    1
    79    52    51    1
    80    66    69    1
    81    69    70    1
    82    73    74    1
    83    59    60    2
    84    51    50    1
    85    57    55   am
    86    56    55    2
    87    75    74    2
    88    55    54    1
    89    50    49    1
    90    53    54    1
    91    49    48    1
    92    44    45    1
    93    48    45    1
    94    45    46    1
    95    46    47    2
