@<TRIPOS>MOLECULE
tmp/3lfmA00.pdb
 160 159 0 0 0
SMALL
GASTEIGER

@<TRIPOS>ATOM
      1  N         26.9760   -9.6800  -39.1920 N.3    60  ILE60      -0.1245
      2  CA        26.9030   -8.2410  -38.9560 C.3    60  ILE60       0.1561
      3  C         27.0920   -7.4040  -40.2160 C.2    60  ILE60       0.2260
      4  O         27.9520   -7.6910  -41.0510 O.2    60  ILE60      -0.2867
      5  CB        27.9640   -7.7780  -37.9200 C.3    60  ILE60       0.0252
      6  CG1       28.4820   -6.3780  -38.2790 C.3    60  ILE60       0.0019
      7  CG2       29.1100   -8.7600  -37.8770 C.3    60  ILE60       0.0019
      8  CD1       29.5320   -5.8280  -37.3290 C.3    60  ILE60       0.0001
      9  N         33.3190  -14.6260  -34.6210 N.3    67  THR67      -0.1204
     10  CA        33.7480  -13.7020  -33.5810 C.3    67  THR67       0.1979
     11  C         34.9860  -14.1790  -32.8280 C.2    67  THR67       0.2460
     12  O         35.0670  -15.3350  -32.4060 O.2    67  THR67      -0.2732
     13  CB        32.6100  -13.4370  -32.5780 C.3    67  THR67       0.1783
     14  OG1       32.3360  -14.6300  -31.8270 O.3    67  THR67      -0.2211
     15  CG2       31.3470  -13.0130  -33.3210 C.3    67  THR67       0.0376
     16  N         35.9780  -13.2900  -32.6640 N.am   68  PRO68      -0.2717
     17  CA        37.2340  -13.5790  -31.9640 C.3    68  PRO68       0.1535
     18  C         37.0100  -14.1550  -30.5780 C.2    68  PRO68       0.2598
     19  O         37.7280  -15.0470  -30.1380 O.2    68  PRO68      -0.2715
     20  CB        37.9100  -12.2170  -31.9010 C.3    68  PRO68       0.0310
     21  CG        37.4980  -11.6040  -33.1850 C.3    68  PRO68       0.0237
     22  CD        36.0220  -11.9500  -33.2710 C.3    68  PRO68       0.0939
     23  N         36.0000  -13.6330  -29.9000 N.am   69  VAL69      -0.1978
     24  CA        35.6650  -14.0610  -28.5490 C.3    69  VAL69       0.1596
     25  C         34.6980  -15.2420  -28.5590 C.2    69  VAL69       0.2287
     26  O         33.8370  -15.3430  -29.4330 O.2    69  VAL69      -0.2864
     27  CB        35.0060  -12.8950  -27.7560 C.3    69  VAL69       0.0276
     28  CG1       34.8020  -13.2930  -26.3070 C.3    69  VAL69       0.0022
     29  CG2       35.8710  -11.6350  -27.8570 C.3    69  VAL69       0.0022
     30  N         31.8160  -17.3790  -26.3670 N.3    71  ARG71      -0.1245
     31  CA        30.8500  -17.0530  -25.3300 C.3    71  ARG71       0.1563
     32  C         29.7950  -18.1010  -24.9890 C.2    71  ARG71       0.2260
     33  O         29.6720  -19.1220  -25.6610 O.2    71  ARG71      -0.2867
     34  CB        30.1630  -15.7230  -25.6840 C.3    71  ARG71       0.0307
     35  CG        30.0140  -15.4350  -27.1670 C.3    71  ARG71       0.0489
     36  CD        29.5660  -13.9790  -27.4090 C.3    71  ARG71       0.2205
     37  NE        30.3790  -13.0000  -26.6670 N.pl3  71  ARG71      -0.0865
     38  CZ        30.0610  -11.7130  -26.5020 C.cat  71  ARG71       0.5346
     39  NH1       28.9460  -11.2240  -27.0250 N.pl3  71  ARG71       0.1354
     40  NH2       30.8470  -10.9080  -25.7990 N.pl3  71  ARG71       0.1354
     41  N         18.6570  -13.6570  -25.6310 N.3    81  TYR81      -0.1241
     42  CA        19.3070  -12.3680  -25.8050 C.3    81  TYR81       0.1605
     43  C         19.8060  -12.2670  -27.2450 C.2    81  TYR81       0.2264
     44  O         20.6200  -13.0760  -27.6770 O.2    81  TYR81      -0.2867
     45  CB        20.4860  -12.2600  -24.8210 C.3    81  TYR81       0.0534
     46  CG        21.2390  -10.9500  -24.8750 C.ar   81  TYR81      -0.0201
     47  CD1       20.5940   -9.7550  -24.5850 C.ar   81  TYR81      -0.0009
     48  CD2       22.6060  -10.9020  -25.2210 C.ar   81  TYR81      -0.0009
     49  CE1       21.2690   -8.5370  -24.6290 C.ar   81  TYR81       0.0417
     50  CE2       23.3000   -9.6730  -25.2720 C.ar   81  TYR81       0.0417
     51  CZ        22.6100   -8.4970  -24.9710 C.ar   81  TYR81       0.1957
     52  OH        23.2180   -7.2650  -25.0120 O.3    81  TYR81      -0.2866
     53  N         21.9890  -10.7170  -30.0260 N.3    83  TYR83      -0.1227
     54  CA        23.2690  -10.0340  -30.0260 C.3    83  TYR83       0.1736
     55  C         23.9600  -10.1190  -31.3890 C.2    83  TYR83       0.2595
     56  O         24.5200  -11.1580  -31.7560 O.2    83  TYR83      -0.2718
     57  CB        24.1130  -10.6590  -28.9190 C.3    83  TYR83       0.0548
     58  CG        25.5710  -10.7110  -29.2020 C.ar   83  TYR83      -0.0200
     59  CD1       26.3190   -9.5480  -29.2680 C.ar   83  TYR83      -0.0009
     60  CD2       26.2030  -11.9260  -29.4390 C.ar   83  TYR83      -0.0009
     61  CE1       27.6640   -9.5870  -29.5660 C.ar   83  TYR83       0.0417
     62  CE2       27.5500  -11.9780  -29.7400 C.ar   83  TYR83       0.0417
     63  CZ        28.2730  -10.7980  -29.8020 C.ar   83  TYR83       0.1957
     64  OH        29.6120  -10.8210  -30.1020 O.3    83  TYR83      -0.2866
     65  N         23.9240   -9.0120  -32.1300 N.am   84  LEU84      -0.1980
     66  CA        24.5050   -8.9510  -33.4730 C.3    84  LEU84       0.1596
     67  C         23.6900   -9.8400  -34.4060 C.2    84  LEU84       0.2287
     68  O         24.2190  -10.7330  -35.0560 O.2    84  LEU84      -0.2864
     69  CB        25.9690   -9.4070  -33.4770 C.3    84  LEU84       0.0297
     70  CG        26.9830   -8.4930  -32.7840 C.3    84  LEU84       0.0022
     71  CD1       28.3710   -9.0950  -32.9250 C.3    84  LEU84       0.0001
     72  CD2       26.9370   -7.0990  -33.3920 C.3    84  LEU84       0.0001
     73  N         26.2320  -12.9870  -20.0000 N.3   141  LEU141     -0.1245
     74  CA        26.9440  -13.4680  -21.1620 C.3   141  LEU141      0.1561
     75  C         28.4010  -13.6340  -20.7450 C.2   141  LEU141      0.2260
     76  O         29.0390  -12.6810  -20.2980 O.2   141  LEU141     -0.2867
     77  CB        26.8090  -12.4390  -22.2870 C.3   141  LEU141      0.0270
     78  CG        27.3220  -12.7830  -23.6830 C.3   141  LEU141      0.0019
     79  CD1       26.7540  -14.1310  -24.1360 C.3   141  LEU141      0.0001
     80  CD2       26.8940  -11.6880  -24.6480 C.3   141  LEU141      0.0001
     81  N         40.4510   -6.7290  -27.8010 N.3   165  ALA165     -0.1231
     82  CA        39.7570   -7.9940  -28.0290 C.3   165  ALA165      0.1694
     83  C         38.2960   -7.8220  -28.4180 C.2   165  ALA165      0.2592
     84  O         37.6600   -8.7830  -28.8500 O.2   165  ALA165     -0.2718
     85  CB        39.8410   -8.8670  -26.7890 C.3   165  ALA165      0.0304
     86  N         37.7750   -6.6070  -28.2420 N.am  166  VAL166     -0.1966
     87  CA        36.3850   -6.2590  -28.5590 C.3   166  VAL166      0.1727
     88  C         36.3010   -4.7540  -28.8160 C.2   166  VAL166      0.2617
     89  O         36.4180   -3.9710  -27.8870 O.2   166  VAL166     -0.2715
     90  CB        35.4380   -6.5890  -27.3870 C.3   166  VAL166      0.0290
     91  CG1       34.0420   -6.1040  -27.7080 C.3   166  VAL166      0.0023
     92  CG2       35.4140   -8.0830  -27.1220 C.3   166  VAL166      0.0023
     93  N         36.0860   -4.3580  -30.0650 N.am  167  SER167     -0.1936
     94  CA        36.0220   -2.9440  -30.4380 C.3   167  SER167      0.2055
     95  C         34.8840   -2.1100  -29.8360 C.2   167  SER167      0.2643
     96  O         33.9220   -2.6360  -29.3000 O.2   167  SER167     -0.2714
     97  CB        35.9520   -2.8360  -31.9540 C.3   167  SER167      0.2130
     98  OG        34.9440   -3.7170  -32.4220 O.3   167  SER167     -0.2179
     99  N         35.0110   -0.7930  -29.9620 N.am  168  TRP168     -0.1959
    100  CA        34.0300    0.1560  -29.4530 C.3   168  TRP168      0.1771
    101  C         32.5900   -0.1840  -29.8180 C.2   168  TRP168      0.2620
    102  O         32.2570   -0.2870  -30.9940 O.2   168  TRP168     -0.2715
    103  CB        34.3420    1.5560  -29.9710 C.3   168  TRP168      0.0590
    104  CG        35.6410    2.1350  -29.4820 C.ar  168  TRP168      0.0006
    105  CD1       36.7230    2.4760  -30.2440 C.ar  168  TRP168      0.0946
    106  CD2       35.9840    2.4750  -28.1280 C.ar  168  TRP168      0.0152
    107  NE1       37.7140    3.0060  -29.4520 N.ar  168  TRP168     -0.2442
    108  CE2       37.2920    3.0130  -28.1500 C.ar  168  TRP168      0.0810
    109  CE3       35.3110    2.3770  -26.8980 C.ar  168  TRP168      0.0012
    110  CZ2       37.9450    3.4500  -26.9900 C.ar  168  TRP168      0.0191
    111  CZ3       35.9610    2.8170  -25.7430 C.ar  168  TRP168      0.0001
    112  CH2       37.2630    3.3440  -25.7980 C.ar  168  TRP168      0.0015
    113  N         31.7350   -0.3360  -28.8060 N.am  169  HIS169     -0.1959
    114  CA        30.3240   -0.6380  -29.0320 C.3   169  HIS169      0.1787
    115  C         29.4680   -0.2580  -27.8110 C.2   169  HIS169      0.2620
    116  O         29.9760    0.2770  -26.8340 O.2   169  HIS169     -0.2715
    117  CB        30.1590   -2.1280  -29.3030 C.3   169  HIS169      0.0785
    118  CG        30.3900   -2.9840  -28.0960 C.ar  169  HIS169      0.0821
    119  ND1       31.6370   -3.1600  -27.5340 N.ar  169  HIS169     -0.2267
    120  CD2       29.5320   -3.6930  -27.3270 C.ar  169  HIS169      0.1154
    121  CE1       31.5390   -3.9450  -26.4750 C.ar  169  HIS169      0.1986
    122  NE2       30.2710   -4.2820  -26.3270 N.ar  169  HIS169     -0.2212
    123  N         28.1720   -0.5480  -27.8840 N.am  170  HIS170     -0.1959
    124  CA        27.2100   -0.3160  -26.7990 C.3   170  HIS170      0.1787
    125  C         26.5910   -1.6860  -26.5280 C.2   170  HIS170      0.2620
    126  O         26.4640   -2.4790  -27.4590 O.2   170  HIS170     -0.2715
    127  CB        26.0560    0.5670  -27.2550 C.3   170  HIS170      0.0785
    128  CG        26.3830    2.0190  -27.3860 C.ar  170  HIS170      0.0821
    129  ND1       26.7470    2.8040  -26.3100 N.ar  170  HIS170     -0.2267
    130  CD2       26.3310    2.8470  -28.4540 C.ar  170  HIS170      0.1154
    131  CE1       26.9010    4.0550  -26.7120 C.ar  170  HIS170      0.1986
    132  NE2       26.6560    4.1040  -28.0090 N.ar  170  HIS170     -0.2212
    133  N         26.2190   -1.9950  -25.2890 N.am  171  ASP171     -0.1957
    134  CA        25.5540   -3.2730  -25.0480 C.3   171  ASP171      0.1840
    135  C         24.1190   -2.9670  -25.4260 C.2   171  ASP171      0.2621
    136  O         23.4880   -2.0960  -24.8270 O.2   171  ASP171     -0.2715
    137  CB        25.5990   -3.6950  -23.5820 C.3   171  ASP171      0.1450
    138  CG        26.9340   -4.2560  -23.1770 C.2   171  ASP171      0.3671
    139  OD1       27.6490   -4.7890  -24.0460 O.co2 171  ASP171     -0.2456
    140  OD2       27.2680   -4.1820  -21.9830 O.co2 171  ASP171     -0.2456
    141  N         23.6030   -3.6670  -26.4280 N.am  172  GLU172     -0.1977
    142  CA        22.2500   -3.4080  -26.8860 C.3   172  GLU172      0.1602
    143  C         21.2030   -4.4150  -26.4350 C.2   172  GLU172      0.2287
    144  O         21.5180   -5.4070  -25.7810 O.2   172  GLU172     -0.2864
    145  CB        22.2520   -3.2920  -28.4150 C.3   172  GLU172      0.0415
    146  CG        22.9760   -4.4220  -29.1340 C.3   172  GLU172      0.1163
    147  CD        23.1100   -4.1840  -30.6510 C.2   172  GLU172      0.3649
    148  OE1       23.6050   -3.0980  -31.0470 O.co2 172  GLU172     -0.2457
    149  OE2       22.7280   -5.0860  -31.4430 O.co2 172  GLU172     -0.2457
    150  N         23.3680   -8.6940  -17.3720 N.3   247  ARG247     -0.1245
    151  CA        22.5260   -7.6460  -17.9390 C.3   247  ARG247      0.1563
    152  C         21.0450   -7.8830  -17.6570 C.2   247  ARG247      0.2260
    153  O         20.6480   -8.9510  -17.2020 O.2   247  ARG247     -0.2867
    154  CB        22.6730   -7.6020  -19.4580 C.3   247  ARG247      0.0307
    155  CG        24.0360   -7.8840  -20.0350 C.3   247  ARG247      0.0489
    156  CD        23.8250   -8.2020  -21.5070 C.3   247  ARG247      0.2205
    157  NE        24.9690   -7.8850  -22.3510 N.pl3 247  ARG247     -0.0865
    158  CZ        26.1340   -8.4710  -22.2090 C.cat 247  ARG247      0.5346
    159  NH1       26.2640   -9.3750  -21.2610 N.pl3 247  ARG247      0.1354
    160  NH2       27.1450   -8.1720  -23.0040 N.pl3 247  ARG247      0.1354
@<TRIPOS>BOND
     1     4     3    2
     2     3     2    1
     3     1     2    1
     4     2     5    1
     5     6     5    1
     6     6     8    1
     7     5     7    1
     8    68    67    2
     9     9    10    1
    10    67    66    1
    11    10    11    1
    12    10    13    1
    13    69    66    1
    14    69    70    1
    15    66    65    1
    16    72    70    1
    17    15    13    1
    18    22    21    1
    19    22    16    1
    20    21    20    1
    21    71    70    1
    22    11    16   am
    23    11    12    2
    24    16    17    1
    25    13    14    1
    26    98    97    1
    27    65    55   am
    28    17    20    1
    29    17    18    1
    30    97    94    1
    31    56    55    2
    32   149   147   ar
    33    55    54    1
    34   148   147   ar
    35   102   101    2
    36   147   146    1
    37    18    19    2
    38    18    23   am
    39    94    93    1
    40    94    95    1
    41   105   104   ar
    42   105   107   ar
    43    64    63    1
    44    93    88   am
    45    53    54    1
    46    54    57    1
    47   103   104    1
    48   103   100    1
    49    99    95   am
    50    99   100    1
    51    23    24    1
    52    95    96    2
    53   101   100    1
    54   101   113   am
    55    63    62   ar
    56    63    61   ar
    57    62    60   ar
    58    61    59   ar
    59   104   106   ar
    60   107   108   ar
    61    60    58   ar
    62    26    25    2
    63   117   114    1
    64   117   118    1
    65    59    58   ar
    66    58    57    1
    67   146   145    1
    68   114   113    1
    69   114   115    1
    70    84    83    2
    71    88    87    1
    72    88    89    2
    73    25    24    1
    74    87    86    1
    75    87    90    1
    76    24    27    1
    77   130   132   ar
    78   130   128   ar
    79    83    86   am
    80    83    82    1
    81   145   142    1
    82   108   106   ar
    83   108   110   ar
    84   106   109   ar
    85   118   119   ar
    86   118   120   ar
    87    82    81    1
    88    82    85    1
    89   132   131   ar
    90   123   115   am
    91   123   124    1
    92    29    27    1
    93   115   116    2
    94    27    28    1
    95    91    90    1
    96    44    43    2
    97   119   121   ar
    98   126   125    2
    99    36    35    1
   100    36    37    1
   101    90    92    1
   102   128   127    1
   103   128   129   ar
   104   120   122   ar
   105   127   124    1
   106    43    42    1
   107    35    34    1
   108    39    38    1
   109   110   112   ar
   110   109   111   ar
   111   142   143    1
   112   142   141    1
   113   124   125    1
   114   131   129   ar
   115    37    38    2
   116   125   133   am
   117    38    40    1
   118   121   122   ar
   119   143   144    2
   120   141   135   am
   121    30    31    1
   122    42    41    1
   123    42    45    1
   124   112   111   ar
   125    34    31    1
   126    33    32    2
   127   135   134    1
   128   135   136    2
   129    31    32    1
   130   133   134    1
   131    50    48   ar
   132    50    51   ar
   133    48    46   ar
   134   134   137    1
   135    52    51    1
   136    51    49   ar
   137    46    45    1
   138    46    47   ar
   139    80    78    1
   140    49    47   ar
   141    79    78    1
   142   139   138   ar
   143    78    77    1
   144   137   138    1
   145   138   140   ar
   146   160   158    1
   147   157   158    2
   148   157   156    1
   149    77    74    1
   150   158   159    1
   151   156   155    1
   152    74    75    1
   153    74    73    1
   154    75    76    2
   155   155   154    1
   156   154   151    1
   157   151   152    1
   158   151   150    1
   159   152   153    2
