@<TRIPOS>MOLECULE
tmp/3lfnA00.pdb
 201 193 0 0 0
SMALL
GASTEIGER

@<TRIPOS>ATOM
      1  N         39.2940  -20.3350   29.3720 N.3     8  GLU8       -0.1245
      2  CA        39.7270  -19.4290   30.4440 C.3     8  GLU8        0.1567
      3  C         39.0720  -18.0520   30.2970 C.2     8  GLU8        0.2260
      4  O         38.5340  -17.7410   29.2350 O.2     8  GLU8       -0.2867
      5  CB        41.2750  -19.3060   30.5270 C.3     8  GLU8        0.0388
      6  CG        41.9710  -18.8540   29.2520 C.3     8  GLU8        0.1160
      7  CD        43.4770  -18.7330   29.3620 C.2     8  GLU8        0.3649
      8  OE1       43.9490  -17.8060   30.0580 O.co2   8  GLU8       -0.2457
      9  OE2       44.1880  -19.5490   28.7330 O.co2   8  GLU8       -0.2457
     10  N         39.5080  -14.2620   29.7510 N.3    10  ILE10      -0.1231
     11  CA        40.4260  -13.2600   29.1720 C.3    10  ILE10       0.1692
     12  C         40.4900  -12.0140   30.0660 C.2    10  ILE10       0.2593
     13  O         41.5720  -11.4760   30.3120 O.2    10  ILE10      -0.2718
     14  CB        40.0170  -12.9190   27.6980 C.3    10  ILE10       0.0266
     15  CG1       40.5550  -13.9710   26.7070 C.3    10  ILE10       0.0019
     16  CG2       40.4130  -11.4770   27.2710 C.3    10  ILE10       0.0020
     17  CD1       40.0260  -13.8180   25.2680 C.3    10  ILE10       0.0001
     18  N         39.3230  -11.5790   30.5260 N.am   11  GLY11      -0.1942
     19  CA        39.1750  -10.4070   31.3740 C.3    11  GLY11       0.2014
     20  C         37.7380   -9.9590   31.4960 C.2    11  GLY11       0.2639
     21  O         36.8250  -10.6380   31.0170 O.2    11  GLY11      -0.2714
     22  N         37.5350   -8.8050   32.1360 N.am   12  GLU12      -0.1963
     23  CA        36.2070   -8.2390   32.3530 C.3    12  GLU12       0.1733
     24  C         36.0820   -6.9450   31.5470 C.2    12  GLU12       0.2617
     25  O         36.6990   -5.9370   31.8930 O.2    12  GLU12      -0.2715
     26  CB        35.9250   -8.0080   33.8650 C.3    12  GLU12       0.0429
     27  CG        36.5050   -9.0410   34.8340 C.3    12  GLU12       0.1163
     28  CD        35.9370  -10.4500   34.7900 C.2    12  GLU12       0.3649
     29  OE1       36.6750  -11.3780   34.3850 O.co2  12  GLU12      -0.2457
     30  OE2       34.7620  -10.6320   35.1850 O.co2  12  GLU12      -0.2457
     31  N         35.3210   -7.0080   30.4550 N.am   13  GLY13      -0.1940
     32  CA        35.0890   -5.8780   29.5620 C.3    13  GLY13       0.2014
     33  C         34.0780   -4.8810   30.0920 C.2    13  GLY13       0.2639
     34  O         33.6050   -5.0130   31.2260 O.2    13  GLY13      -0.2714
     35  N         33.7320   -3.8730   29.2650 N.am   14  THR14      -0.1950
     36  CA        32.7690   -2.8220   29.6340 C.3    14  THR14       0.1897
     37  C         31.3240   -3.3520   29.6310 C.2    14  THR14       0.2313
     38  O         30.5370   -2.9890   30.5120 O.2    14  THR14      -0.2863
     39  CB        32.9280   -1.5700   28.7440 C.3    14  THR14       0.1794
     40  OG1       34.2720   -1.4660   28.2670 O.3    14  THR14      -0.2208
     41  CG2       32.5440   -0.2830   29.4690 C.3    14  THR14       0.0378
     42  N         34.6670  -11.3280   29.1240 N.3    18  VAL18      -0.1245
     43  CA        35.3350  -11.7710   27.8860 C.3    18  VAL18       0.1561
     44  C         36.0890  -13.0740   28.1790 C.2    18  VAL18       0.2260
     45  O         36.8670  -13.1300   29.1290 O.2    18  VAL18      -0.2867
     46  CB        36.2610  -10.6910   27.2700 C.3    18  VAL18       0.0252
     47  CG1       36.7340  -11.1080   25.8750 C.3    18  VAL18       0.0019
     48  CG2       35.5680   -9.3300   27.2090 C.3    18  VAL18       0.0019
     49  N         37.7910  -14.9750   21.0260 N.3    31  ALA31      -0.1245
     50  CA        37.4850  -14.1830   22.2070 C.3    31  ALA31       0.1562
     51  C         35.9450  -14.0330   22.2210 C.2    31  ALA31       0.2260
     52  O         35.3710  -13.4650   21.2850 O.2    31  ALA31      -0.2867
     53  CB        38.1640  -12.8270   22.1290 C.3    31  ALA31       0.0290
     54  N         32.5450  -12.5980   24.0110 N.3    33  LYS33      -0.1245
     55  CA        32.0310  -11.5840   24.9270 C.3    33  LYS33       0.1561
     56  C         30.5370  -11.7780   25.2410 C.2    33  LYS33       0.2260
     57  O         29.6960  -11.5840   24.3660 O.2    33  LYS33      -0.2867
     58  CB        32.3360  -10.1540   24.4150 C.3    33  LYS33       0.0271
     59  CG        31.8570   -9.0510   25.3600 C.3    33  LYS33       0.0035
     60  CD        32.4290   -7.6920   25.0410 C.3    33  LYS33       0.0206
     61  CE        32.2340   -6.7410   26.2020 C.3    33  LYS33       0.1093
     62  NZ        33.1900   -5.6010   26.1680 N.3    33  LYS33      -0.1314
     63  N         40.1630   -5.2400   15.7720 N.3    60  VAL60      -0.1245
     64  CA        39.9110   -6.6340   16.1700 C.3    60  VAL60       0.1561
     65  C         38.6510   -7.0720   15.4490 C.2    60  VAL60       0.2260
     66  O         37.6180   -6.3970   15.5460 O.2    60  VAL60      -0.2867
     67  CB        39.8380   -6.8210   17.7140 C.3    60  VAL60       0.0252
     68  CG1       39.3970   -8.2260   18.1030 C.3    60  VAL60       0.0019
     69  CG2       41.1900   -6.5050   18.3540 C.3    60  VAL60       0.0019
     70  N         34.9000  -12.5980   18.7900 N.3    76  PHE76      -0.1227
     71  CA        36.0070  -11.8110   18.2310 C.3    76  PHE76       0.1736
     72  C         37.2160  -12.6530   17.8990 C.2    76  PHE76       0.2595
     73  O         37.3910  -13.7160   18.5020 O.2    76  PHE76      -0.2718
     74  CB        36.4370  -10.7050   19.2250 C.3    76  PHE76       0.0547
     75  CG        35.4700   -9.5590   19.2980 C.ar   76  PHE76      -0.0202
     76  CD1       35.5030   -8.5370   18.3530 C.ar   76  PHE76      -0.0042
     77  CD2       34.4900   -9.5180   20.2810 C.ar   76  PHE76      -0.0042
     78  CE1       34.5670   -7.5040   18.3880 C.ar   76  PHE76      -0.0003
     79  CE2       33.5710   -8.4660   20.3310 C.ar   76  PHE76      -0.0003
     80  CZ        33.6000   -7.4820   19.3710 C.ar   76  PHE76      -0.0000
     81  N         38.1090  -12.1380   17.0100 N.am   77  GLU77      -0.1965
     82  CA        39.3790  -12.8330   16.7400 C.3    77  GLU77       0.1733
     83  C         40.2150  -12.7340   18.0260 C.2    77  GLU77       0.2616
     84  O         40.1710  -11.7130   18.7160 O.2    77  GLU77      -0.2715
     85  CB        40.1620  -12.2430   15.5370 C.3    77  GLU77       0.0429
     86  CG        40.9110  -10.9500   15.8400 C.3    77  GLU77       0.1163
     87  CD        41.7700  -10.3620   14.7400 C.2    77  GLU77       0.3649
     88  OE1       42.9270  -10.8050   14.5800 O.co2  77  GLU77      -0.2457
     89  OE2       41.3030   -9.4180   14.0680 O.co2  77  GLU77      -0.2457
     90  N         40.9290  -13.7950   18.3560 N.am   78  PHE78      -0.1960
     91  CA        41.7540  -13.8210   19.5470 C.3    78  PHE78       0.1771
     92  C         43.1820  -13.3170   19.2510 C.2    78  PHE78       0.2619
     93  O         43.7950  -13.7110   18.2550 O.2    78  PHE78      -0.2715
     94  CB        41.7520  -15.2380   20.1500 C.3    78  PHE78       0.0574
     95  CG        42.6620  -15.3970   21.3370 C.ar   78  PHE78      -0.0200
     96  CD1       42.2140  -15.1030   22.6200 C.ar   78  PHE78      -0.0042
     97  CD2       43.9800  -15.8080   21.1720 C.ar   78  PHE78      -0.0042
     98  CE1       43.0770  -15.1930   23.7170 C.ar   78  PHE78      -0.0003
     99  CE2       44.8360  -15.9210   22.2680 C.ar   78  PHE78      -0.0003
    100  CZ        44.3800  -15.6170   23.5350 C.ar   78  PHE78      -0.0000
    101  N         43.6960  -12.4400   20.1310 N.am   79  LEU79      -0.1963
    102  CA        45.0610  -11.8940   20.1140 C.3    79  LEU79       0.1728
    103  C         45.7000  -12.2370   21.4510 C.2    79  LEU79       0.2616
    104  O         45.0360  -12.1410   22.4840 O.2    79  LEU79      -0.2715
    105  CB        45.0710  -10.3840   19.8530 C.3    79  LEU79       0.0311
    106  CG        45.0350   -9.9790   18.3960 C.3    79  LEU79       0.0022
    107  CD1       43.6370   -9.6540   17.9600 C.3    79  LEU79       0.0001
    108  CD2       45.8890   -8.7660   18.1640 C.3    79  LEU79       0.0001
    109  N         46.9750  -12.6450   21.4430 N.am   80  HIS80      -0.1959
    110  CA        47.6830  -13.1170   22.6460 C.3    80  HIS80       0.1787
    111  C         48.0200  -12.1360   23.7720 C.2    80  HIS80       0.2620
    112  O         48.1220  -12.5670   24.9320 O.2    80  HIS80      -0.2715
    113  CB        48.8880  -13.9780   22.2740 C.3    80  HIS80       0.0785
    114  CG        48.5090  -15.3120   21.7130 C.ar   80  HIS80       0.0821
    115  ND1       48.0430  -15.4470   20.4120 N.ar   80  HIS80      -0.2267
    116  CD2       48.5490  -16.5330   22.2940 C.ar   80  HIS80       0.1154
    117  CE1       47.7960  -16.7350   20.2560 C.ar   80  HIS80       0.1986
    118  NE2       48.1080  -17.4310   21.3540 N.ar   80  HIS80      -0.2212
    119  N         48.2090  -10.8450   23.4670 N.am   81  GLN81      -0.1963
    120  CA        48.5450   -9.9040   24.5330 C.3    81  GLN81       0.1733
    121  C         47.8940   -8.5440   24.3700 C.2    81  GLN81       0.2616
    122  O         47.7100   -8.0780   23.2520 O.2    81  GLN81      -0.2715
    123  CB        50.0790   -9.7570   24.6530 C.3    81  GLN81       0.0408
    124  CG        50.5710   -9.2980   26.0310 C.3    81  GLN81       0.0908
    125  CD        52.0220   -9.6620   26.2800 C.2    81  GLN81       0.2608
    126  OE1       52.8730   -8.7940   26.5150 O.2    81  GLN81      -0.2717
    127  NE2       52.3380  -10.9620   26.2590 N.am   81  GLN81      -0.0878
    128  N         47.5770   -7.8910   25.4940 N.am   82  ASP82      -0.1971
    129  CA        47.0830   -6.5130   25.4720 C.3    82  ASP82       0.1709
    130  C         48.2500   -5.5690   25.8230 C.2    82  ASP82       0.2293
    131  O         49.2390   -5.9990   26.4520 O.2    82  ASP82      -0.2864
    132  CB        45.8530   -6.3180   26.3590 C.3    82  ASP82       0.1436
    133  CG        46.0900   -6.5470   27.8290 C.2    82  ASP82       0.3671
    134  OD1       46.5570   -5.6220   28.4950 O.co2  82  ASP82      -0.2456
    135  OD2       45.7890   -7.6490   28.3120 O.co2  82  ASP82      -0.2456
    136  N         42.0810    2.7400   25.4250 N.3   125  LYS125     -0.1245
    137  CA        42.9680    2.5050   26.5840 C.3   125  LYS125      0.1561
    138  C         43.9100    1.3140   26.3600 C.2   125  LYS125      0.2260
    139  O         43.5760    0.4640   25.5370 O.2   125  LYS125     -0.2867
    140  CB        42.2050    2.4070   27.9350 C.3   125  LYS125      0.0271
    141  CG        41.1920    1.2820   28.0560 C.3   125  LYS125      0.0035
    142  CD        40.1710    1.6460   29.1150 C.3   125  LYS125      0.0206
    143  CE        39.0770    0.6290   29.2790 C.3   125  LYS125      0.1093
    144  NZ        38.0350    1.1060   30.2320 N.3   125  LYS125     -0.1314
    145  N         44.3990   -1.4410   27.8290 N.3   127  GLN127     -0.1231
    146  CA        43.5100   -2.5740   28.1070 C.3   127  GLN127      0.1698
    147  C         42.7830   -3.1010   26.8430 C.2   127  GLN127      0.2592
    148  O         42.6890   -4.3100   26.6570 O.2   127  GLN127     -0.2718
    149  CB        42.4470   -2.1630   29.1470 C.3   127  GLN127      0.0381
    150  CG        43.0030   -1.9210   30.5430 C.3   127  GLN127      0.0905
    151  CD        43.1150   -0.4510   30.8530 C.2   127  GLN127      0.2608
    152  OE1       44.0160    0.2490   30.3630 O.2   127  GLN127     -0.2717
    153  NE2       42.1980    0.0440   31.6870 N.am  127  GLN127     -0.0878
    154  N         42.2910   -2.1990   25.9890 N.am  128  ASN128     -0.1974
    155  CA        41.5790   -2.5780   24.7630 C.3   128  ASN128      0.1688
    156  C         42.3950   -2.4210   23.4800 C.2   128  ASN128      0.2292
    157  O         41.8490   -2.2890   22.3890 O.2   128  ASN128     -0.2864
    158  CB        40.1760   -1.9380   24.6840 C.3   128  ASN128      0.1181
    159  CG        40.1160   -0.4440   24.7370 C.2   128  ASN128      0.2629
    160  OD1       40.9650    0.2660   24.1870 O.2   128  ASN128     -0.2716
    161  ND2       39.0290    0.0600   25.3140 N.am  128  ASN128     -0.0877
    162  N         45.2040   -4.4950   21.4440 N.3   130  LEU130     -0.1245
    163  CA        45.7120   -5.8670   21.3700 C.3   130  LEU130      0.1561
    164  C         46.8400   -6.0770   20.3830 C.2   130  LEU130      0.2260
    165  O         46.8260   -5.5190   19.2890 O.2   130  LEU130     -0.2867
    166  CB        44.5600   -6.8410   21.1160 C.3   130  LEU130      0.0270
    167  CG        43.4220   -6.8200   22.1290 C.3   130  LEU130      0.0019
    168  CD1       42.2100   -7.3990   21.5350 C.3   130  LEU130      0.0001
    169  CD2       43.7760   -7.5880   23.3900 C.3   130  LEU130      0.0001
    170  N         40.1320   -2.6860   19.9460 N.3   140  ALA140     -0.1231
    171  CA        39.0790   -3.5800   20.4450 C.3   140  ALA140      0.1694
    172  C         38.1040   -2.7480   21.2940 C.2   140  ALA140      0.2592
    173  O         38.4770   -1.6690   21.7420 O.2   140  ALA140     -0.2718
    174  CB        39.6870   -4.6920   21.2740 C.3   140  ALA140      0.0304
    175  N         36.8660   -3.2480   21.5170 N.am  141  ASP141     -0.1960
    176  CA        35.7790   -2.5890   22.2730 C.3   141  ASP141      0.1840
    177  C         35.0870   -1.4780   21.4560 C.2   141  ASP141      0.2622
    178  O         34.2670   -0.7330   21.9880 O.2   141  ASP141     -0.2715
    179  CB        36.2320   -2.1200   23.6710 C.3   141  ASP141      0.1450
    180  CG        35.5960   -2.9020   24.7970 C.2   141  ASP141      0.3671
    181  OD1       36.1070   -3.9890   25.1250 O.co2 141  ASP141     -0.2456
    182  OD2       34.5750   -2.4330   25.3400 O.co2 141  ASP141     -0.2456
    183  N         35.3970   -1.4180   20.1400 N.am  142  PHE142     -0.1974
    184  CA        34.8760   -0.4560   19.1630 C.3   142  PHE142      0.1639
    185  C         33.3690   -0.5260   18.9170 C.2   142  PHE142      0.2290
    186  O         32.8000   -1.6170   18.8750 O.2   142  PHE142     -0.2864
    187  CB        35.5960   -0.6260   17.8200 C.3   142  PHE142      0.0560
    188  CG        36.1910    0.6760   17.3860 C.ar  142  PHE142     -0.0200
    189  CD1       35.3790    1.7500   17.0490 C.ar  142  PHE142     -0.0042
    190  CD2       37.5630    0.8620   17.3940 C.ar  142  PHE142     -0.0042
    191  CE1       35.9310    2.9830   16.7090 C.ar  142  PHE142     -0.0003
    192  CE2       38.1180    2.0990   17.0690 C.ar  142  PHE142     -0.0003
    193  CZ        37.2980    3.1550   16.7370 C.ar  142  PHE142     -0.0000
    194  N         30.8760   -0.4170   20.5010 N.3   144  LEU144     -0.1245
    195  CA        30.1490   -1.0010   21.6300 C.3   144  LEU144      0.1561
    196  C         29.5500    0.0730   22.5320 C.2   144  LEU144      0.2260
    197  O         28.4440   -0.1130   23.0410 O.2   144  LEU144     -0.2867
    198  CB        31.1090   -1.8830   22.4480 C.3   144  LEU144      0.0270
    199  CG        30.8480   -3.3840   22.4350 C.3   144  LEU144      0.0019
    200  CD1       31.1720   -4.0000   21.0770 C.3   144  LEU144      0.0001
    201  CD2       31.6430   -4.0650   23.5210 C.3   144  LEU144      0.0001
@<TRIPOS>BOND
     1    89    87   ar
     2    88    87   ar
     3    87    86    1
     4    65    66    2
     5    65    64    1
     6    85    86    1
     7    85    82    1
     8    63    64    1
     9    64    67    1
    10   191   193   ar
    11   191   189   ar
    12   193   192   ar
    13    82    81    1
    14    82    83    1
    15    81    72   am
    16   189   188   ar
    17   192   190   ar
    18   188   190   ar
    19   188   187    1
    20    67    68    1
    21    67    69    1
    22   187   184    1
    23    72    71    1
    24    72    73    2
    25   107   106    1
    26    83    90   am
    27    83    84    2
    28   108   106    1
    29    71    70    1
    30    71    74    1
    31    93    92    2
    32    76    78   ar
    33    76    75   ar
    34    90    91    1
    35    78    80   ar
    36   106   105    1
    37   186   185    2
    38   185   184    1
    39   184   183    1
    40    74    75    1
    41    92    91    1
    42    92   101   am
    43   165   164    2
    44    75    77   ar
    45    80    79   ar
    46    91    94    1
    47   105   102    1
    48   170   171    1
    49   102   101    1
    50   102   103    1
    51   183   177   am
    52    94    95    1
    53   117   115   ar
    54   117   118   ar
    55    77    79   ar
    56   164   163    1
    57   115   114   ar
    58   171   174    1
    59   171   172    1
    60   194   195    1
    61    49    50    1
    62   200   199    1
    63   166   163    1
    64   166   167    1
    65    97    95   ar
    66    97    99   ar
    67    52    51    2
    68   172   175   am
    69   172   173    2
    70    95    96   ar
    71   118   116   ar
    72   163   162    1
    73   109   103   am
    74   109   110    1
    75   103   104    2
    76   177   178    2
    77   177   176    1
    78   175   176    1
    79   168   167    1
    80   195   198    1
    81   195   196    1
    82   114   113    1
    83   114   116   ar
    84   167   169    1
    85    53    50    1
    86    50    51    1
    87    99   100   ar
    88   176   179    1
    89   113   110    1
    90   157   156    2
    91   199   198    1
    92   199   201    1
    93   196   197    2
    94    96    98   ar
    95   110   111    1
    96   122   121    2
    97   119   111   am
    98   119   120    1
    99   156   155    1
   100   100    98   ar
   101   179   180    1
   102   111   112    2
   103    54    55    1
   104   160   159    2
   105    57    56    2
   106   121   120    1
   107   121   128   am
   108    58    55    1
   109    58    59    1
   110   120   123    1
   111   123   124    1
   112   158   159    1
   113   158   155    1
   114   159   161   am
   115   155   154    1
   116   180   181   ar
   117   180   182   ar
   118    55    56    1
   119    60    59    1
   120    60    61    1
   121    17    15    1
   122   136   137    1
   123   129   128    1
   124   129   130    1
   125   129   132    1
   126   139   138    2
   127   130   131    2
   128    47    46    1
   129   154   147   am
   130   124   125    1
   131    62    61    1
   132   127   125   am
   133   125   126    2
   134   132   133    1
   135   138   137    1
   136   137   140    1
   137   148   147    2
   138    15    14    1
   139   147   146    1
   140    48    46    1
   141    46    43    1
   142    16    14    1
   143    14    11    1
   144   145   146    1
   145   133   135   ar
   146   133   134   ar
   147    43    44    1
   148    43    42    1
   149   140   141    1
   150   141   142    1
   151   146   149    1
   152    44    45    2
   153    40    39    1
   154     9     7   ar
   155    39    41    1
   156    39    36    1
   157   142   143    1
   158   149   150    1
   159    11    10    1
   160    11    12    1
   161     4     3    2
   162     6     7    1
   163     6     5    1
   164    35    36    1
   165    35    33   am
   166   143   144    1
   167     7     8   ar
   168     1     2    1
   169    32    33    1
   170    32    31    1
   171    37    36    1
   172    37    38    2
   173    12    13    2
   174    12    18   am
   175    33    34    2
   176     3     2    1
   177   152   151    2
   178     2     5    1
   179    31    24   am
   180    18    19    1
   181   150   151    1
   182   151   153   am
   183    21    20    2
   184    19    20    1
   185    20    22   am
   186    24    25    2
   187    24    23    1
   188    22    23    1
   189    23    26    1
   190    26    27    1
   191    29    28   ar
   192    28    27    1
   193    28    30   ar
