@<TRIPOS>MOLECULE
tmp/3lfqA00.pdb
 182 174 0 0 0
SMALL
GASTEIGER

@<TRIPOS>ATOM
      1  N         40.3410  -15.6360   30.6280 N.3    10  ILE10      -0.1231
      2  CA        41.4860  -14.7720   30.3490 C.3    10  ILE10       0.1696
      3  C         41.4040  -13.3580   30.9300 C.2    10  ILE10       0.2632
      4  O         42.4370  -12.7150   31.0950 O.2    10  ILE10      -0.2714
      5  CB        42.0180  -14.8510   28.8930 C.3    10  ILE10       0.0266
      6  CG1       40.9130  -14.5520   27.8560 C.3    10  ILE10       0.0019
      7  CG2       42.7070  -16.2170   28.6610 C.3    10  ILE10       0.0020
      8  CD1       41.3480  -14.4870   26.3920 C.3    10  ILE10       0.0001
      9  N         40.2030  -12.9030   31.2740 N.am   11  GLY11      -0.1718
     10  CA        40.0210  -11.5680   31.8330 C.2    11  GLY11       0.1480
     11  C         38.5930  -11.1280   32.0570 C.2    11  GLY11       0.2820
     12  O         37.6470  -11.9040   31.8900 O.2    11  GLY11      -0.2669
     13  N         38.4440   -9.8650   32.4700 N.am   12  GLU12      -0.1929
     14  CA        37.1670   -9.2360   32.7810 C.3    12  GLU12       0.1736
     15  C         37.0770   -7.9150   32.0380 C.2    12  GLU12       0.2617
     16  O         37.8790   -7.0080   32.2770 O.2    12  GLU12      -0.2715
     17  CB        37.0230   -9.0410   34.3040 C.3    12  GLU12       0.0429
     18  CG        37.1760  -10.3320   35.0980 C.3    12  GLU12       0.1163
     19  CD        37.1290  -10.2360   36.6120 C.2    12  GLU12       0.3649
     20  OE1       37.5080   -9.1800   37.1680 O.co2  12  GLU12      -0.2457
     21  OE2       36.7530  -11.2470   37.2450 O.co2  12  GLU12      -0.2457
     22  N         36.1360   -7.8410   31.0980 N.am   13  GLY13      -0.1940
     23  CA        35.9360   -6.6430   30.2950 C.3    13  GLY13       0.2014
     24  C         35.1210   -5.6090   31.0360 C.2    13  GLY13       0.2639
     25  O         34.8820   -5.7420   32.2450 O.2    13  GLY13      -0.2714
     26  N         34.6950   -4.5620   30.3130 N.am   14  THR14      -0.1950
     27  CA        33.8220   -3.5220   30.8570 C.3    14  THR14       0.1897
     28  C         32.4050   -4.1280   30.9910 C.2    14  THR14       0.2313
     29  O         31.7080   -3.8830   31.9830 O.2    14  THR14      -0.2863
     30  CB        33.8010   -2.3020   29.9140 C.3    14  THR14       0.1794
     31  OG1       35.1350   -1.8440   29.6760 O.3    14  THR14      -0.2208
     32  CG2       32.9460   -1.1530   30.4510 C.3    14  THR14       0.0378
     33  N         35.8310  -12.5980   29.6860 N.3    18  VAL18      -0.1245
     34  CA        36.5210  -12.9660   28.4430 C.3    18  VAL18       0.1561
     35  C         37.2100  -14.3070   28.6510 C.2    18  VAL18       0.2260
     36  O         37.9940  -14.4710   29.5970 O.2    18  VAL18      -0.2867
     37  CB        37.4920  -11.8640   27.9220 C.3    18  VAL18       0.0252
     38  CG1       38.0970  -12.2380   26.5630 C.3    18  VAL18       0.0019
     39  CG2       36.7910  -10.5110   27.8370 C.3    18  VAL18       0.0019
     40  N         38.8540  -15.6710   21.2580 N.3    31  ALA31      -0.1245
     41  CA        38.5710  -15.0000   22.5220 C.3    31  ALA31       0.1562
     42  C         37.0350  -14.8910   22.5470 C.2    31  ALA31       0.2260
     43  O         36.4330  -14.4160   21.5800 O.2    31  ALA31      -0.2867
     44  CB        39.2140  -13.6190   22.5620 C.3    31  ALA31       0.0290
     45  N         33.7280  -13.4610   24.5410 N.3    33  LYS33      -0.1245
     46  CA        33.1530  -12.5240   25.5170 C.3    33  LYS33       0.1561
     47  C         31.6620  -12.8410   25.7520 C.2    33  LYS33       0.2260
     48  O         30.8820  -12.8960   24.7950 O.2    33  LYS33      -0.2867
     49  CB        33.3450  -11.0410   25.0770 C.3    33  LYS33       0.0271
     50  CG        33.0810   -9.9970   26.1840 C.3    33  LYS33       0.0035
     51  CD        33.0450   -8.5280   25.6900 C.3    33  LYS33       0.0206
     52  CE        34.2430   -7.6680   26.1030 C.3    33  LYS33       0.1093
     53  NZ        33.9000   -6.6640   27.1800 N.3    33  LYS33      -0.1314
     54  N         41.1810   -5.6750   16.0580 N.3    55  VAL55      -0.1245
     55  CA        40.8850   -7.0650   16.4520 C.3    55  VAL55       0.1561
     56  C         39.5980   -7.4900   15.7130 C.2    55  VAL55       0.2260
     57  O         38.5920   -6.7900   15.7910 O.2    55  VAL55      -0.2867
     58  CB        40.7720   -7.2700   18.0000 C.3    55  VAL55       0.0252
     59  CG1       40.3580   -8.7020   18.3410 C.3    55  VAL55       0.0019
     60  CG2       42.0810   -6.9260   18.7060 C.3    55  VAL55       0.0019
     61  N         35.8220  -13.2380   19.1040 N.3    71  PHE71      -0.1227
     62  CA        36.9360  -12.4140   18.6260 C.3    71  PHE71       0.1736
     63  C         38.1950  -13.2010   18.2790 C.2    71  PHE71       0.2598
     64  O         38.4420  -14.2700   18.8300 O.2    71  PHE71      -0.2717
     65  CB        37.3280  -11.3580   19.6870 C.3    71  PHE71       0.0547
     66  CG        36.2970  -10.3220   20.0800 C.ar   71  PHE71      -0.0202
     67  CD1       35.9280   -9.3120   19.1960 C.ar   71  PHE71      -0.0042
     68  CD2       35.7620  -10.3020   21.3670 C.ar   71  PHE71      -0.0042
     69  CE1       35.0010   -8.3310   19.5760 C.ar   71  PHE71      -0.0003
     70  CE2       34.8640   -9.3070   21.7540 C.ar   71  PHE71      -0.0003
     71  CZ        34.4800   -8.3340   20.8540 C.ar   71  PHE71      -0.0000
     72  N         39.0280  -12.6010   17.4060 N.am   72  GLU72      -0.1920
     73  CA        40.3720  -13.0530   17.0520 C.3    72  GLU72       0.1949
     74  C         41.1810  -13.0360   18.3820 C.2    72  GLU72       0.2659
     75  O         41.0030  -12.1220   19.1970 O.2    72  GLU72      -0.2711
     76  CB        40.9670  -12.0510   16.0380 C.2    72  GLU72       0.0111
     77  CG        42.4810  -11.9800   15.9850 C.2    72  GLU72       0.0838
     78  CD        43.0990  -10.9600   15.0450 C.2    72  GLU72       0.3877
     79  OE1       44.3060  -11.1110   14.7620 O.co2  72  GLU72      -0.2406
     80  OE2       42.4120  -10.0050   14.6140 O.co2  72  GLU72      -0.2406
     81  N         42.0300  -14.0580   18.6020 N.am   73  PHE73      -0.1957
     82  CA        42.8460  -14.1850   19.8060 C.3    73  PHE73       0.1771
     83  C         44.2760  -13.6690   19.6040 C.2    73  PHE73       0.2619
     84  O         44.9040  -13.9800   18.5960 O.2    73  PHE73      -0.2715
     85  CB        42.8790  -15.6590   20.2850 C.3    73  PHE73       0.0574
     86  CG        43.6890  -15.8690   21.5450 C.ar   73  PHE73      -0.0200
     87  CD1       43.1350  -15.6220   22.7990 C.ar   73  PHE73      -0.0042
     88  CD2       45.0160  -16.2850   21.4780 C.ar   73  PHE73      -0.0042
     89  CE1       43.8980  -15.7740   23.9600 C.ar   73  PHE73      -0.0003
     90  CE2       45.7840  -16.4250   22.6390 C.ar   73  PHE73      -0.0003
     91  CZ        45.2170  -16.1770   23.8730 C.ar   73  PHE73      -0.0000
     92  N         44.7960  -12.9340   20.6050 N.am   74  LEU74      -0.1963
     93  CA        46.1770  -12.4410   20.6780 C.3    74  LEU74       0.1728
     94  C         46.6850  -12.7760   22.1040 C.2    74  LEU74       0.2616
     95  O         45.9240  -12.6490   23.0620 O.2    74  LEU74      -0.2715
     96  CB        46.2840  -10.9290   20.3560 C.3    74  LEU74       0.0311
     97  CG        46.1930  -10.5410   18.8700 C.3    74  LEU74       0.0022
     98  CD1       44.7530  -10.2130   18.4830 C.3    74  LEU74       0.0001
     99  CD2       47.0720   -9.3050   18.5600 C.3    74  LEU74       0.0001
    100  N         47.9350  -13.2610   22.2210 N.am   75  HIS75      -0.1959
    101  CA        48.5550  -13.7310   23.4650 C.3    75  HIS75       0.1787
    102  C         48.8160  -12.7190   24.5830 C.2    75  HIS75       0.2620
    103  O         48.7450  -13.1000   25.7450 O.2    75  HIS75      -0.2715
    104  CB        49.8010  -14.5820   23.1750 C.3    75  HIS75       0.0785
    105  CG        49.4910  -15.9040   22.5390 C.ar   75  HIS75       0.0821
    106  ND1       49.2960  -16.0230   21.1660 N.ar   75  HIS75      -0.2267
    107  CD2       49.3360  -17.1220   23.1100 C.ar   75  HIS75       0.1154
    108  CE1       49.0220  -17.3010   20.9520 C.ar   75  HIS75       0.1986
    109  NE2       49.0600  -18.0060   22.0890 N.ar   75  HIS75      -0.2212
    110  N         49.0960  -11.4440   24.2650 N.am   76  GLN76      -0.1963
    111  CA        49.3830  -10.4490   25.3050 C.3    76  GLN76       0.1733
    112  C         48.7050   -9.0920   25.0500 C.2    76  GLN76       0.2616
    113  O         48.3020   -8.8070   23.9220 O.2    76  GLN76      -0.2715
    114  CB        50.9200  -10.2710   25.4410 C.3    76  GLN76       0.0408
    115  CG        51.3500   -9.5000   26.7080 C.3    76  GLN76       0.0908
    116  CD        52.7670   -9.7450   27.1540 C.2    76  GLN76       0.2608
    117  OE1       53.0100  -10.1780   28.2830 O.2    76  GLN76      -0.2717
    118  NE2       53.7340   -9.4220   26.3070 N.am   76  GLN76      -0.0878
    119  N         48.5870   -8.2630   26.1120 N.am   77  ASP77      -0.1971
    120  CA        48.0800   -6.8850   26.0430 C.3    77  ASP77       0.1709
    121  C         49.2250   -5.8920   26.3850 C.2    77  ASP77       0.2293
    122  O         50.2070   -6.2940   27.0230 O.2    77  ASP77      -0.2864
    123  CB        46.8090   -6.6670   26.9100 C.3    77  ASP77       0.1436
    124  CG        46.9780   -6.8140   28.4160 C.2    77  ASP77       0.3671
    125  OD1       47.7420   -6.0180   29.0140 O.co2  77  ASP77      -0.2456
    126  OD2       46.2690   -7.6510   29.0100 O.co2  77  ASP77      -0.2456
    127  N         50.4180   -5.3240   30.3700 N.3    80  LYS80      -0.1245
    128  CA        51.3530   -6.3440   30.8650 C.3    80  LYS80       0.1561
    129  C         52.7320   -6.2310   30.2380 C.2    80  LYS80       0.2260
    130  O         53.7240   -6.4590   30.9380 O.2    80  LYS80      -0.2867
    131  CB        50.7790   -7.7620   30.7250 C.3    80  LYS80       0.0271
    132  CG        49.7500   -8.0920   31.8080 C.3    80  LYS80       0.0035
    133  CD        48.9620   -9.3520   31.4930 C.3    80  LYS80       0.0206
    134  CE        47.6120   -9.3430   32.1700 C.3    80  LYS80       0.1093
    135  NZ        46.8110  -10.5420   31.8140 N.3    80  LYS80      -0.1314
    136  N         42.7330    2.3180   26.1830 N.3   120  LYS120     -0.1245
    137  CA        43.5650    2.1150   27.3720 C.3   120  LYS120      0.1561
    138  C         44.6060    1.0200   27.0590 C.2   120  LYS120      0.2260
    139  O         44.3390    0.2080   26.1680 O.2   120  LYS120     -0.2867
    140  CB        42.7080    1.7380   28.6080 C.3   120  LYS120      0.0271
    141  CG        41.9570    0.3940   28.5140 C.3   120  LYS120      0.0035
    142  CD        40.8560    0.2520   29.5840 C.3   120  LYS120      0.0206
    143  CE        39.5900    0.9910   29.2170 C.3   120  LYS120      0.1093
    144  NZ        38.4670    0.6840   30.1520 N.3   120  LYS120     -0.1314
    145  N         45.1970   -1.7800   28.4180 N.3   122  GLN122     -0.1231
    146  CA        44.5110   -3.0570   28.6340 C.3   122  GLN122      0.1698
    147  C         43.7490   -3.5710   27.3950 C.2   122  GLN122      0.2592
    148  O         43.6370   -4.7820   27.2350 O.2   122  GLN122     -0.2718
    149  CB        43.5930   -2.9930   29.8810 C.3   122  GLN122      0.0381
    150  CG        44.3230   -2.6230   31.1820 C.3   122  GLN122      0.0905
    151  CD        44.4740   -1.1250   31.3640 C.2   122  GLN122      0.2608
    152  OE1       43.5060   -0.3970   31.6010 O.2   122  GLN122     -0.2717
    153  NE2       45.6970   -0.6350   31.2680 N.am  122  GLN122     -0.0878
    154  N         43.2410   -2.6740   26.5170 N.am  123  ASN123     -0.1974
    155  CA        42.5220   -3.0930   25.2960 C.3   123  ASN123      0.1688
    156  C         43.3380   -2.9530   23.9790 C.2   123  ASN123      0.2292
    157  O         42.7670   -2.9140   22.8900 O.2   123  ASN123     -0.2864
    158  CB        41.0890   -2.4960   25.1980 C.3   123  ASN123      0.1181
    159  CG        40.9850   -0.9800   25.1530 C.2   123  ASN123      0.2629
    160  OD1       41.8740   -0.2760   24.6710 O.2   123  ASN123     -0.2716
    161  ND2       39.8580   -0.4430   25.6090 N.am  123  ASN123     -0.0877
    162  N         46.2440   -5.0110   22.0510 N.3   125  LEU125     -0.1245
    163  CA        46.8030   -6.3600   22.0370 C.3   125  LEU125      0.1561
    164  C         47.9610   -6.5290   21.0670 C.2   125  LEU125      0.2260
    165  O         47.9670   -5.9370   19.9880 O.2   125  LEU125     -0.2867
    166  CB        45.6950   -7.3950   21.7700 C.3   125  LEU125      0.0270
    167  CG        44.3430   -7.2080   22.5190 C.3   125  LEU125      0.0019
    168  CD1       43.3290   -8.2010   22.0190 C.3   125  LEU125      0.0001
    169  CD2       44.4970   -7.3360   24.0430 C.3   125  LEU125      0.0001
    170  N         41.2810   -3.5260   20.5020 N.3   135  ALA135     -0.1231
    171  CA        40.1740   -4.4150   20.8860 C.3   135  ALA135      0.1694
    172  C         38.9960   -3.5810   21.4050 C.2   135  ALA135      0.2592
    173  O         39.2120   -2.4520   21.8350 O.2   135  ALA135     -0.2718
    174  CB        40.6400   -5.3870   21.9610 C.3   135  ALA135      0.0304
    175  N         37.7530   -4.1370   21.3850 N.am  136  ASP136     -0.1974
    176  CA        36.5260   -3.4790   21.8920 C.3   136  ASP136      0.1709
    177  C         36.0470   -2.2490   21.1170 C.2   136  ASP136      0.2293
    178  O         35.2350   -1.4900   21.6530 O.2   136  ASP136     -0.2864
    179  CB        36.6590   -3.1240   23.3960 C.3   136  ASP136      0.1436
    180  CG        36.2040   -4.1940   24.3750 C.2   136  ASP136      0.3671
    181  OD1       35.7420   -5.2650   23.9180 O.co2 136  ASP136     -0.2456
    182  OD2       36.2440   -3.9300   25.5910 O.co2 136  ASP136     -0.2456
@<TRIPOS>BOND
     1    80    78   ar
     2    79    78   ar
     3    78    77    1
     4    56    57    2
     5    56    55    1
     6    77    76    2
     7    76    73    1
     8    54    55    1
     9    55    58    1
    10    73    72    1
    11    73    74    1
    12    72    63   am
    13    58    59    1
    14    58    60    1
    15    63    62    1
    16    63    64    2
    17    74    81   am
    18    74    75    2
    19    98    97    1
    20    99    97    1
    21    84    83    2
    22    81    82    1
    23    62    61    1
    24    62    65    1
    25    97    96    1
    26    67    69   ar
    27    67    66   ar
    28    69    71   ar
    29    83    82    1
    30    83    92   am
    31    65    66    1
    32    82    85    1
    33   165   164    2
    34    66    68   ar
    35    85    86    1
    36    96    93    1
    37   170   171    1
    38    92    93    1
    39    93    94    1
    40    71    70   ar
    41   171   172    1
    42   171   174    1
    43   108   106   ar
    44   108   109   ar
    45   164   163    1
    46   177   178    2
    47   177   176    1
    48   106   105   ar
    49    40    41    1
    50    68    70   ar
    51   175   172   am
    52   175   176    1
    53   172   173    2
    54    88    86   ar
    55    88    90   ar
    56    86    87   ar
    57    43    42    2
    58   166   163    1
    59   166   167    1
    60   176   179    1
    61   168   167    1
    62   163   162    1
    63   109   107   ar
    64    94   100   am
    65    94    95    2
    66   100   101    1
    67   167   169    1
    68    41    42    1
    69    41    44    1
    70   105   107   ar
    71   105   104    1
    72    90    91   ar
    73    87    89   ar
    74   157   156    2
    75   104   101    1
    76   179   180    1
    77   101   102    1
    78    91    89   ar
    79   181   180   ar
    80   113   112    2
    81   156   155    1
    82   110   102   am
    83   110   111    1
    84   180   182   ar
    85    45    46    1
    86   102   103    2
    87   160   159    2
    88    48    47    2
    89   112   111    1
    90   112   119   am
    91    49    46    1
    92    49    50    1
    93   159   158    1
    94   159   161   am
    95   158   155    1
    96   155   154    1
    97   111   114    1
    98   114   115    1
    99    46    47    1
   100    51    52    1
   101    51    50    1
   102   120   119    1
   103   120   121    1
   104   120   123    1
   105    52    53    1
   106   139   138    2
   107   136   137    1
   108   118   116   am
   109   121   122    2
   110     8     6    1
   111   154   147   am
   112    38    37    1
   113   115   116    1
   114   123   124    1
   115   138   137    1
   116   116   117    2
   117   148   147    2
   118   137   140    1
   119   147   146    1
   120    39    37    1
   121     6     5    1
   122    37    34    1
   123   124   126   ar
   124   124   125   ar
   125   145   146    1
   126    34    35    1
   127    34    33    1
   128   141   140    1
   129   141   142    1
   130   146   149    1
   131    35    36    2
   132     7     5    1
   133     5     2    1
   134   143   142    1
   135   143   144    1
   136    31    30    1
   137   149   150    1
   138    30    32    1
   139    30    27    1
   140   129   128    1
   141   129   130    2
   142    23    24    1
   143    23    22    1
   144    26    27    1
   145    26    24   am
   146     2     1    1
   147     2     3    1
   148   127   128    1
   149   131   128    1
   150   131   132    1
   151    27    28    1
   152     3     4    2
   153     3     9    1
   154    28    29    2
   155    24    25    2
   156    22    15   am
   157   150   151    1
   158   153   151   am
   159     9    10    2
   160   151   152    2
   161   133   132    1
   162   133   134    1
   163   135   134    1
   164    10    11    1
   165    12    11    2
   166    15    16    2
   167    15    14    1
   168    11    13   am
   169    13    14    1
   170    14    17    1
   171    17    18    1
   172    18    19    1
   173    19    20   ar
   174    19    21   ar
