@<TRIPOS>MOLECULE
tmp/3lfrB00.pdb
 107 103 0 0 0
SMALL
GASTEIGER

@<TRIPOS>ATOM
      1  N         43.6780   14.7670    2.9470 N.3     9  VAL9       -0.1245
      2  CA        43.0700   13.6770    2.2000 C.3     9  VAL9        0.1561
      3  C         43.1460   14.0920    0.7360 C.2     9  VAL9        0.2260
      4  O         42.5250   15.0630    0.3440 O.2     9  VAL9       -0.2867
      5  CB        41.5630   13.4870    2.6010 C.3     9  VAL9        0.0252
      6  CG1       40.8840   12.4610    1.6870 C.3     9  VAL9        0.0019
      7  CG2       41.4520   13.0950    4.0900 C.3     9  VAL9        0.0019
      8  N         40.8060   10.5950   -3.0660 N.3    13  GLN13      -0.1245
      9  CA        40.2900    9.8520   -1.9190 C.3    13  GLN13       0.1566
     10  C         39.1480   10.5900   -1.2370 C.2    13  GLN13       0.2260
     11  O         38.6240   10.1280   -0.2260 O.2    13  GLN13      -0.2867
     12  CB        41.3780    9.6030   -0.8850 C.3    13  GLN13       0.0367
     13  CG        42.5700    8.7580   -1.3500 C.3    13  GLN13       0.0905
     14  CD        42.1670    7.4110   -1.8840 C.2    13  GLN13       0.2608
     15  OE1       42.3950    7.1060   -3.0580 O.2    13  GLN13      -0.2717
     16  NE2       41.5630    6.5890   -1.0310 N.am   13  GLN13      -0.0878
     17  N         35.4450   11.7860   -0.5640 N.3    14  ILE14      -0.1245
     18  CA        34.0690   11.4120   -0.8620 C.3    14  ILE14       0.1561
     19  C         33.2840   12.6920   -1.0660 C.2    14  ILE14       0.2260
     20  O         33.1590   13.5210   -0.1470 O.2    14  ILE14      -0.2867
     21  CB        33.4350   10.5340    0.2370 C.3    14  ILE14       0.0252
     22  CG1       34.3620    9.3670    0.6180 C.3    14  ILE14       0.0019
     23  CG2       32.0350   10.0340   -0.1990 C.3    14  ILE14       0.0019
     24  CD1       34.6860    8.4290   -0.5330 C.3    14  ILE14       0.0001
     25  N         30.1440    7.6180    5.8630 N.3    33  ALA33      -0.1231
     26  CA        29.9070    7.9690    7.2620 C.3    33  ALA33       0.1694
     27  C         30.6890    9.1910    7.7540 C.2    33  ALA33       0.2592
     28  O         31.1030    9.2590    8.9180 O.2    33  ALA33      -0.2718
     29  CB        30.1650    6.7410    8.1670 C.3    33  ALA33       0.0304
     30  N         30.8750   10.1540    6.8640 N.am   34  HIS34      -0.1962
     31  CA        31.5090   11.4360    7.2520 C.3    34  HIS34       0.1787
     32  C         30.4930   12.4830    7.6960 C.2    34  HIS34       0.2621
     33  O         29.2930   12.3870    7.4080 O.2    34  HIS34      -0.2715
     34  CB        32.3600   11.9950    6.1100 C.3    34  HIS34       0.0785
     35  CG        33.4530   11.0660    5.6860 C.ar   34  HIS34       0.0821
     36  ND1       34.4090   10.5970    6.5610 N.ar   34  HIS34      -0.2267
     37  CD2       33.7310   10.5070    4.4860 C.ar   34  HIS34       0.1154
     38  CE1       35.2300    9.7870    5.9140 C.ar   34  HIS34       0.1986
     39  NE2       34.8490    9.7280    4.6530 N.ar   34  HIS34      -0.2212
     40  N         30.9850   13.4990    8.3930 N.am   35  SER35      -0.1936
     41  CA        30.1140   14.5760    8.8240 C.3    35  SER35       0.2055
     42  C         29.8750   15.5890    7.7160 C.2    35  SER35       0.2643
     43  O         28.8370   16.2670    7.7120 O.2    35  SER35      -0.2714
     44  CB        30.7410   15.2950   10.0110 C.3    35  SER35       0.2130
     45  OG        30.6370   14.4690   11.1530 O.3    35  SER35      -0.2179
     46  N         30.8420   15.7250    6.8110 N.am   36  ARG36      -0.1963
     47  CA        30.8260   16.8040    5.8110 C.3    36  ARG36       0.1729
     48  C         31.3310   16.3070    4.4570 C.2    36  ARG36       0.2616
     49  O         32.3000   15.5380    4.4050 O.2    36  ARG36      -0.2715
     50  CB        31.7070   17.9970    6.2600 C.3    36  ARG36       0.0348
     51  CG        31.2020   18.6770    7.5170 C.3    36  ARG36       0.0492
     52  CD        32.1890   19.6510    8.1600 C.3    36  ARG36       0.2205
     53  NE        31.6910   20.0350    9.4860 N.pl3  36  ARG36      -0.0865
     54  CZ        31.9030   19.3490   10.6070 C.cat  36  ARG36       0.5346
     55  NH1       32.6430   18.2450   10.5920 N.pl3  36  ARG36       0.1354
     56  NH2       31.3920   19.7800   11.7610 N.pl3  36  ARG36       0.1354
     57  N         30.6920   16.7700    3.3780 N.am   37  TYR37      -0.1960
     58  CA        31.0370   16.3290    2.0180 C.3    37  TYR37       0.1756
     59  C         31.1910   17.5030    1.0790 C.2    37  TYR37       0.2461
     60  O         30.2830   18.3010    0.9820 O.2    37  TYR37      -0.2730
     61  CB        29.9340   15.4320    1.4360 C.3    37  TYR37       0.0574
     62  CG        29.8010   14.1580    2.2080 C.ar   37  TYR37      -0.0198
     63  CD1       30.5210   13.0310    1.8350 C.ar   37  TYR37      -0.0009
     64  CD2       28.9860   14.0860    3.3400 C.ar   37  TYR37      -0.0009
     65  CE1       30.4250   11.8380    2.5680 C.ar   37  TYR37       0.0417
     66  CE2       28.8910   12.9000    4.0870 C.ar   37  TYR37       0.0417
     67  CZ        29.6150   11.7860    3.6900 C.ar   37  TYR37       0.1957
     68  OH        29.5210   10.6170    4.4130 O.3    37  TYR37      -0.2866
     69  N         32.3140   17.5830    0.3370 N.am   38  PRO38      -0.2727
     70  CA        32.3560   18.5830   -0.7400 C.3    38  PRO38       0.1402
     71  C         31.2730   18.2550   -1.7680 C.2    38  PRO38       0.2269
     72  O         31.0140   17.0820   -2.0600 O.2    38  PRO38      -0.2865
     73  CB        33.7350   18.3810   -1.3880 C.3    38  PRO38       0.0296
     74  CG        34.5350   17.6100   -0.3950 C.3    38  PRO38       0.0237
     75  CD        33.5480   16.7760    0.4050 C.3    38  PRO38       0.0939
     76  N         41.2030   17.5790    0.6610 N.3   110  LEU110     -0.1245
     77  CA        40.5440   18.2970    1.7680 C.3   110  LEU110      0.1561
     78  C         41.3270   18.0540    3.0460 C.2   110  LEU110      0.2260
     79  O         42.1570   17.1530    3.1090 O.2   110  LEU110     -0.2867
     80  CB        39.0760   17.8740    1.9090 C.3   110  LEU110      0.0270
     81  CG        38.7330   16.4240    2.2790 C.3   110  LEU110      0.0019
     82  CD1       38.9170   16.1080    3.7610 C.3   110  LEU110      0.0001
     83  CD2       37.2710   16.0680    1.8500 C.3   110  LEU110      0.0001
     84  N         41.0670   18.4380    7.5870 N.3   112  THR112     -0.1218
     85  CA        40.1640   18.6620    8.7190 C.3   112  THR112      0.1862
     86  C         40.9290   18.9820    9.9910 C.2   112  THR112      0.2287
     87  O         42.1210   18.6800   10.1070 O.2   112  THR112     -0.2866
     88  CB        39.3140   17.4110    8.9900 C.3   112  THR112      0.1770
     89  OG1       40.2030   16.3500    9.3850 O.3   112  THR112     -0.2211
     90  CG2       38.5150   17.0050    7.7330 C.3   112  THR112      0.0375
     91  N         40.5820   17.4740   12.7470 N.3   114  GLU114     -0.1231
     92  CA        40.9500   16.1730   13.3160 C.3   114  GLU114      0.1699
     93  C         42.2660   15.6800   12.7110 C.2   114  GLU114      0.2592
     94  O         43.0580   15.0710   13.4190 O.2   114  GLU114     -0.2718
     95  CB        39.8510   15.1310   13.1070 C.3   114  GLU114      0.0402
     96  CG        38.5470   15.4580   13.8520 C.3   114  GLU114      0.1161
     97  CD        37.6070   16.4270   13.1140 C.2   114  GLU114      0.3649
     98  OE1       37.9300   16.9090   11.9970 O.co2 114  GLU114     -0.2457
     99  OE2       36.5230   16.7180   13.6760 O.co2 114  GLU114     -0.2457
    100  N         42.4830   15.9360   11.4150 N.am  115  ASP115     -0.1974
    101  CA        43.7410   15.5630   10.7470 C.3   115  ASP115      0.1709
    102  C         44.9140   16.3630   11.3580 C.2   115  ASP115      0.2293
    103  O         46.0280   15.8630   11.4720 O.2   115  ASP115     -0.2864
    104  CB        43.7050   15.8640    9.2290 C.3   115  ASP115      0.1436
    105  CG        42.6100   15.1100    8.4400 C.2   115  ASP115      0.3671
    106  OD1       42.6430   13.8810    8.3290 O.co2 115  ASP115     -0.2456
    107  OD2       41.7500   15.7730    7.8160 O.co2 115  ASP115     -0.2456
@<TRIPOS>BOND
     1     8     9    1
     2    15    14    2
     3    72    71    2
     4     9    10    1
     5     9    12    1
     6    14    13    1
     7    14    16   am
     8    71    70    1
     9    73    70    1
    10    73    74    1
    11    13    12    1
    12    10    11    2
    13    19    18    1
    14    19    20    2
    15    18    17    1
    16    18    21    1
    17    70    69    1
    18    24    22    1
    19    74    75    1
    20    23    21    1
    21    21    22    1
    22    69    75    1
    23    69    59   am
    24     4     3    2
    25    76    77    1
    26     3     2    1
    27    60    59    2
    28    59    58    1
    29    61    58    1
    30    61    62    1
    31     6     5    1
    32    77    80    1
    33    77    78    1
    34    63    62   ar
    35    63    65   ar
    36    83    81    1
    37    80    81    1
    38    58    57    1
    39     2     5    1
    40     2     1    1
    41    62    64   ar
    42    81    82    1
    43    65    67   ar
    44     5     7    1
    45    78    79    2
    46    64    66   ar
    47    57    48   am
    48    67    66   ar
    49    67    68    1
    50    49    48    2
    51    48    47    1
    52    37    39   ar
    53    37    35   ar
    54    39    38   ar
    55    35    34    1
    56    35    36   ar
    57    47    50    1
    58    47    46    1
    59    25    26    1
    60    38    36   ar
    61    34    31    1
    62    50    51    1
    63    46    42   am
    64    30    31    1
    65    30    27   am
    66    31    32    1
    67    26    27    1
    68    26    29    1
    69    33    32    2
    70    51    52    1
    71    84    85    1
    72    32    40   am
    73    43    42    2
    74    42    41    1
    75    90    88    1
    76    27    28    2
    77   107   105   ar
    78    52    53    1
    79   106   105   ar
    80    40    41    1
    81   105   104    1
    82    85    88    1
    83    85    86    1
    84    41    44    1
    85    88    89    1
    86   104   101    1
    87    53    54    2
    88    86    87    2
    89    44    45    1
    90    55    54    1
    91    54    56    1
    92   101   102    1
    93   101   100    1
    94   102   103    2
    95   100    93   am
    96    98    97   ar
    97    93    92    1
    98    93    94    2
    99    91    92    1
   100    95    92    1
   101    95    96    1
   102    97    99   ar
   103    97    96    1
