@<TRIPOS>MOLECULE
tmp/3lfsA00.pdb
 169 161 0 0 0
SMALL
GASTEIGER

@<TRIPOS>ATOM
      1  N         40.2360  -15.6700   30.8820 N.3    10  ILE10      -0.1245
      2  CA        41.3940  -14.8300   30.5540 C.3    10  ILE10       0.1561
      3  C         41.3010  -13.3640   30.9730 C.2    10  ILE10       0.2260
      4  O         42.2250  -12.5980   30.6850 O.2    10  ILE10      -0.2867
      5  CB        41.9300  -15.0280   29.1040 C.3    10  ILE10       0.0252
      6  CG1       40.8870  -14.6250   28.0360 C.3    10  ILE10       0.0019
      7  CG2       42.4630  -16.4590   28.9120 C.3    10  ILE10       0.0019
      8  CD1       41.4380  -14.2910   26.6290 C.3    10  ILE10       0.0001
      9  N         38.4160   -9.9520   32.8520 N.3    12  GLU12      -0.1231
     10  CA        37.1570   -9.2900   33.2060 C.3    12  GLU12       0.1699
     11  C         37.0550   -8.0060   32.3730 C.2    12  GLU12       0.2593
     12  O         37.9190   -7.1260   32.4690 O.2    12  GLU12      -0.2718
     13  CB        37.1090   -8.9230   34.7110 C.3    12  GLU12       0.0402
     14  CG        37.7850   -9.8880   35.6770 C.3    12  GLU12       0.1161
     15  CD        36.8650  -10.8730   36.3700 C.2    12  GLU12       0.3649
     16  OE1       36.4410  -11.8570   35.7220 O.co2  12  GLU12      -0.2457
     17  OE2       36.5900  -10.6730   37.5740 O.co2  12  GLU12      -0.2457
     18  N         36.0190   -7.9220   31.5480 N.am   13  GLY13      -0.1942
     19  CA        35.7950   -6.7580   30.7000 C.3    13  GLY13       0.2014
     20  C         34.9370   -5.7180   31.3840 C.2    13  GLY13       0.2639
     21  O         34.6410   -5.8330   32.5770 O.2    13  GLY13      -0.2714
     22  N         34.5360   -4.6900   30.6340 N.am   14  THR14      -0.1950
     23  CA        33.6610   -3.6370   31.1410 C.3    14  THR14       0.1897
     24  C         32.2390   -4.2030   31.2620 C.2    14  THR14       0.2313
     25  O         31.5660   -3.9830   32.2670 O.2    14  THR14      -0.2863
     26  CB        33.7070   -2.4030   30.2090 C.3    14  THR14       0.1794
     27  OG1       35.0640   -2.0130   29.9770 O.3    14  THR14      -0.2208
     28  CG2       32.9190   -1.2260   30.7580 C.3    14  THR14       0.0378
     29  N         35.6330  -12.6120   29.8510 N.3    18  VAL18      -0.1245
     30  CA        36.4050  -12.9390   28.6520 C.3    18  VAL18       0.1561
     31  C         37.0860  -14.2990   28.8600 C.2    18  VAL18       0.2260
     32  O         37.7980  -14.5030   29.8490 O.2    18  VAL18      -0.2867
     33  CB        37.3970  -11.8220   28.2270 C.3    18  VAL18       0.0252
     34  CG1       38.0660  -12.1570   26.8940 C.3    18  VAL18       0.0019
     35  CG2       36.7000  -10.4670   28.1400 C.3    18  VAL18       0.0019
     36  N         38.7860  -15.6850   21.3880 N.3    31  ALA31      -0.1245
     37  CA        38.5380  -14.9980   22.6510 C.3    31  ALA31       0.1562
     38  C         37.0110  -14.8590   22.6990 C.2    31  ALA31       0.2260
     39  O         36.4160  -14.2620   21.7960 O.2    31  ALA31      -0.2867
     40  CB        39.2050  -13.6250   22.6700 C.3    31  ALA31       0.0290
     41  N         33.7150  -13.4820   24.5750 N.3    33  LYS33      -0.1245
     42  CA        33.1750  -12.4930   25.5040 C.3    33  LYS33       0.1561
     43  C         31.6660  -12.7100   25.7420 C.2    33  LYS33       0.2260
     44  O         30.9020  -12.8270   24.7820 O.2    33  LYS33      -0.2867
     45  CB        33.4790  -11.0730   24.9820 C.3    33  LYS33       0.0271
     46  CG        32.7260   -9.9510   25.6860 C.3    33  LYS33       0.0035
     47  CD        33.6500   -8.9660   26.3500 C.3    33  LYS33       0.0206
     48  CE        34.1980   -7.9390   25.3950 C.3    33  LYS33       0.1093
     49  NZ        34.7070   -6.7550   26.1300 N.3    33  LYS33      -0.1314
     50  N         41.1720   -5.5900   16.1430 N.3    56  VAL56      -0.1245
     51  CA        40.8540   -6.9490   16.5730 C.3    56  VAL56       0.1561
     52  C         39.5840   -7.3450   15.8440 C.2    56  VAL56       0.2260
     53  O         38.5970   -6.6120   15.9060 O.2    56  VAL56      -0.2867
     54  CB        40.7390   -7.1190   18.1270 C.3    56  VAL56       0.0252
     55  CG1       40.2400   -8.5140   18.5030 C.3    56  VAL56       0.0019
     56  CG2       42.0760   -6.8550   18.8110 C.3    56  VAL56       0.0019
     57  N         35.9500  -13.1410   19.1780 N.3    72  PHE72      -0.1227
     58  CA        37.0760  -12.3280   18.6940 C.3    72  PHE72       0.1736
     59  C         38.3010  -13.1490   18.3230 C.2    72  PHE72       0.2598
     60  O         38.4480  -14.2750   18.7970 O.2    72  PHE72      -0.2717
     61  CB        37.4970  -11.2920   19.7690 C.3    72  PHE72       0.0547
     62  CG        36.4890  -10.2190   20.1010 C.ar   72  PHE72      -0.0202
     63  CD1       36.2380   -9.1770   19.2110 C.ar   72  PHE72      -0.0042
     64  CD2       35.8330  -10.2150   21.3270 C.ar   72  PHE72      -0.0042
     65  CE1       35.3260   -8.1650   19.5310 C.ar   72  PHE72      -0.0003
     66  CE2       34.9130   -9.2080   21.6460 C.ar   72  PHE72      -0.0003
     67  CZ        34.6670   -8.1860   20.7460 C.ar   72  PHE72      -0.0000
     68  N         39.2110  -12.5590   17.5140 N.am   73  GLU73      -0.1920
     69  CA        40.4840  -13.1890   17.1960 C.3    73  GLU73       0.1949
     70  C         41.3380  -13.1350   18.4720 C.2    73  GLU73       0.2659
     71  O         41.2530  -12.1630   19.2420 O.2    73  GLU73      -0.2711
     72  CB        41.1850  -12.5370   15.9720 C.2    73  GLU73       0.0111
     73  CG        41.9210  -11.2300   16.2200 C.2    73  GLU73       0.0838
     74  CD        42.8570  -10.7900   15.1100 C.2    73  GLU73       0.3877
     75  OE1       43.8710  -11.4860   14.8740 O.co2  73  GLU73      -0.2406
     76  OE2       42.6130   -9.7120   14.5200 O.co2  73  GLU73      -0.2406
     77  N         42.0770  -14.2150   18.7370 N.am   74  PHE74      -0.1957
     78  CA        42.9130  -14.3200   19.9280 C.3    74  PHE74       0.1771
     79  C         44.3170  -13.7410   19.7190 C.2    74  PHE74       0.2619
     80  O         44.9450  -13.9850   18.6890 O.2    74  PHE74      -0.2715
     81  CB        42.9820  -15.7790   20.4340 C.3    74  PHE74       0.0574
     82  CG        43.7370  -15.9390   21.7340 C.ar   74  PHE74      -0.0200
     83  CD1       43.1190  -15.6830   22.9530 C.ar   74  PHE74      -0.0042
     84  CD2       45.0700  -16.3400   21.7390 C.ar   74  PHE74      -0.0042
     85  CE1       43.8290  -15.8040   24.1540 C.ar   74  PHE74      -0.0003
     86  CE2       45.7730  -16.4730   22.9390 C.ar   74  PHE74      -0.0003
     87  CZ        45.1500  -16.1990   24.1380 C.ar   74  PHE74      -0.0000
     88  N         44.7870  -12.9680   20.7140 N.am   75  LEU75      -0.1963
     89  CA        46.1280  -12.3960   20.7990 C.3    75  LEU75       0.1728
     90  C         46.6220  -12.7030   22.2130 C.2    75  LEU75       0.2616
     91  O         45.8610  -12.5850   23.1760 O.2    75  LEU75      -0.2715
     92  CB        46.1750  -10.8950   20.4700 C.3    75  LEU75       0.0311
     93  CG        46.0220  -10.5500   18.9850 C.3    75  LEU75       0.0022
     94  CD1       44.6510   -9.9370   18.7030 C.3    75  LEU75       0.0001
     95  CD2       47.1160   -9.6070   18.5220 C.3    75  LEU75       0.0001
     96  N         47.8750  -13.1620   22.3190 N.am   76  HIS76      -0.1959
     97  CA        48.4830  -13.6310   23.5610 C.3    76  HIS76       0.1787
     98  C         48.7200  -12.6550   24.7050 C.2    76  HIS76       0.2620
     99  O         48.7160  -13.0890   25.8540 O.2    76  HIS76      -0.2715
    100  CB        49.7170  -14.4730   23.2680 C.3    76  HIS76       0.0785
    101  CG        49.4050  -15.7430   22.5490 C.ar   76  HIS76       0.0821
    102  ND1       49.2830  -15.7800   21.1720 N.ar   76  HIS76      -0.2267
    103  CD2       49.1820  -16.9790   23.0420 C.ar   76  HIS76       0.1154
    104  CE1       48.9990  -17.0350   20.8690 C.ar   76  HIS76       0.1986
    105  NE2       48.9200  -17.7940   21.9600 N.ar   76  HIS76      -0.2212
    106  N         48.9190  -11.3600   24.4230 N.am   77  GLN77      -0.1963
    107  CA        49.1990  -10.3860   25.4800 C.3    77  GLN77       0.1733
    108  C         48.6430   -8.9980   25.1790 C.2    77  GLN77       0.2616
    109  O         48.3540   -8.6770   24.0290 O.2    77  GLN77      -0.2715
    110  CB        50.7250  -10.3020   25.6900 C.3    77  GLN77       0.0408
    111  CG        51.1520   -9.9640   27.1200 C.3    77  GLN77       0.0908
    112  CD        52.6530  -10.0130   27.2640 C.2    77  GLN77       0.2608
    113  OE1       53.3450   -9.0020   27.1140 O.2    77  GLN77      -0.2717
    114  NE2       53.1890  -11.2010   27.5340 N.am   77  GLN77      -0.0878
    115  N         48.5130   -8.1710   26.2280 N.am   78  ASP78      -0.1971
    116  CA        48.0860   -6.7750   26.1520 C.3    78  ASP78       0.1709
    117  C         49.2680   -5.8570   26.5020 C.2    78  ASP78       0.2293
    118  O         50.2350   -6.3250   27.1120 O.2    78  ASP78      -0.2864
    119  CB        46.8430   -6.4920   27.0310 C.3    78  ASP78       0.1436
    120  CG        46.9790   -6.7140   28.5280 C.2    78  ASP78       0.3671
    121  OD1       47.8280   -6.0450   29.1570 O.co2  78  ASP78      -0.2456
    122  OD2       46.1500   -7.4470   29.0910 O.co2  78  ASP78      -0.2456
    123  N         50.4680   -5.3180   30.4290 N.3    81  LYS81      -0.1245
    124  CA        51.3610   -6.3980   30.8790 C.3    81  LYS81       0.1561
    125  C         52.7630   -6.2330   30.3040 C.2    81  LYS81       0.2260
    126  O         53.7430   -6.4830   31.0140 O.2    81  LYS81      -0.2867
    127  CB        50.8190   -7.7960   30.4980 C.3    81  LYS81       0.0271
    128  CG        49.4890   -8.1670   31.1600 C.3    81  LYS81       0.0035
    129  CD        49.3600   -9.6670   31.4750 C.3    81  LYS81       0.0206
    130  CE        49.1780  -10.5740   30.2700 C.3    81  LYS81       0.1093
    131  NZ        47.8090  -10.4950   29.7050 N.3    81  LYS81      -0.1314
    132  N         45.1710   -1.7540   28.4120 N.3   123  GLN123     -0.1231
    133  CA        44.4410   -3.0090   28.6570 C.3   123  GLN123      0.1698
    134  C         43.7420   -3.5350   27.3780 C.2   123  GLN123      0.2592
    135  O         43.7920   -4.7360   27.1090 O.2   123  GLN123     -0.2718
    136  CB        43.3950   -2.7740   29.7630 C.3   123  GLN123      0.0381
    137  CG        43.2060   -3.9040   30.7730 C.3   123  GLN123      0.0905
    138  CD        41.9960   -3.6430   31.6610 C.2   123  GLN123      0.2608
    139  OE1       41.9740   -2.7230   32.5000 O.2   123  GLN123     -0.2717
    140  NE2       40.9460   -4.4400   31.4800 N.am  123  GLN123     -0.0878
    141  N         43.0980   -2.6460   26.5960 N.am  124  ASN124     -0.1974
    142  CA        42.3940   -3.0620   25.3650 C.3   124  ASN124      0.1688
    143  C         43.2580   -2.9420   24.0900 C.2   124  ASN124      0.2292
    144  O         42.7260   -2.8560   22.9830 O.2   124  ASN124     -0.2864
    145  CB        41.0080   -2.3740   25.2180 C.3   124  ASN124      0.1181
    146  CG        41.0080   -0.8570   25.2280 C.2   124  ASN124      0.2629
    147  OD1       41.9390   -0.1920   24.7540 O.2   124  ASN124     -0.2716
    148  ND2       39.9280   -0.2680   25.7310 N.am  124  ASN124     -0.0877
    149  N         46.1910   -4.9960   22.1450 N.3   126  LEU126     -0.1245
    150  CA        46.7740   -6.3430   22.0770 C.3   126  LEU126      0.1561
    151  C         47.9570   -6.5070   21.1160 C.2   126  LEU126      0.2260
    152  O         47.9320   -5.9530   20.0160 O.2   126  LEU126     -0.2867
    153  CB        45.6850   -7.4130   21.8620 C.3   126  LEU126      0.0270
    154  CG        44.4000   -7.2760   22.7240 C.3   126  LEU126      0.0019
    155  CD1       43.2710   -8.0800   22.1530 C.3   126  LEU126      0.0001
    156  CD2       44.6300   -7.6760   24.1740 C.3   126  LEU126      0.0001
    157  N         41.3530   -3.4410   20.5790 N.3   136  ALA136     -0.1231
    158  CA        40.2420   -4.3150   20.9810 C.3   136  ALA136      0.1694
    159  C         39.0500   -3.4680   21.4650 C.2   136  ALA136      0.2592
    160  O         39.2410   -2.3010   21.8070 O.2   136  ALA136     -0.2718
    161  CB        40.6950   -5.2540   22.0880 C.3   136  ALA136      0.0304
    162  N         37.8270   -4.0520   21.4930 N.am  137  ASP137     -0.1974
    163  CA        36.5680   -3.4230   21.9540 C.3   137  ASP137      0.1709
    164  C         36.0970   -2.1650   21.2120 C.2   137  ASP137      0.2293
    165  O         35.2730   -1.4070   21.7480 O.2   137  ASP137     -0.2864
    166  CB        36.5670   -3.1950   23.4860 C.3   137  ASP137      0.1436
    167  CG        36.1800   -4.3960   24.3270 C.2   137  ASP137      0.3671
    168  OD1       35.7830   -5.4230   23.7520 O.co2 137  ASP137     -0.2456
    169  OD2       36.2770   -4.3060   25.5570 O.co2 137  ASP137     -0.2456
@<TRIPOS>BOND
     1    76    74   ar
     2    75    74   ar
     3    74    73    1
     4    52    53    2
     5    52    51    1
     6    72    73    2
     7    72    69    1
     8    50    51    1
     9    51    54    1
    10    69    68    1
    11    69    70    1
    12    68    59   am
    13    54    55    1
    14    54    56    1
    15    59    58    1
    16    59    60    2
    17    70    77   am
    18    70    71    2
    19    95    93    1
    20    80    79    2
    21    58    57    1
    22    58    61    1
    23    94    93    1
    24    77    78    1
    25    93    92    1
    26    63    65   ar
    27    63    62   ar
    28    65    67   ar
    29    79    78    1
    30    79    88   am
    31    61    62    1
    32    78    81    1
    33   152   151    2
    34    62    64   ar
    35    81    82    1
    36    92    89    1
    37   157   158    1
    38    88    89    1
    39    67    66   ar
    40    89    90    1
    41   104   102   ar
    42   104   105   ar
    43   158   159    1
    44   158   161    1
    45   151   150    1
    46   102   101   ar
    47   164   165    2
    48   164   163    1
    49    64    66   ar
    50    36    37    1
    51   159   162   am
    52   159   160    2
    53   162   163    1
    54    82    84   ar
    55    82    83   ar
    56    84    86   ar
    57    39    38    2
    58   153   150    1
    59   153   154    1
    60   163   166    1
    61   105   103   ar
    62   150   149    1
    63   155   154    1
    64    90    96   am
    65    90    91    2
    66    96    97    1
    67   101   103   ar
    68   101   100    1
    69    37    40    1
    70    37    38    1
    71   154   156    1
    72    86    87   ar
    73    83    85   ar
    74   144   143    2
    75   100    97    1
    76   166   167    1
    77    97    98    1
    78   168   167   ar
    79   109   108    2
    80   143   142    1
    81    87    85   ar
    82   167   169   ar
    83   106    98   am
    84   106   107    1
    85    41    42    1
    86    98    99    2
    87   147   146    2
    88    44    43    2
    89    45    42    1
    90    45    46    1
    91   108   107    1
    92   108   115   am
    93   145   146    1
    94   145   142    1
    95   146   148   am
    96   142   141    1
    97    48    49    1
    98    48    47    1
    99   107   110    1
   100    42    43    1
   101    46    47    1
   102   110   111    1
   103   116   115    1
   104   116   117    1
   105   116   119    1
   106   117   118    2
   107   141   134   am
   108     8     6    1
   109    34    33    1
   110   119   120    1
   111   135   134    2
   112   113   112    2
   113   111   112    1
   114   112   114   am
   115   134   133    1
   116     6     5    1
   117    35    33    1
   118    33    30    1
   119   132   133    1
   120   120   122   ar
   121   120   121   ar
   122    30    31    1
   123    30    29    1
   124   133   136    1
   125    31    32    2
   126     7     5    1
   127     5     2    1
   128   131   130    1
   129   136   137    1
   130    27    26    1
   131    26    28    1
   132    26    23    1
   133   130   129    1
   134   125   124    1
   135   125   126    2
   136   123   124    1
   137   127   124    1
   138   127   128    1
   139     2     1    1
   140     2     3    1
   141    22    23    1
   142    22    20   am
   143     4     3    2
   144    19    20    1
   145    19    18    1
   146   137   138    1
   147    23    24    1
   148   128   129    1
   149    24    25    2
   150    20    21    2
   151   140   138   am
   152    18    11   am
   153   138   139    2
   154    11    12    2
   155    11    10    1
   156     9    10    1
   157    10    13    1
   158    13    14    1
   159    14    15    1
   160    16    15   ar
   161    15    17   ar
