@<TRIPOS>MOLECULE
tmp/3lftA00.pdb
 121 110 0 0 0
SMALL
GASTEIGER

@<TRIPOS>ATOM
      1  N         14.9630   -1.6360   -9.4430 N.3    13  HIS13      -0.1241
      2  CA        15.5460   -2.7810   -8.7610 C.3    13  HIS13       0.1621
      3  C         14.3840   -3.5750   -8.1590 C.2    13  HIS13       0.2264
      4  O         13.3020   -3.0210   -7.9630 O.2    13  HIS13      -0.2867
      5  CB        16.7090   -2.3690   -7.8360 C.3    13  HIS13       0.0745
      6  CG        16.3210   -1.6160   -6.6070 C.ar   13  HIS13       0.0817
      7  ND1       16.6580   -0.2970   -6.3770 N.ar   13  HIS13      -0.2268
      8  CD2       15.7370   -2.0630   -5.4740 C.ar   13  HIS13       0.1154
      9  CE1       16.2700    0.0410   -5.1570 C.ar   13  HIS13       0.1986
     10  NE2       15.6900   -1.0090   -4.6000 N.ar   13  HIS13      -0.2212
     11  N         13.1830   -4.7450   -5.4350 N.3    15  SER15      -0.1202
     12  CA        12.4510   -4.2720   -4.2530 C.3    15  SER15       0.2020
     13  C         11.4970   -3.1280   -4.5890 C.2    15  SER15       0.2618
     14  O         10.3460   -3.1200   -4.1560 O.2    15  SER15      -0.2717
     15  CB        13.4130   -3.8390   -3.1510 C.3    15  SER15       0.2103
     16  OG        14.2750   -4.8960   -2.7600 O.3    15  SER15      -0.2182
     17  N         11.9580   -2.1760   -5.3950 N.am   16  LEU16      -0.1979
     18  CA        11.0820   -1.0680   -5.7660 C.3    16  LEU16       0.1596
     19  C          9.9210   -1.5290   -6.6330 C.2    16  LEU16       0.2287
     20  O          8.8060   -1.0120   -6.4920 O.2    16  LEU16      -0.2864
     21  CB        11.8320    0.0970   -6.4240 C.3    16  LEU16       0.0297
     22  CG        13.0020    0.7100   -5.6390 C.3    16  LEU16       0.0022
     23  CD1       13.4360    2.0150   -6.2870 C.3    16  LEU16       0.0001
     24  CD2       12.7110    0.9520   -4.1560 C.3    16  LEU16       0.0001
     25  N          7.3870   -2.8890   -4.2090 N.3    19  ILE19      -0.1245
     26  CA         6.6980   -1.7740   -3.5720 C.3    19  ILE19       0.1561
     27  C          5.6200   -1.2030   -4.5000 C.2    19  ILE19       0.2260
     28  O          4.4810   -0.9750   -4.0620 O.2    19  ILE19      -0.2867
     29  CB         7.6970   -0.6960   -3.1200 C.3    19  ILE19       0.0252
     30  CG1        8.5660   -1.2700   -1.9950 C.3    19  ILE19       0.0019
     31  CG2        6.9670    0.5810   -2.6770 C.3    19  ILE19       0.0019
     32  CD1        9.7610   -0.3920   -1.7020 C.3    19  ILE19       0.0001
     33  N         11.3170    5.5710   -3.3230 N.3    68  ALA68      -0.1231
     34  CA        12.7190    5.7390   -2.8920 C.3    68  ALA68       0.1694
     35  C         13.0510    7.2130   -2.6880 C.2    68  ALA68       0.2592
     36  O         12.4480    8.1080   -3.2990 O.2    68  ALA68      -0.2718
     37  CB        13.7360    5.0380   -3.8420 C.3    68  ALA68       0.0304
     38  N         14.0070    7.4540   -1.8100 N.am   69  THR69      -0.1953
     39  CA        14.3580    8.7850   -1.3480 C.3    69  THR69       0.1897
     40  C         14.6710    9.7860   -2.4830 C.2    69  THR69       0.2313
     41  O         14.1100   10.8740   -2.4750 O.2    69  THR69      -0.2863
     42  CB        15.4800    8.7050   -0.2680 C.3    69  THR69       0.1794
     43  OG1       14.9390    8.1120    0.9090 O.3    69  THR69      -0.2208
     44  CG2       16.0240   10.0790    0.0980 C.3    69  THR69       0.0378
     45  N          8.4770    4.3180    0.8870 N.3    87  ALA87      -0.1245
     46  CA         9.6930    3.6870    1.4120 C.3    87  ALA87       0.1562
     47  C         10.9060    4.6170    1.3930 C.2    87  ALA87       0.2260
     48  O         11.9000    4.3830    0.6960 O.2    87  ALA87      -0.2867
     49  CB         9.9840    2.3510    0.6970 C.3    87  ALA87       0.0290
     50  N         13.7450    5.8350    3.8420 N.3    89  THR89      -0.1218
     51  CA        14.3120    5.2960    5.0860 C.3    89  THR89       0.1862
     52  C         14.4350    6.3300    6.2080 C.2    89  THR89       0.2287
     53  O         14.1910    6.0290    7.3760 O.2    89  THR89      -0.2866
     54  CB        15.6520    4.5870    4.7920 C.3    89  THR89       0.1770
     55  OG1       15.3690    3.3910    4.0610 O.3    89  THR89      -0.2211
     56  CG2       16.4800    4.2620    6.0280 C.3    89  THR89       0.0375
     57  N         10.8340    3.0540    5.6740 N.3   112  ASP112     -0.1239
     58  CA        11.4400    1.7670    6.0330 C.3   112  ASP112      0.1674
     59  C         12.7590    1.9930    6.7670 C.2   112  ASP112      0.2266
     60  O         13.8200    2.2040    6.1570 O.2   112  ASP112     -0.2867
     61  CB        11.6220    0.8930    4.7670 C.3   112  ASP112      0.1410
     62  CG        12.3500    1.5910    3.6180 C.2   112  ASP112      0.3668
     63  OD1       12.1850    2.8150    3.4250 O.co2 112  ASP112     -0.2456
     64  OD2       13.0350    0.8660    2.8300 O.co2 112  ASP112     -0.2456
     65  N         19.4900    8.4940    2.3970 N.3   143  ASN143     -0.1240
     66  CA        19.0780    7.3170    3.1800 C.3   143  ASN143      0.1653
     67  C         20.2370    6.5110    3.7150 C.2   143  ASN143      0.2266
     68  O         20.1940    6.0210    4.8560 O.2   143  ASN143     -0.2867
     69  CB        18.1500    6.4030    2.3560 C.3   143  ASN143      0.1155
     70  CG        18.5530    6.2880    0.8910 C.2   143  ASN143      0.2627
     71  OD1       18.5300    7.2890    0.1550 O.2   143  ASN143     -0.2716
     72  ND2       18.9510    5.0860    0.4600 N.am  143  ASN143     -0.0877
     73  N         20.0840   -0.1850    3.0890 N.3   190  ILE190     -0.1231
     74  CA        18.9590   -0.0590    2.1600 C.3   190  ILE190      0.1692
     75  C         19.3440    1.0730    1.1830 C.2   190  ILE190      0.2592
     76  O         19.0550    2.2480    1.4390 O.2   190  ILE190     -0.2718
     77  CB        17.6240    0.2080    2.9010 C.3   190  ILE190      0.0266
     78  CG1       17.3690   -0.8190    4.0080 C.3   190  ILE190      0.0019
     79  CG2       16.4740    0.1870    1.9150 C.3   190  ILE190      0.0020
     80  CD1       16.1900   -0.4210    4.9010 C.3   190  ILE190      0.0001
     81  N         20.0350    0.6920    0.1140 N.am  191  ASP191     -0.1960
     82  CA        20.7600    1.6220   -0.7470 C.3   191  ASP191      0.1840
     83  C         20.3630    1.3210   -2.1880 C.2   191  ASP191      0.2622
     84  O         20.5570    0.2020   -2.6780 O.2   191  ASP191     -0.2715
     85  CB        22.2670    1.4260   -0.5320 C.3   191  ASP191      0.1450
     86  CG        23.1000    2.3860   -1.3460 C.2   191  ASP191      0.3671
     87  OD1       23.1580    2.2370   -2.5870 O.co2 191  ASP191     -0.2456
     88  OD2       23.6800    3.3240   -0.7370 O.co2 191  ASP191     -0.2456
     89  N         19.7980    2.3050   -2.8820 N.am  192  ASN192     -0.1972
     90  CA        19.2950    2.0740   -4.2400 C.3   192  ASN192      0.1688
     91  C         20.4010    1.8310   -5.2600 C.2   192  ASN192      0.2292
     92  O         20.2180    1.0540   -6.2000 O.2   192  ASN192     -0.2864
     93  CB        18.4610    3.2620   -4.7040 C.3   192  ASN192      0.1181
     94  CG        17.2350    3.4470   -3.8580 C.2   192  ASN192      0.2629
     95  OD1       16.2700    2.6970   -3.9910 O.2   192  ASN192     -0.2716
     96  ND2       17.2500    4.4460   -2.9810 N.am  192  ASN192     -0.0877
     97  N         21.7060   -1.6320   -4.6530 N.3   195  ALA195     -0.1245
     98  CA        20.6610   -2.6080   -5.0160 C.3   195  ALA195      0.1562
     99  C         20.5220   -2.7530   -6.5290 C.2   195  ALA195      0.2260
    100  O         20.2830   -3.8510   -7.0500 O.2   195  ALA195     -0.2867
    101  CB        19.3160   -2.2580   -4.3880 C.3   195  ALA195      0.0290
    102  N         20.9660   -5.4340    2.7480 N.3   215  SER215     -0.1202
    103  CA        19.6710   -5.1170    3.3750 C.3   215  SER215      0.2020
    104  C         18.4620   -5.1820    2.4580 C.2   215  SER215      0.2618
    105  O         17.6670   -4.2270    2.3800 O.2   215  SER215     -0.2717
    106  CB        19.7660   -3.7530    4.0670 C.3   215  SER215      0.2103
    107  OG        20.8120   -3.7550    5.0180 O.3   215  SER215     -0.2182
    108  N         18.3060   -6.3050    1.7540 N.am  216  ALA216     -0.1979
    109  CA        17.0840   -6.5890    1.0010 C.3   216  ALA216      0.1597
    110  C         16.9910   -8.0500    0.6630 C.2   216  ALA216      0.2287
    111  O         17.9940   -8.6740    0.3120 O.2   216  ALA216     -0.2864
    112  CB        17.0430   -5.7920   -0.3050 C.3   216  ALA216      0.0319
    113  N          8.5850   -5.7860    1.6270 N.3   231  GLN231     -0.1245
    114  CA         8.4490   -4.7640    0.5970 C.3   231  GLN231      0.1566
    115  C          7.0220   -4.6070    0.1300 C.2   231  GLN231      0.2260
    116  O          6.5410   -3.4900   -0.0850 O.2   231  GLN231     -0.2867
    117  CB         9.3500   -5.0750   -0.5830 C.3   231  GLN231      0.0367
    118  CG        10.8340   -5.2180   -0.1960 C.3   231  GLN231      0.0905
    119  CD        11.3910   -3.9310    0.3680 C.2   231  GLN231      0.2608
    120  OE1       11.6250   -2.9850   -0.3930 O.2   231  GLN231     -0.2717
    121  NE2       11.6120   -3.8730    1.6740 N.am  231  GLN231     -0.0878
@<TRIPOS>BOND
     1     1     2    1
     2     2     3    1
     3     2     5    1
     4     3     4    2
     5     5     6    1
     6   100    99    2
     7    19    20    2
     8    19    18    1
     9     6     7   ar
    10     6     8   ar
    11    99    98    1
    12    21    18    1
    13    21    22    1
    14     7     9   ar
    15    23    22    1
    16    92    91    2
    17    18    17    1
    18    22    24    1
    19     8    10   ar
    20    11    12    1
    21    17    13   am
    22    91    90    1
    23     9    10   ar
    24    98    97    1
    25    98   101    1
    26    93    90    1
    27    93    94    1
    28    13    12    1
    29    13    14    2
    30    27    28    2
    31    27    26    1
    32    12    15    1
    33    90    89    1
    34    25    26    1
    35    95    94    2
    36    94    96   am
    37    37    34    1
    38    26    29    1
    39    33    34    1
    40    36    35    2
    41    15    16    1
    42    29    31    1
    43    29    30    1
    44    34    35    1
    45    89    83   am
    46    35    38   am
    47    84    83    2
    48    87    86   ar
    49    40    41    2
    50    40    39    1
    51    83    82    1
    52    30    32    1
    53    38    39    1
    54    39    42    1
    55    86    88   ar
    56    86    85    1
    57    82    85    1
    58    82    81    1
    59   117   118    1
    60   117   114    1
    61   120   119    2
    62   112   109    1
    63    42    44    1
    64    42    43    1
    65   118   119    1
    66   116   115    2
    67    81    75   am
    68   115   114    1
    69    71    70    2
    70   111   110    2
    71   119   121   am
    72    72    70   am
    73   114   113    1
    74   110   109    1
    75    48    47    2
    76    49    46    1
    77    45    46    1
    78    70    69    1
    79   109   108    1
    80    75    76    2
    81    75    74    1
    82    47    46    1
    83   108   104   am
    84    79    77    1
    85    74    77    1
    86    74    73    1
    87    69    66    1
    88   105   104    2
    89    65    66    1
    90   104   103    1
    91   102   103    1
    92    64    62   ar
    93    77    78    1
    94    66    67    1
    95   103   106    1
    96    63    62   ar
    97    62    61    1
    98    67    68    2
    99    50    51    1
   100    78    80    1
   101    55    54    1
   102   106   107    1
   103    61    58    1
   104    54    51    1
   105    54    56    1
   106    51    52    1
   107    57    58    1
   108    58    59    1
   109    60    59    2
   110    52    53    2
