@<TRIPOS>MOLECULE
tmp/3lfzA00.pdb
 197 188 0 0 0
SMALL
GASTEIGER

@<TRIPOS>ATOM
      1  N          9.5420    9.9390   27.7820 N.3    36  ARG36      -0.1231
      2  CA        10.6220   10.2710   26.8790 C.3    36  ARG36       0.1694
      3  C         11.9560   10.5250   27.6070 C.2    36  ARG36       0.2591
      4  O         12.8920   11.0820   27.0200 O.2    36  ARG36      -0.2718
      5  CB        10.2090   11.4180   25.9420 C.3    36  ARG36       0.0321
      6  CG         9.6990   10.9400   24.5680 C.3    36  ARG36       0.0489
      7  CD         8.3300   10.2350   24.6110 C.3    36  ARG36       0.2205
      8  NE         8.2280    9.1780   23.5990 N.pl3  36  ARG36      -0.0865
      9  CZ         7.0890    8.7310   23.0680 C.cat  36  ARG36       0.5346
     10  NH1        5.9210    9.2510   23.4310 N.pl3  36  ARG36       0.1354
     11  NH2        7.1200    7.7640   22.1590 N.pl3  36  ARG36       0.1354
     12  N         12.0410   10.0890   28.8700 N.am   37  ARG37      -0.1980
     13  CA        13.2570   10.2460   29.6860 C.3    37  ARG37       0.1597
     14  C         13.4760    9.0480   30.6190 C.2    37  ARG37       0.2287
     15  O         12.6810    8.8090   31.5320 O.2    37  ARG37      -0.2864
     16  CB        13.1890   11.5490   30.4890 C.3    37  ARG37       0.0334
     17  CG        14.4460   11.8810   31.2880 C.3    37  ARG37       0.0492
     18  CD        14.1790   12.9710   32.3270 C.3    37  ARG37       0.2205
     19  NE        13.4470   14.1030   31.7600 N.pl3  37  ARG37      -0.0865
     20  CZ        14.0110   15.2000   31.2600 C.cat  37  ARG37       0.5346
     21  NH1       15.3320   15.3390   31.2560 N.pl3  37  ARG37       0.1354
     22  NH2       13.2470   16.1650   30.7670 N.pl3  37  ARG37       0.1354
     23  N         21.5170    8.4930   31.9710 N.3    51  ILE51      -0.1245
     24  CA        20.1770    8.9030   31.5690 C.3    51  ILE51       0.1561
     25  C         20.1300    8.9130   30.0420 C.2    51  ILE51       0.2260
     26  O         21.1230    9.2310   29.3830 O.2    51  ILE51      -0.2867
     27  CB        19.7730   10.2850   32.1860 C.3    51  ILE51       0.0252
     28  CG1       18.2780   10.5670   31.9890 C.3    51  ILE51       0.0019
     29  CG2       20.6570   11.4300   31.6550 C.3    51  ILE51       0.0019
     30  CD1       17.6830   11.5030   33.0450 C.3    51  ILE51       0.0001
     31  N         17.4250   10.1360   26.8390 N.3    53  THR53      -0.1203
     32  CA        16.1940   10.7870   26.4150 C.3    53  THR53       0.1994
     33  C         16.0170   10.6240   24.9170 C.2    53  THR53       0.2619
     34  O         16.8940   10.0860   24.2300 O.2    53  THR53      -0.2717
     35  CB        16.1690   12.3020   26.7640 C.3    53  THR53       0.1784
     36  OG1       17.0640   13.0160   25.9020 O.3    53  THR53      -0.2211
     37  CG2       16.5460   12.5470   28.2200 C.3    53  THR53       0.0376
     38  N         14.8770   11.0960   24.4170 N.am   54  SER54      -0.1937
     39  CA        14.5980   11.0870   22.9880 C.3    54  SER54       0.2055
     40  C         15.6190   11.9160   22.2200 C.2    54  SER54       0.2643
     41  O         15.8900   11.6360   21.0540 O.2    54  SER54      -0.2714
     42  CB        13.1810   11.5890   22.7050 C.3    54  SER54       0.2130
     43  OG        13.0410   12.9540   23.0510 O.3    54  SER54      -0.2179
     44  N         16.1810   12.9300   22.8770 N.am   55  MET55      -0.1962
     45  CA        17.2300   13.7500   22.2690 C.3    55  MET55       0.1736
     46  C         18.5080   12.9590   21.9900 C.2    55  MET55       0.2616
     47  O         19.1600   13.1860   20.9740 O.2    55  MET55      -0.2715
     48  CB        17.5290   14.9900   23.1090 C.3    55  MET55       0.0427
     49  CG        16.7470   16.2280   22.6970 C.3    55  MET55       0.0599
     50  SD        17.2810   16.9330   21.1170 S.3    55  MET55      -0.1393
     51  CE        16.0260   16.3040   20.0180 C.3    55  MET55       0.0692
     52  N         18.8530   12.0290   22.8760 N.am   56  ASP56      -0.1971
     53  CA        19.9860   11.1320   22.6390 C.3    56  ASP56       0.1709
     54  C         19.7270   10.1980   21.4630 C.2    56  ASP56       0.2293
     55  O         20.6510    9.8500   20.7230 O.2    56  ASP56      -0.2864
     56  CB        20.2980   10.3160   23.8890 C.3    56  ASP56       0.1436
     57  CG        20.6980   11.1820   25.0580 C.2    56  ASP56       0.3671
     58  OD1       21.6490   11.9760   24.9080 O.co2  56  ASP56      -0.2456
     59  OD2       20.0630   11.0620   26.1260 O.co2  56  ASP56      -0.2456
     60  N         26.7490   10.9280   18.1290 N.3    66  LYS66      -0.1245
     61  CA        26.3720    9.5420   18.4350 C.3    66  LYS66       0.1561
     62  C         26.0040    8.7340   17.1850 C.2    66  LYS66       0.2260
     63  O         26.0250    7.5030   17.2020 O.2    66  LYS66      -0.2867
     64  CB        25.2670    9.4980   19.5000 C.3    66  LYS66       0.0271
     65  CG        25.7600    9.9710   20.8620 C.3    66  LYS66       0.0035
     66  CD        24.6450   10.2530   21.8460 C.3    66  LYS66       0.0206
     67  CE        25.1880   11.0760   23.0080 C.3    66  LYS66       0.1093
     68  NZ        24.3160   11.0460   24.2120 N.3    66  LYS66      -0.1314
     69  N         23.8340    9.5560   28.4450 N.3    91  GLU91      -0.1231
     70  CA        24.5740   10.6230   29.0970 C.3    91  GLU91       0.1699
     71  C         24.9840   10.1690   30.4880 C.2    91  GLU91       0.2592
     72  O         24.1740    9.6160   31.2290 O.2    91  GLU91      -0.2718
     73  CB        23.7370   11.8970   29.1690 C.3    91  GLU91       0.0402
     74  CG        23.6320   12.6250   27.8430 C.3    91  GLU91       0.1161
     75  CD        24.9640   13.1830   27.3720 C.2    91  GLU91       0.3649
     76  OE1       25.5040   14.0790   28.0550 O.co2  91  GLU91      -0.2457
     77  OE2       25.4660   12.7270   26.3200 O.co2  91  GLU91      -0.2457
     78  N         26.2500   10.3840   30.8270 N.am   92  GLU92      -0.1966
     79  CA        26.7480   10.0960   32.1680 C.3    92  GLU92       0.1733
     80  C         26.9850   11.4220   32.8880 C.2    92  GLU92       0.2616
     81  O         26.6960   12.4780   32.3250 O.2    92  GLU92      -0.2715
     82  CB        28.0120    9.2450   32.0910 C.3    92  GLU92       0.0429
     83  CG        27.8240    7.9720   31.2700 C.3    92  GLU92       0.1163
     84  CD        29.0520    7.0910   31.2610 C.2    92  GLU92       0.3649
     85  OE1       29.4150    6.5920   30.1750 O.co2  92  GLU92      -0.2457
     86  OE2       29.6560    6.9020   32.3380 O.co2  92  GLU92      -0.2457
     87  N         27.4890   11.3830   34.1220 N.am   93  ASN93      -0.1958
     88  CA        27.6270   12.6050   34.9200 C.3    93  ASN93       0.1819
     89  C         26.2570   13.2980   35.0000 C.2    93  ASN93       0.2621
     90  O         26.1140   14.4710   34.6450 O.2    93  ASN93      -0.2715
     91  CB        28.7010   13.5250   34.3020 C.3    93  ASN93       0.1195
     92  CG        29.1090   14.6780   35.2150 C.2    93  ASN93       0.2630
     93  OD1       28.9230   14.6300   36.4330 O.2    93  ASN93      -0.2716
     94  ND2       29.6820   15.7200   34.6210 N.am   93  ASN93      -0.0877
     95  N         25.2530   12.5450   35.4530 N.am   94  VAL94      -0.1963
     96  CA        23.8470   12.9800   35.4530 C.3    94  VAL94       0.1727
     97  C         23.5910   14.1160   36.4440 C.2    94  VAL94       0.2616
     98  O         24.1730   14.1360   37.5260 O.2    94  VAL94      -0.2715
     99  CB        22.8970   11.7900   35.7830 C.3    94  VAL94       0.0290
    100  CG1       21.4250   12.2050   35.6990 C.3    94  VAL94       0.0023
    101  CG2       23.1660   10.6150   34.8560 C.3    94  VAL94       0.0023
    102  N         22.7280   15.0590   36.0730 N.am   95  ILE95      -0.1977
    103  CA        22.2760   16.0810   37.0170 C.3    95  ILE95       0.1596
    104  C         21.1090   15.5380   37.8470 C.2    95  ILE95       0.2287
    105  O         20.0210   15.2870   37.3230 O.2    95  ILE95      -0.2864
    106  CB        21.8920   17.4050   36.3190 C.3    95  ILE95       0.0276
    107  CG1       23.0950   17.9670   35.5580 C.3    95  ILE95       0.0022
    108  CG2       21.3890   18.4260   37.3450 C.3    95  ILE95       0.0022
    109  CD1       22.7610   19.0800   34.5910 C.3    95  ILE95       0.0001
    110  N         19.8670   23.8230   32.1040 N.3   114  ASN114     -0.1225
    111  CA        19.2460   23.3650   30.8600 C.3   114  ASN114      0.1785
    112  C         18.8190   21.8860   30.8870 C.2   114  ASN114      0.2597
    113  O         19.1410   21.1160   29.9750 O.2   114  ASN114     -0.2718
    114  CB        20.1850   23.6470   29.6730 C.3   114  ASN114      0.1169
    115  CG        19.4750   23.5970   28.3280 C.2   114  ASN114      0.2627
    116  OD1       18.2780   23.8730   28.2290 O.2   114  ASN114     -0.2716
    117  ND2       20.2180   23.2550   27.2820 N.am  114  ASN114     -0.0877
    118  N         18.1310   21.4910   31.9570 N.am  115  VAL115     -0.1966
    119  CA        17.4560   20.1880   32.0190 C.3   115  VAL115      0.1727
    120  C         15.9740   20.3970   32.3310 C.2   115  VAL115      0.2617
    121  O         15.5940   21.4130   32.9190 O.2   115  VAL115     -0.2715
    122  CB        18.0840   19.2110   33.0580 C.3   115  VAL115      0.0290
    123  CG1       19.5040   18.8270   32.6590 C.3   115  VAL115      0.0023
    124  CG2       18.0450   19.7930   34.4780 C.3   115  VAL115      0.0023
    125  N         15.1440   19.4400   31.9290 N.am  116  GLY116     -0.1940
    126  CA        13.7040   19.5190   32.1590 C.3   116  GLY116      0.2014
    127  C         13.1950   18.5110   33.1670 C.2   116  GLY116      0.2639
    128  O         12.0170   18.5170   33.5210 O.2   116  GLY116     -0.2714
    129  N         14.0870   17.6410   33.6250 N.am  117  GLY117     -0.1939
    130  CA        13.7310   16.5840   34.5600 C.3   117  GLY117      0.2014
    131  C         14.9870   16.0540   35.2070 C.2   117  GLY117      0.2639
    132  O         16.0250   15.9420   34.5510 O.2   117  GLY117     -0.2714
    133  N         14.9070   15.7360   36.4930 N.am  118  ALA118     -0.1963
    134  CA        16.0750   15.2350   37.2050 C.3   118  ALA118      0.1713
    135  C         15.7350   14.0850   38.1380 C.2   118  ALA118      0.2458
    136  O         14.7220   14.1330   38.8370 O.2   118  ALA118     -0.2730
    137  CB        16.7650   16.3630   37.9740 C.3   118  ALA118      0.0333
    138  N         16.5860   13.0440   38.1470 N.am  119  PRO119     -0.2727
    139  CA        16.4590   11.9520   39.1020 C.3   119  PRO119      0.1402
    140  C         16.6710   12.4500   40.5250 C.2   119  PRO119      0.2269
    141  O         17.5350   13.2950   40.7710 O.2   119  PRO119     -0.2865
    142  CB        17.5930   11.0010   38.7010 C.3   119  PRO119      0.0296
    143  CG        17.8760   11.3260   37.2810 C.3   119  PRO119      0.0237
    144  CD        17.6840   12.8030   37.1940 C.3   119  PRO119      0.0939
    145  N          9.9080   19.5970   35.1170 N.3   133  GLU133     -0.1245
    146  CA         9.3680   20.9520   35.1200 C.3   133  GLU133      0.1567
    147  C          7.8420   20.9370   35.1480 C.2   133  GLU133      0.2260
    148  O          7.2230   21.8330   35.7220 O.2   133  GLU133     -0.2867
    149  CB         9.8510   21.7250   33.8940 C.3   133  GLU133      0.0388
    150  CG        11.3600   21.8390   33.7870 C.3   133  GLU133      0.1160
    151  CD        11.8000   22.4750   32.4890 C.2   133  GLU133      0.3649
    152  OE1       12.5260   23.4850   32.5520 O.co2 133  GLU133     -0.2457
    153  OE2       11.4150   21.9730   31.4110 O.co2 133  GLU133     -0.2457
    154  N         19.9140   22.2220   21.1300 N.3   178  GLY178     -0.1225
    155  CA        19.3490   21.6510   22.3550 C.3   178  GLY178      0.1811
    156  C         17.8540   21.8900   22.4980 C.2   178  GLY178      0.2280
    157  O         17.3440   22.0020   23.6140 O.2   178  GLY178     -0.2866
    158  N         14.1390   20.3620   21.6650 N.3   180  ARG180     -0.1231
    159  CA        13.3800   19.1710   21.2810 C.3   180  ARG180      0.1694
    160  C         12.2290   19.4800   20.3250 C.2   180  ARG180      0.2591
    161  O         11.8240   18.6170   19.5440 O.2   180  ARG180     -0.2718
    162  CB        12.8140   18.4720   22.5120 C.3   180  ARG180      0.0321
    163  CG        13.8270   18.1710   23.6030 C.3   180  ARG180      0.0489
    164  CD        13.2140   17.2720   24.6610 C.3   180  ARG180      0.2205
    165  NE        12.2260   16.3770   24.0710 N.pl3 180  ARG180     -0.0865
    166  CZ        10.9430   16.3480   24.4110 C.cat 180  ARG180      0.5346
    167  NH1       10.4940   17.1360   25.3760 N.pl3 180  ARG180      0.1354
    168  NH2       10.1160   15.5080   23.8020 N.pl3 180  ARG180      0.1354
    169  N         11.6890   20.6930   20.3920 N.am  181  ARG181     -0.1980
    170  CA        10.6000   21.0600   19.4870 C.3   181  ARG181      0.1597
    171  C         10.8810   22.2710   18.6420 C.2   181  ARG181      0.2287
    172  O         11.3610   23.3020   19.1190 O.2   181  ARG181     -0.2864
    173  CB         9.2530   21.2240   20.1900 C.3   181  ARG181      0.0334
    174  CG         9.3270   21.6570   21.6070 C.3   181  ARG181      0.0492
    175  CD         9.2170   20.4620   22.4960 C.3   181  ARG181      0.2205
    176  NE         9.2950   20.8670   23.8850 N.pl3 181  ARG181     -0.0865
    177  CZ         9.0500   20.0580   24.9010 C.cat 181  ARG181      0.5346
    178  NH1        8.7150   18.8050   24.6640 N.pl3 181  ARG181      0.1354
    179  NH2        9.1400   20.5010   26.1460 N.pl3 181  ARG181      0.1354
    180  N          7.7230   25.1950   28.9910 N.3   272  GLU272     -0.1231
    181  CA         7.6050   24.9620   30.4280 C.3   272  GLU272      0.1699
    182  C          8.7210   25.6300   31.2160 C.2   272  GLU272      0.2592
    183  O          8.4930   26.0950   32.3350 O.2   272  GLU272     -0.2718
    184  CB         7.6190   23.4690   30.7310 C.3   272  GLU272      0.0402
    185  CG         6.4990   22.6900   30.0840 C.3   272  GLU272      0.1161
    186  CD         6.5330   21.2230   30.4540 C.2   272  GLU272      0.3649
    187  OE1        7.6060   20.5950   30.3390 O.co2 272  GLU272     -0.2457
    188  OE2        5.4770   20.6980   30.8600 O.co2 272  GLU272     -0.2457
    189  N          9.9250   25.6630   30.6450 N.am  273  LYS273     -0.1980
    190  CA        11.0500   26.3190   31.3080 C.3   273  LYS273      0.1596
    191  C         10.7920   27.8150   31.4550 C.2   273  LYS273      0.2287
    192  O         11.1010   28.3980   32.4950 O.2   273  LYS273     -0.2864
    193  CB        12.3730   26.0750   30.5780 C.3   273  LYS273      0.0298
    194  CG        13.6030   26.3620   31.4540 C.3   273  LYS273      0.0038
    195  CD        14.9240   26.1810   30.7090 C.3   273  LYS273      0.0206
    196  CE        15.1430   24.7410   30.2580 C.3   273  LYS273      0.1093
    197  NZ        15.0350   23.7510   31.3680 N.3   273  LYS273     -0.1314
@<TRIPOS>BOND
     1    62    63    2
     2    62    61    1
     3    60    61    1
     4    61    64    1
     5   171   172    2
     6   171   170    1
     7   170   173    1
     8   170   169    1
     9    64    65    1
    10   161   160    2
    11    51    50    1
    12   173   174    1
    13   160   169   am
    14   160   159    1
    15    55    54    2
    16    65    66    1
    17    47    46    2
    18    41    40    2
    19    50    49    1
    20   154   155    1
    21   159   158    1
    22   159   162    1
    23    54    53    1
    24   174   175    1
    25    66    67    1
    26    46    45    1
    27    46    52   am
    28    11     9    1
    29    40    44   am
    30    40    39    1
    31    45    44    1
    32    45    48    1
    33   155   156    1
    34   175   176    1
    35   156   157    2
    36   162   163    1
    37    53    52    1
    38    53    56    1
    39    49    48    1
    40    42    39    1
    41    42    43    1
    42    39    38    1
    43    67    68    1
    44     9    10    1
    45     9     8    2
    46     8     7    1
    47   163   164    1
    48   168   166    1
    49   176   177    2
    50    56    57    1
    51   165   166    2
    52   165   164    1
    53    34    33    2
    54   166   167    1
    55    38    33   am
    56     6     7    1
    57     6     5    1
    58   178   177    1
    59   177   179    1
    60    58    57   ar
    61    33    32    1
    62    57    59   ar
    63    36    35    1
    64     5     2    1
    65    77    75   ar
    66    32    35    1
    67    32    31    1
    68    35    37    1
    69     2     3    1
    70     2     1    1
    71     4     3    2
    72   117   115   am
    73    75    74    1
    74    75    76   ar
    75     3    12   am
    76    74    73    1
    77   116   115    2
    78   115   114    1
    79    69    70    1
    80    12    13    1
    81   180   181    1
    82    70    73    1
    83    70    71    1
    84    26    25    2
    85   114   111    1
    86    13    16    1
    87    13    14    1
    88   113   112    2
    89    25    24    1
    90   185   186    1
    91   185   184    1
    92    85    84   ar
    93   196   195    1
    94   196   197    1
    95   187   186   ar
    96   181   184    1
    97   181   182    1
    98   186   188   ar
    99    71    78   am
   100    71    72    2
   101    16    17    1
   102   193   190    1
   103   193   194    1
   104    14    15    2
   105   189   182   am
   106   189   190    1
   107   195   194    1
   108    22    20    1
   109    78    79    1
   110   111   112    1
   111   111   110    1
   112   112   118   am
   113   182   183    2
   114    21    20    1
   115    20    19    2
   116    84    83    1
   117    84    86   ar
   118    83    82    1
   119    17    18    1
   120   190   191    1
   121   153   151   ar
   122   191   192    2
   123    24    23    1
   124    24    27    1
   125    29    27    1
   126    19    18    1
   127   125   126    1
   128   125   120   am
   129   118   119    1
   130    28    27    1
   131    28    30    1
   132   119   120    1
   133   119   122    1
   134    82    79    1
   135   126   127    1
   136    79    80    1
   137    81    80    2
   138   120   121    2
   139   151   152   ar
   140   151   150    1
   141   123   122    1
   142    80    87   am
   143   122   124    1
   144   127   128    2
   145   127   129   am
   146   129   130    1
   147   150   149    1
   148   149   146    1
   149    87    88    1
   150    91    88    1
   151    91    92    1
   152   132   131    2
   153   130   131    1
   154   109   107    1
   155    94    92   am
   156    90    89    2
   157   101    99    1
   158    88    89    1
   159    89    95   am
   160   145   146    1
   161   146   147    1
   162   147   148    2
   163   131   133   am
   164    92    93    2
   165    96    95    1
   166    96    99    1
   167    96    97    1
   168   107   106    1
   169   100    99    1
   170   102    97   am
   171   102   103    1
   172   106   103    1
   173   106   108    1
   174    97    98    2
   175   133   134    1
   176   103   104    1
   177   144   143    1
   178   144   138    1
   179   134   137    1
   180   134   135    1
   181   143   142    1
   182   105   104    2
   183   135   138   am
   184   135   136    2
   185   138   139    1
   186   142   139    1
   187   139   140    1
   188   140   141    2
