@<TRIPOS>MOLECULE
tmp/3lfzA02.pdb
 164 154 0 0 0
SMALL
GASTEIGER

@<TRIPOS>ATOM
      1  N          5.6240    5.8870   27.1330 N.3    34  LYS34      -0.1245
      2  CA         5.3520    7.2740   26.7740 C.3    34  LYS34       0.1561
      3  C          6.3420    8.2190   27.4430 C.2    34  LYS34       0.2260
      4  O          6.3700    9.4280   27.1500 O.2    34  LYS34      -0.2867
      5  CB         3.9160    7.6420   27.1610 C.3    34  LYS34       0.0271
      6  CG         3.8000    8.9280   27.9760 C.3    34  LYS34       0.0035
      7  CD         2.4350    9.0680   28.6180 C.3    34  LYS34       0.0206
      8  CE         2.3590    8.3400   29.9510 C.3    34  LYS34       0.1093
      9  NZ         1.0580    8.6390   30.6290 N.3    34  LYS34      -0.1314
     10  N          9.5420    9.9390   27.7820 N.3    36  ARG36      -0.1245
     11  CA        10.6220   10.2710   26.8790 C.3    36  ARG36       0.1563
     12  C         11.9560   10.5250   27.6070 C.2    36  ARG36       0.2260
     13  O         12.8920   11.0820   27.0200 O.2    36  ARG36      -0.2867
     14  CB        10.2090   11.4180   25.9420 C.3    36  ARG36       0.0307
     15  CG         9.6990   10.9400   24.5680 C.3    36  ARG36       0.0489
     16  CD         8.3300   10.2350   24.6110 C.3    36  ARG36       0.2205
     17  NE         8.2280    9.1780   23.5990 N.pl3  36  ARG36      -0.0865
     18  CZ         7.0890    8.7310   23.0680 C.cat  36  ARG36       0.5346
     19  NH1        5.9210    9.2510   23.4310 N.pl3  36  ARG36       0.1354
     20  NH2        7.1200    7.7640   22.1590 N.pl3  36  ARG36       0.1354
     21  N          7.2490   19.9160   34.5300 N.3   134  ARG134     -0.1245
     22  CA         5.7960   19.7480   34.5120 C.3   134  ARG134      0.1563
     23  C          5.2180   19.5030   35.9040 C.2   134  ARG134      0.2260
     24  O          4.1870   20.0780   36.2500 O.2   134  ARG134     -0.2867
     25  CB         5.3800   18.6160   33.5680 C.3   134  ARG134      0.0307
     26  CG         3.8820   18.5900   33.2620 C.3   134  ARG134      0.0489
     27  CD         3.6000   17.8500   31.9660 C.3   134  ARG134      0.2205
     28  NE         4.4100   18.3870   30.8750 N.pl3 134  ARG134     -0.0865
     29  CZ         4.8590   17.6780   29.8460 C.cat 134  ARG134      0.5346
     30  NH1        4.5720   16.3880   29.7480 N.pl3 134  ARG134      0.1354
     31  NH2        5.5990   18.2620   28.9140 N.pl3 134  ARG134      0.1354
     32  N         14.1390   20.3620   21.6650 N.3   180  ARG180     -0.1231
     33  CA        13.3800   19.1710   21.2810 C.3   180  ARG180      0.1694
     34  C         12.2290   19.4800   20.3250 C.2   180  ARG180      0.2591
     35  O         11.8240   18.6170   19.5440 O.2   180  ARG180     -0.2718
     36  CB        12.8140   18.4720   22.5120 C.3   180  ARG180      0.0321
     37  CG        13.8270   18.1710   23.6030 C.3   180  ARG180      0.0489
     38  CD        13.2140   17.2720   24.6610 C.3   180  ARG180      0.2205
     39  NE        12.2260   16.3770   24.0710 N.pl3 180  ARG180     -0.0865
     40  CZ        10.9430   16.3480   24.4110 C.cat 180  ARG180      0.5346
     41  NH1       10.4940   17.1360   25.3760 N.pl3 180  ARG180      0.1354
     42  NH2       10.1160   15.5080   23.8020 N.pl3 180  ARG180      0.1354
     43  N         11.6890   20.6930   20.3920 N.am  181  ARG181     -0.1980
     44  CA        10.6000   21.0600   19.4870 C.3   181  ARG181      0.1597
     45  C         10.8810   22.2710   18.6420 C.2   181  ARG181      0.2287
     46  O         11.3610   23.3020   19.1190 O.2   181  ARG181     -0.2864
     47  CB         9.2530   21.2240   20.1900 C.3   181  ARG181      0.0334
     48  CG         9.3270   21.6570   21.6070 C.3   181  ARG181      0.0492
     49  CD         9.2170   20.4620   22.4960 C.3   181  ARG181      0.2205
     50  NE         9.2950   20.8670   23.8850 N.pl3 181  ARG181     -0.0865
     51  CZ         9.0500   20.0580   24.9010 C.cat 181  ARG181      0.5346
     52  NH1        8.7150   18.8050   24.6640 N.pl3 181  ARG181      0.1354
     53  NH2        9.1400   20.5010   26.1460 N.pl3 181  ARG181      0.1354
     54  N          4.1940   21.6540   13.8270 N.3   193  ILE193     -0.1245
     55  CA         5.1920   21.4440   14.8590 C.3   193  ILE193      0.1561
     56  C          5.8040   20.0530   14.6720 C.2   193  ILE193      0.2260
     57  O          5.1330   19.1180   14.2200 O.2   193  ILE193     -0.2867
     58  CB         4.5970   21.6490   16.2860 C.3   193  ILE193      0.0252
     59  CG1        5.7080   21.9030   17.3150 C.3   193  ILE193      0.0019
     60  CG2        3.6670   20.4920   16.6860 C.3   193  ILE193      0.0019
     61  CD1        5.2290   22.5710   18.5990 C.3   193  ILE193      0.0001
     62  N          8.6630   17.4590   16.8750 N.3   195  THR195     -0.1218
     63  CA         9.4390   17.3020   18.1050 C.3   195  THR195      0.1862
     64  C         10.2810   16.0330   18.0540 C.2   195  THR195      0.2287
     65  O         10.0970   15.2030   17.1620 O.2   195  THR195     -0.2866
     66  CB         8.5450   17.2940   19.3720 C.3   195  THR195      0.1770
     67  OG1        8.0320   15.9760   19.5970 O.3   195  THR195     -0.2211
     68  CG2        7.3880   18.2840   19.2500 C.3   195  THR195      0.0375
     69  N         10.1020   13.5360   19.9560 N.3   197  THR197     -0.1203
     70  CA         9.1580   12.4320   20.1640 C.3   197  THR197      0.1994
     71  C          8.6070   11.8850   18.8390 C.2   197  THR197      0.2617
     72  O          8.4290   10.6710   18.6830 O.2   197  THR197     -0.2717
     73  CB         7.9960   12.8680   21.0950 C.3   197  THR197      0.1784
     74  OG1        8.5090   13.1250   22.4080 O.3   197  THR197     -0.2211
     75  CG2        6.9220   11.7930   21.1870 C.3   197  THR197      0.0376
     76  N          8.3510   12.7850   17.8920 N.am  198  ASP198     -0.1973
     77  CA         7.8940   12.4040   16.5540 C.3   198  ASP198      0.1709
     78  C          8.9040   11.5170   15.8310 C.2   198  ASP198      0.2293
     79  O          8.5210   10.6010   15.1000 O.2   198  ASP198     -0.2864
     80  CB         7.6100   13.6470   15.7100 C.3   198  ASP198      0.1436
     81  CG         6.4350   14.4490   16.2270 C.2   198  ASP198      0.3671
     82  OD1        5.3950   13.8390   16.5550 O.co2 198  ASP198     -0.2456
     83  OD2        6.5480   15.6910   16.2960 O.co2 198  ASP198     -0.2456
     84  N          8.5620    8.0870   17.4640 N.3   201  LYS201     -0.1245
     85  CA         7.3310    7.4690   16.9780 C.3   201  LYS201      0.1561
     86  C          7.5420    6.8730   15.5930 C.2   201  LYS201      0.2260
     87  O          7.1190    5.7450   15.3290 O.2   201  LYS201     -0.2867
     88  CB         6.1820    8.4770   16.9540 C.3   201  LYS201      0.0271
     89  CG         5.5890    8.7530   18.3230 C.3   201  LYS201      0.0035
     90  CD         4.5250    9.8340   18.2650 C.3   201  LYS201      0.0206
     91  CE         3.7970    9.9390   19.5950 C.3   201  LYS201      0.1093
     92  NZ         3.0430   11.2200   19.7150 N.3   201  LYS201     -0.1314
     93  N          3.1230   17.5060   13.0940 N.3   230  LYS230     -0.1245
     94  CA         1.7570   17.7690   13.5160 C.3   230  LYS230      0.1561
     95  C          1.3470   19.0980   12.8940 C.2   230  LYS230      0.2260
     96  O          1.9630   20.1270   13.1630 O.2   230  LYS230     -0.2867
     97  CB         1.6560   17.7960   15.0480 C.3   230  LYS230      0.0271
     98  CG         0.3340   18.3230   15.6260 C.3   230  LYS230      0.0035
     99  CD        -0.8310   17.3470   15.4590 C.3   230  LYS230      0.0206
    100  CE        -2.0020   17.7410   16.3550 C.3   230  LYS230      0.1093
    101  NZ        -3.3160   17.2590   15.8430 N.3   230  LYS230     -0.1314
    102  N         -1.7330   20.6690   13.0500 N.3   232  ASP232     -0.1225
    103  CA        -2.6130   21.5070   13.8450 C.3   232  ASP232      0.1805
    104  C         -2.0820   21.7210   15.2530 C.2   232  ASP232      0.2598
    105  O         -2.1180   20.8360   16.1090 O.2   232  ASP232     -0.2718
    106  CB        -4.0450   20.9850   13.7980 C.3   232  ASP232      0.1424
    107  CG        -4.6510   21.1270   12.4150 C.2   232  ASP232      0.3668
    108  OD1       -4.9930   22.2660   12.0220 O.co2 232  ASP232     -0.2456
    109  OD2       -4.7630   20.1050   11.7110 O.co2 232  ASP232     -0.2456
    110  N         -1.5900   22.9330   15.4630 N.am  233  VAL233     -0.1966
    111  CA        -0.7360   23.2440   16.5880 C.3   233  VAL233      0.1727
    112  C         -1.5020   24.0210   17.6420 C.2   233  VAL233      0.2616
    113  O         -2.2740   24.9270   17.3240 O.2   233  VAL233     -0.2715
    114  CB         0.4860   24.0710   16.1270 C.3   233  VAL233      0.0290
    115  CG1        1.5470   24.1210   17.2090 C.3   233  VAL233      0.0023
    116  CG2        1.0680   23.4930   14.8490 C.3   233  VAL233      0.0023
    117  N         -1.2940   23.6400   18.8970 N.am  234  ILE234     -0.1977
    118  CA        -1.7560   24.4320   20.0210 C.3   234  ILE234      0.1596
    119  C         -0.7730   25.5900   20.1720 C.2   234  ILE234      0.2287
    120  O          0.3870   25.4000   20.5520 O.2   234  ILE234     -0.2864
    121  CB        -1.8740   23.5900   21.3100 C.3   234  ILE234      0.0276
    122  CG1       -2.9040   22.4730   21.1050 C.3   234  ILE234      0.0022
    123  CG2       -2.2690   24.4710   22.4960 C.3   234  ILE234      0.0022
    124  CD1       -2.8930   21.4000   22.1690 C.3   234  ILE234      0.0001
    125  N          0.0290   17.5460   28.7010 N.3   253  ASP253     -0.1225
    126  CA         1.3910   17.0200   28.5750 C.3   253  ASP253      0.1805
    127  C          2.0890   17.5920   27.3400 C.2   253  ASP253      0.2598
    128  O          2.6750   16.8570   26.5420 O.2   253  ASP253     -0.2718
    129  CB         1.3870   15.4890   28.5090 C.3   253  ASP253      0.1424
    130  CG         1.1280   14.8450   29.8520 C.2   253  ASP253      0.3668
    131  OD1        1.6720   15.3240   30.8700 O.co2 253  ASP253     -0.2456
    132  OD2        0.3930   13.8350   29.8850 O.co2 253  ASP253     -0.2456
    133  N          1.9890   18.9060   27.1840 N.am  254  ILE254     -0.1966
    134  CA         2.6390   19.6220   26.0980 C.3   254  ILE254      0.1727
    135  C          3.6030   20.6010   26.7450 C.2   254  ILE254      0.2617
    136  O          3.2590   21.2700   27.7200 O.2   254  ILE254     -0.2715
    137  CB         1.6040   20.3450   25.2050 C.3   254  ILE254      0.0290
    138  CG1        0.9390   19.3350   24.2660 C.3   254  ILE254      0.0022
    139  CG2        2.2450   21.4760   24.3980 C.3   254  ILE254      0.0023
    140  CD1       -0.3760   19.8030   23.6990 C.3   254  ILE254      0.0001
    141  N          4.8160   20.6660   26.2180 N.am  255  GLY255     -0.1940
    142  CA         5.8530   21.4690   26.8340 C.3   255  GLY255      0.2014
    143  C          6.1190   22.7860   26.1490 C.2   255  GLY255      0.2639
    144  O          6.7740   23.6460   26.7220 O.2   255  GLY255     -0.2714
    145  N          5.6120   22.9490   24.9280 N.am  256  ALA256     -0.1963
    146  CA         5.9310   24.1270   24.1180 C.3   256  ALA256      0.1728
    147  C          4.7920   24.5720   23.2050 C.2   256  ALA256      0.2616
    148  O          4.2050   23.7600   22.4850 O.2   256  ALA256     -0.2715
    149  CB         7.1860   23.8720   23.2960 C.3   256  ALA256      0.0334
    150  N          4.4980   25.8690   23.2260 N.am  257  LEU257     -0.1964
    151  CA         3.5040   26.4460   22.3260 C.3   257  LEU257      0.1713
    152  C          4.1280   27.5540   21.4710 C.2   257  LEU257      0.2458
    153  O          4.6350   28.5370   22.0150 O.2   257  LEU257     -0.2730
    154  CB         2.3090   27.0030   23.1150 C.3   257  LEU257      0.0310
    155  CG         1.2970   26.0640   23.7900 C.3   257  LEU257      0.0022
    156  CD1        1.8900   25.3090   24.9690 C.3   257  LEU257      0.0001
    157  CD2        0.0870   26.8630   24.2480 C.3   257  LEU257      0.0001
    158  N          4.1100   27.3940   20.1310 N.am  258  PRO258     -0.2727
    159  CA         4.5140   28.5160   19.2830 C.3   258  PRO258      0.1402
    160  C          3.5890   29.7150   19.5150 C.2   258  PRO258      0.2269
    161  O          2.3850   29.5350   19.6950 O.2   258  PRO258     -0.2865
    162  CB         4.3360   27.9660   17.8640 C.3   258  PRO258      0.0296
    163  CG         4.4560   26.4940   18.0160 C.3   258  PRO258      0.0237
    164  CD         3.8120   26.1890   19.3360 C.3   258  PRO258      0.0939
@<TRIPOS>BOND
     1   109   107   ar
     2   108   107   ar
     3   107   106    1
     4    95    96    2
     5    95    94    1
     6   102   103    1
     7    93    94    1
     8    94    97    1
     9   106   103    1
    10    54    55    1
    11   103   104    1
    12    57    56    2
    13    56    55    1
    14   116   114    1
    15    55    58    1
    16    97    98    1
    17    79    78    2
    18   104   110   am
    19   104   105    2
    20    87    86    2
    21    99    98    1
    22    99   100    1
    23   110   111    1
    24    86    85    1
    25    80    81    1
    26    80    77    1
    27    78    77    1
    28   101   100    1
    29   114   111    1
    30   114   115    1
    31    81    83   ar
    32    81    82   ar
    33    58    60    1
    34    58    59    1
    35    77    76    1
    36   111   112    1
    37    62    63    1
    38    88    85    1
    39    88    89    1
    40    85    84    1
    41    65    64    2
    42    59    61    1
    43   113   112    2
    44   112   117   am
    45   162   163    1
    46   162   159    1
    47    76    71   am
    48   163   164    1
    49    64    63    1
    50    63    66    1
    51    90    89    1
    52    90    91    1
    53    45    46    2
    54    45    44    1
    55    72    71    2
    56    71    70    1
    57   117   118    1
    58    68    66    1
    59   159   160    1
    60   159   158    1
    61   164   158    1
    62    66    67    1
    63    44    47    1
    64    44    43    1
    65   160   161    2
    66    35    34    2
    67    91    92    1
    68    69    70    1
    69   118   119    1
    70   118   121    1
    71   158   152   am
    72    70    73    1
    73   119   120    2
    74    47    48    1
    75    34    43   am
    76    34    33    1
    77    73    75    1
    78    73    74    1
    79   122   121    1
    80   122   124    1
    81    33    32    1
    82    33    36    1
    83   121   123    1
    84   152   153    2
    85   152   151    1
    86    48    49    1
    87    20    18    1
    88   151   154    1
    89   151   150    1
    90   148   147    2
    91    49    50    1
    92    36    37    1
    93    18    19    1
    94    18    17    2
    95   154   155    1
    96   147   150   am
    97   147   146    1
    98   149   146    1
    99    17    16    1
   100    37    38    1
   101   140   138    1
   102   155   157    1
   103   155   156    1
   104    42    40    1
   105    50    51    2
   106    39    40    2
   107    39    38    1
   108   146   145    1
   109   138   137    1
   110   139   137    1
   111    40    41    1
   112    15    16    1
   113    15    14    1
   114    52    51    1
   115    51    53    1
   116   145   143   am
   117   137   134    1
   118    14    11    1
   119   134   135    1
   120   134   133    1
   121   143   144    2
   122   143   142    1
   123   141   135   am
   124   141   142    1
   125   128   127    2
   126   135   136    2
   127     2     1    1
   128     2     5    1
   129     2     3    1
   130    11    12    1
   131    11    10    1
   132    13    12    2
   133     4     3    2
   134     5     6    1
   135   133   127   am
   136   127   126    1
   137     6     7    1
   138   129   126    1
   139   129   130    1
   140   126   125    1
   141     7     8    1
   142    31    29    1
   143    30    29    1
   144    29    28    2
   145   130   132   ar
   146   130   131   ar
   147     8     9    1
   148    28    27    1
   149    27    26    1
   150    26    25    1
   151    25    22    1
   152    22    21    1
   153    22    23    1
   154    23    24    2
