@<TRIPOS>MOLECULE
tmp/3lfzA01.pdb
 149 143 0 0 0
SMALL
GASTEIGER

@<TRIPOS>ATOM
      1  N         19.8670   23.8230   32.1040 N.3   114  ASN114     -0.1240
      2  CA        19.2460   23.3650   30.8600 C.3   114  ASN114      0.1653
      3  C         18.8190   21.8860   30.8870 C.2   114  ASN114      0.2266
      4  O         19.1410   21.1160   29.9750 O.2   114  ASN114     -0.2867
      5  CB        20.1850   23.6470   29.6730 C.3   114  ASN114      0.1155
      6  CG        19.4750   23.5970   28.3280 C.2   114  ASN114      0.2627
      7  OD1       18.2780   23.8730   28.2290 O.2   114  ASN114     -0.2716
      8  ND2       20.2180   23.2550   27.2820 N.am  114  ASN114     -0.0877
      9  N          9.9080   19.5970   35.1170 N.3   133  GLU133     -0.1245
     10  CA         9.3680   20.9520   35.1200 C.3   133  GLU133      0.1567
     11  C          7.8420   20.9370   35.1480 C.2   133  GLU133      0.2260
     12  O          7.2230   21.8330   35.7220 O.2   133  GLU133     -0.2867
     13  CB         9.8510   21.7250   33.8940 C.3   133  GLU133      0.0388
     14  CG        11.3600   21.8390   33.7870 C.3   133  GLU133      0.1160
     15  CD        11.8000   22.4750   32.4890 C.2   133  GLU133      0.3649
     16  OE1       12.5260   23.4850   32.5520 O.co2 133  GLU133     -0.2457
     17  OE2       11.4150   21.9730   31.4110 O.co2 133  GLU133     -0.2457
     18  N         10.1400   33.5050   24.1720 N.3   155  THR155     -0.1218
     19  CA        11.4320   33.4720   23.5050 C.3   155  THR155      0.1862
     20  C         11.2340   33.9750   22.0800 C.2   155  THR155      0.2287
     21  O         10.5950   33.3180   21.2560 O.2   155  THR155     -0.2866
     22  CB        12.0690   32.0620   23.5430 C.3   155  THR155      0.1770
     23  OG1       12.4300   31.7430   24.8930 O.3   155  THR155     -0.2211
     24  CG2       13.3210   32.0020   22.6780 C.3   155  THR155      0.0375
     25  N         13.5000   34.9770   19.4250 N.3   157  ASP157     -0.1225
     26  CA        14.2550   34.3950   18.3160 C.3   157  ASP157      0.1805
     27  C         14.0010   32.8980   18.2210 C.2   157  ASP157      0.2598
     28  O         14.6090   32.1160   18.9530 O.2   157  ASP157     -0.2718
     29  CB        15.7560   34.6370   18.5050 C.3   157  ASP157      0.1424
     30  CG        16.1560   36.0860   18.2920 C.2   157  ASP157      0.3668
     31  OD1       15.3130   36.9930   18.4830 O.co2 157  ASP157     -0.2456
     32  OD2       17.3300   36.3190   17.9380 O.co2 157  ASP157     -0.2456
     33  N         13.1120   32.4960   17.3190 N.am  158  VAL158     -0.1966
     34  CA        12.7660   31.0830   17.1990 C.3   158  VAL158      0.1727
     35  C         13.6430   30.3740   16.1770 C.2   158  VAL158      0.2616
     36  O         13.8360   30.8570   15.0600 O.2   158  VAL158     -0.2715
     37  CB        11.2780   30.8570   16.8430 C.3   158  VAL158      0.0290
     38  CG1       10.8570   29.4420   17.2130 C.3   158  VAL158      0.0023
     39  CG2       10.3980   31.8550   17.5570 C.3   158  VAL158      0.0023
     40  N         14.1860   29.2350   16.5910 N.am  159  ILE159     -0.1977
     41  CA        14.8230   28.2980   15.6840 C.3   159  ILE159      0.1596
     42  C         13.7140   27.4030   15.1430 C.2   159  ILE159      0.2287
     43  O         12.8430   26.9440   15.8880 O.2   159  ILE159     -0.2864
     44  CB        15.9310   27.4760   16.3830 C.3   159  ILE159      0.0276
     45  CG1       16.9760   28.4020   17.0340 C.3   159  ILE159      0.0022
     46  CG2       16.5840   26.5010   15.4090 C.3   159  ILE159      0.0022
     47  CD1       17.8320   29.2280   16.0580 C.3   159  ILE159      0.0001
     48  N         19.9140   22.2220   21.1300 N.3   178  GLY178     -0.1210
     49  CA        19.3490   21.6510   22.3550 C.3   178  GLY178      0.1956
     50  C         17.8540   21.8900   22.4980 C.2   178  GLY178      0.2612
     51  O         17.3440   22.0020   23.6140 O.2   178  GLY178     -0.2717
     52  N         17.1570   21.9700   21.3640 N.am  179  PHE179     -0.1962
     53  CA        15.7090   22.1820   21.3410 C.3   179  PHE179      0.1771
     54  C         15.0030   20.9360   20.8340 C.2   179  PHE179      0.2619
     55  O         15.2250   20.5130   19.6990 O.2   179  PHE179     -0.2715
     56  CB        15.3270   23.3570   20.4300 C.3   179  PHE179      0.0574
     57  CG        15.9280   24.6780   20.8300 C.ar  179  PHE179     -0.0200
     58  CD1       16.0650   25.0330   22.1700 C.ar  179  PHE179     -0.0042
     59  CD2       16.3180   25.5900   19.8550 C.ar  179  PHE179     -0.0042
     60  CE1       16.6130   26.2620   22.5310 C.ar  179  PHE179     -0.0003
     61  CE2       16.8660   26.8260   20.2100 C.ar  179  PHE179     -0.0003
     62  CZ        17.0110   27.1610   21.5490 C.ar  179  PHE179     -0.0000
     63  N         14.1390   20.3620   21.6650 N.am  180  ARG180     -0.1963
     64  CA        13.3800   19.1710   21.2810 C.3   180  ARG180      0.1729
     65  C         12.2290   19.4800   20.3250 C.2   180  ARG180      0.2616
     66  O         11.8240   18.6170   19.5440 O.2   180  ARG180     -0.2715
     67  CB        12.8140   18.4720   22.5120 C.3   180  ARG180      0.0348
     68  CG        13.8270   18.1710   23.6030 C.3   180  ARG180      0.0492
     69  CD        13.2140   17.2720   24.6610 C.3   180  ARG180      0.2205
     70  NE        12.2260   16.3770   24.0710 N.pl3 180  ARG180     -0.0865
     71  CZ        10.9430   16.3480   24.4110 C.cat 180  ARG180      0.5346
     72  NH1       10.4940   17.1360   25.3760 N.pl3 180  ARG180      0.1354
     73  NH2       10.1160   15.5080   23.8020 N.pl3 180  ARG180      0.1354
     74  N         11.6890   20.6930   20.3920 N.am  181  ARG181     -0.1963
     75  CA        10.6000   21.0600   19.4870 C.3   181  ARG181      0.1729
     76  C         10.8810   22.2710   18.6420 C.2   181  ARG181      0.2616
     77  O         11.3610   23.3020   19.1190 O.2   181  ARG181     -0.2715
     78  CB         9.2530   21.2240   20.1900 C.3   181  ARG181      0.0348
     79  CG         9.3270   21.6570   21.6070 C.3   181  ARG181      0.0492
     80  CD         9.2170   20.4620   22.4960 C.3   181  ARG181      0.2205
     81  NE         9.2950   20.8670   23.8850 N.pl3 181  ARG181     -0.0865
     82  CZ         9.0500   20.0580   24.9010 C.cat 181  ARG181      0.5346
     83  NH1        8.7150   18.8050   24.6640 N.pl3 181  ARG181      0.1354
     84  NH2        9.1400   20.5010   26.1460 N.pl3 181  ARG181      0.1354
     85  N         10.5560   22.1180   17.3670 N.am  182  LEU182     -0.1964
     86  CA        10.7250   23.1710   16.3980 C.3   182  LEU182      0.1713
     87  C          9.3830   23.4780   15.7540 C.2   182  LEU182      0.2458
     88  O          8.7350   22.5820   15.2050 O.2   182  LEU182     -0.2730
     89  CB        11.7550   22.7630   15.3380 C.3   182  LEU182      0.0310
     90  CG        13.1280   22.2810   15.8280 C.3   182  LEU182      0.0022
     91  CD1       14.0100   21.9050   14.6550 C.3   182  LEU182      0.0001
     92  CD2       13.8190   23.3270   16.6970 C.3   182  LEU182      0.0001
     93  N          8.9530   24.7470   15.8310 N.am  183  PRO183     -0.2727
     94  CA         7.7780   25.1160   15.0520 C.3   183  PRO183      0.1402
     95  C          8.1260   24.9470   13.5790 C.2   183  PRO183      0.2269
     96  O          9.2640   25.2110   13.1880 O.2   183  PRO183     -0.2865
     97  CB         7.5730   26.5990   15.3900 C.3   183  PRO183      0.0296
     98  CG         8.4350   26.8680   16.5930 C.3   183  PRO183      0.0237
     99  CD         9.5710   25.9100   16.4950 C.3   183  PRO183      0.0939
    100  N          8.1310   31.5950   20.8620 N.3   269  ILE269     -0.1245
    101  CA         7.7810   30.2860   21.3920 C.3   269  ILE269      0.1561
    102  C          7.8400   30.4240   22.9080 C.2   269  ILE269      0.2260
    103  O          8.6520   31.1880   23.4290 O.2   269  ILE269     -0.2867
    104  CB         8.7430   29.1690   20.8710 C.3   269  ILE269      0.0252
    105  CG1        8.2590   27.7740   21.2980 C.3   269  ILE269      0.0019
    106  CG2       10.2030   29.4320   21.2970 C.3   269  ILE269      0.0019
    107  CD1        8.8570   26.6270   20.4960 C.3   269  ILE269      0.0001
    108  N          7.7560   27.8760   26.5050 N.3   271  THR271     -0.1203
    109  CA         7.8690   26.4970   26.9510 C.3   271  THR271      0.1994
    110  C          7.7300   26.4170   28.4660 C.2   271  THR271      0.2618
    111  O          7.6280   27.4440   29.1400 O.2   271  THR271     -0.2717
    112  CB         9.2070   25.8410   26.4890 C.3   271  THR271      0.1784
    113  OG1       10.2870   26.3040   27.3050 O.3   271  THR271     -0.2211
    114  CG2        9.5080   26.1480   25.0210 C.3   271  THR271      0.0376
    115  N          7.7230   25.1950   28.9910 N.am  272  GLU272     -0.1965
    116  CA         7.6050   24.9620   30.4280 C.3   272  GLU272      0.1733
    117  C          8.7210   25.6300   31.2160 C.2   272  GLU272      0.2616
    118  O          8.4930   26.0950   32.3350 O.2   272  GLU272     -0.2715
    119  CB         7.6190   23.4690   30.7310 C.3   272  GLU272      0.0429
    120  CG         6.4990   22.6900   30.0840 C.3   272  GLU272      0.1163
    121  CD         6.5330   21.2230   30.4540 C.2   272  GLU272      0.3649
    122  OE1        7.6060   20.5950   30.3390 O.co2 272  GLU272     -0.2457
    123  OE2        5.4770   20.6980   30.8600 O.co2 272  GLU272     -0.2457
    124  N          9.9250   25.6630   30.6450 N.am  273  LYS273     -0.1963
    125  CA        11.0500   26.3190   31.3080 C.3   273  LYS273      0.1728
    126  C         10.7920   27.8150   31.4550 C.2   273  LYS273      0.2616
    127  O         11.1010   28.3980   32.4950 O.2   273  LYS273     -0.2715
    128  CB        12.3730   26.0750   30.5780 C.3   273  LYS273      0.0311
    129  CG        13.6030   26.3620   31.4540 C.3   273  LYS273      0.0038
    130  CD        14.9240   26.1810   30.7090 C.3   273  LYS273      0.0206
    131  CE        15.1430   24.7410   30.2580 C.3   273  LYS273      0.1093
    132  NZ        15.0350   23.7510   31.3680 N.3   273  LYS273     -0.1314
    133  N         10.2220   28.4260   30.4180 N.am  274  ASP274     -0.1971
    134  CA         9.8610   29.8390   30.4660 C.3   274  ASP274      0.1709
    135  C          8.8470   30.1010   31.5630 C.2   274  ASP274      0.2293
    136  O          9.0540   30.9790   32.4000 O.2   274  ASP274     -0.2864
    137  CB         9.3030   30.3100   29.1260 C.3   274  ASP274      0.1436
    138  CG        10.3000   30.1750   28.0040 C.2   274  ASP274      0.3671
    139  OD1       11.4960   30.4610   28.2310 O.co2 274  ASP274     -0.2456
    140  OD2        9.8840   29.7820   26.8950 O.co2 274  ASP274     -0.2456
    141  N         10.1500   30.6320   34.9600 N.3   277  LYS277     -0.1245
    142  CA        10.8530   31.8910   35.2570 C.3   277  LYS277      0.1561
    143  C         10.0240   32.8050   36.1570 C.2   277  LYS277      0.2260
    144  O         10.5690   33.6660   36.8530 O.2   277  LYS277     -0.2867
    145  CB        11.2230   32.6320   33.9710 C.3   277  LYS277      0.0271
    146  CG        12.3070   31.9570   33.1540 C.3   277  LYS277      0.0035
    147  CD        12.3330   32.4920   31.7360 C.3   277  LYS277      0.0206
    148  CE        13.3860   31.7780   30.9100 C.3   277  LYS277      0.1093
    149  NZ        13.3900   32.2510   29.4980 N.3   277  LYS277     -0.1314
@<TRIPOS>BOND
     1    96    95    2
     2    95    94    1
     3    91    90    1
     4    94    97    1
     5    94    93    1
     6    36    35    2
     7    42    41    1
     8    42    43    2
     9    88    87    2
    10    89    90    1
    11    89    86    1
    12    97    98    1
    13    46    44    1
    14    41    44    1
    15    41    40    1
    16    87    93   am
    17    87    86    1
    18    90    92    1
    19    93    99    1
    20    47    45    1
    21    35    40   am
    22    35    34    1
    23    44    45    1
    24    86    85    1
    25    99    98    1
    26    37    34    1
    27    37    38    1
    28    37    39    1
    29    34    33    1
    30    33    27   am
    31    85    76   am
    32    32    30   ar
    33    27    26    1
    34    27    28    2
    35    30    31   ar
    36    30    29    1
    37    26    29    1
    38    26    25    1
    39    76    77    2
    40    76    75    1
    41    75    78    1
    42    75    74    1
    43    66    65    2
    44    55    54    2
    45    59    61   ar
    46    59    57   ar
    47    78    79    1
    48    61    62   ar
    49    65    74   am
    50    65    64    1
    51    56    57    1
    52    56    53    1
    53   107   105    1
    54    57    58   ar
    55    54    53    1
    56    54    63   am
    57   100   101    1
    58   104   106    1
    59   104   105    1
    60   104   101    1
    61    48    49    1
    62    21    20    2
    63    64    63    1
    64    64    67    1
    65    53    52    1
    66    52    50   am
    67   101   102    1
    68    62    60   ar
    69    79    80    1
    70    20    19    1
    71    58    60   ar
    72    49    50    1
    73    80    81    1
    74    50    51    2
    75    67    68    1
    76    24    22    1
    77   102   103    2
    78    19    22    1
    79    19    18    1
    80    22    23    1
    81    68    69    1
    82    73    71    1
    83    81    82    2
    84    70    71    2
    85    70    69    1
    86    71    72    1
    87    83    82    1
    88    82    84    1
    89   114   112    1
    90   112   109    1
    91   112   113    1
    92   108   109    1
    93   140   138   ar
    94   109   110    1
    95     8     6   am
    96   138   139   ar
    97   138   137    1
    98     7     6    2
    99     6     5    1
   100   110   115   am
   101   110   111    2
   102   115   116    1
   103   137   134    1
   104   149   148    1
   105     5     2    1
   106     4     3    2
   107   120   121    1
   108   120   119    1
   109   131   130    1
   110   131   132    1
   111   122   121   ar
   112   133   134    1
   113   133   126   am
   114   116   119    1
   115   116   117    1
   116   121   123   ar
   117   134   135    1
   118   128   125    1
   119   128   129    1
   120   124   117   am
   121   124   125    1
   122   130   129    1
   123     2     3    1
   124     2     1    1
   125   148   147    1
   126   117   118    2
   127   125   126    1
   128    17    15   ar
   129   126   127    2
   130   135   136    2
   131   147   146    1
   132    15    16   ar
   133    15    14    1
   134   146   145    1
   135    14    13    1
   136    13    10    1
   137   145   142    1
   138   141   142    1
   139     9    10    1
   140    10    11    1
   141    11    12    2
   142   142   143    1
   143   143   144    2
