@<TRIPOS>MOLECULE
tmp/3lg1B05.pdb
 80 75 0 0 0
SMALL
GASTEIGER

@<TRIPOS>ATOM
      1  N        -10.8180   65.2030  102.2600 N.3   305  TYR305     -0.1241
      2  CA       -11.6370   65.7000  101.1400 C.3   305  TYR305      0.1605
      3  C        -11.2420   64.9550   99.9120 C.2   305  TYR305      0.2264
      4  O        -10.1550   64.3660   99.8610 O.2   305  TYR305     -0.2867
      5  CB       -11.4370   67.1950  100.9000 C.3   305  TYR305      0.0534
      6  CG       -11.6720   68.0090  102.1320 C.ar  305  TYR305     -0.0201
      7  CD1      -12.9440   68.4820  102.4470 C.ar  305  TYR305     -0.0009
      8  CD2      -10.6240   68.2760  103.0120 C.ar  305  TYR305     -0.0009
      9  CE1      -13.1670   69.2110  103.6010 C.ar  305  TYR305      0.0417
     10  CE2      -10.8380   69.0000  104.1800 C.ar  305  TYR305      0.0417
     11  CZ       -12.1100   69.4550  104.4610 C.ar  305  TYR305      0.1957
     12  OH       -12.3220   70.1770  105.5910 O.3   305  TYR305     -0.2866
     13  N        -10.0710   64.7980   96.0550 N.3   307  LEU307     -0.1231
     14  CA        -9.3840   65.6080   95.0440 C.3   307  LEU307      0.1693
     15  C        -10.3260   65.9700   93.8770 C.2   307  LEU307      0.2593
     16  O        -10.2510   67.0700   93.3340 O.2   307  LEU307     -0.2718
     17  CB        -8.1880   64.8370   94.4830 C.3   307  LEU307      0.0284
     18  CG        -6.9420   64.7670   95.3850 C.3   307  LEU307      0.0019
     19  CD1       -5.9770   63.7150   94.8460 C.3   307  LEU307      0.0001
     20  CD2       -6.2880   66.1430   95.4760 C.3   307  LEU307      0.0001
     21  N        -11.1950   65.0310   93.5110 N.am  308  SER308     -0.1938
     22  CA       -12.0760   65.1950   92.3370 C.3   308  SER308      0.2055
     23  C        -13.0520   66.3710   92.5130 C.2   308  SER308      0.2643
     24  O        -13.1410   67.2500   91.6440 O.2   308  SER308     -0.2714
     25  CB       -12.8190   63.8860   92.0690 C.3   308  SER308      0.2130
     26  OG       -13.6180   63.5420   93.1910 O.3   308  SER308     -0.2179
     27  N        -13.7480   66.4220   93.6410 N.am  309  ASP309     -0.1957
     28  CA       -14.7820   67.4350   93.8190 C.3   309  ASP309      0.1840
     29  C        -14.7270   68.1920   95.1430 C.2   309  ASP309      0.2622
     30  O        -15.5960   69.0180   95.4240 O.2   309  ASP309     -0.2715
     31  CB       -16.1690   66.8030   93.6240 C.3   309  ASP309      0.1450
     32  CG       -16.5190   65.8200   94.7290 C.2   309  ASP309      0.3671
     33  OD1      -15.7000   65.5770   95.6540 O.co2 309  ASP309     -0.2456
     34  OD2      -17.6280   65.2780   94.6810 O.co2 309  ASP309     -0.2456
     35  N        -13.7290   67.9110   95.9810 N.am  310  GLY310     -0.1954
     36  CA       -13.6050   68.6590   97.2380 C.3   310  GLY310      0.1869
     37  C        -14.5960   68.2550   98.3100 C.2   310  GLY310      0.2309
     38  O        -14.6620   68.8940   99.3530 O.2   310  GLY310     -0.2863
     39  N         -7.3410   64.0600   99.6670 N.3   341  PHE341     -0.1241
     40  CA        -6.3350   64.9680  100.2210 C.3   341  PHE341      0.1605
     41  C         -6.7080   65.3590  101.6400 C.2   341  PHE341      0.2264
     42  O         -7.8680   65.1970  102.0660 O.2   341  PHE341     -0.2867
     43  CB        -6.0650   66.1950   99.3260 C.3   341  PHE341      0.0534
     44  CG        -7.1980   67.2240   99.2950 C.ar  341  PHE341     -0.0203
     45  CD1       -8.2390   67.1220   98.3640 C.ar  341  PHE341     -0.0042
     46  CD2       -7.1760   68.3290  100.1640 C.ar  341  PHE341     -0.0042
     47  CE1       -9.2370   68.1040   98.3050 C.ar  341  PHE341     -0.0003
     48  CE2       -8.1920   69.3050  100.1270 C.ar  341  PHE341     -0.0003
     49  CZ        -9.2170   69.1860   99.1930 C.ar  341  PHE341     -0.0000
     50  N         -6.7560   72.0450  102.9180 N.3   344  ARG344     -0.1245
     51  CA        -6.4870   73.1070  101.9600 C.3   344  ARG344      0.1563
     52  C         -5.5550   74.0900  102.6400 C.2   344  ARG344      0.2260
     53  O         -5.8230   74.5230  103.7540 O.2   344  ARG344     -0.2867
     54  CB        -7.7960   73.8180  101.5630 C.3   344  ARG344      0.0307
     55  CG        -8.6470   73.0400  100.5790 C.3   344  ARG344      0.0489
     56  CD        -9.9600   73.7720  100.2730 C.3   344  ARG344      0.2205
     57  NE       -10.9360   72.8820   99.6270 N.pl3 344  ARG344     -0.0865
     58  CZ       -11.6900   72.0020  100.2830 C.cat 344  ARG344      0.5346
     59  NH1      -11.5820   71.8780  101.6050 N.pl3 344  ARG344      0.1354
     60  NH2      -12.5420   71.2410   99.6130 N.pl3 344  ARG344      0.1354
     61  N         -4.6380   78.2320   99.2510 N.3   349  GLY349     -0.1225
     62  CA        -5.8200   77.4550   98.8710 C.3   349  GLY349      0.1811
     63  C         -5.5670   76.1420   98.1520 C.2   349  GLY349      0.2280
     64  O         -6.5350   75.4890   97.7300 O.2   349  GLY349     -0.2866
     65  N         -5.1750   72.2710   97.5810 N.3   351  ALA351     -0.1245
     66  CA        -5.4150   70.9520   98.1710 C.3   351  ALA351      0.1562
     67  C         -4.0560   70.2960   98.4330 C.2   351  ALA351      0.2260
     68  O         -3.2510   70.2150   97.5230 O.2   351  ALA351     -0.2867
     69  CB        -6.2050   70.0700   97.1840 C.3   351  ALA351      0.0290
     70  N         -1.3070   76.2370   92.4090 N.3   465  ARG465     -0.1245
     71  CA        -1.8070   75.2850   93.4040 C.3   465  ARG465      0.1563
     72  C         -1.4560   73.8520   93.0530 C.2   465  ARG465      0.2260
     73  O         -1.1140   73.0630   93.9590 O.2   465  ARG465     -0.2867
     74  CB        -3.3140   75.4330   93.6130 C.3   465  ARG465      0.0307
     75  CG        -3.6950   76.7520   94.2290 C.3   465  ARG465      0.0489
     76  CD        -5.2100   76.9140   94.3620 C.3   465  ARG465      0.2205
     77  NE        -5.4950   78.1920   95.0080 N.pl3 465  ARG465     -0.0865
     78  CZ        -6.2800   79.1460   94.5090 C.cat 465  ARG465      0.5346
     79  NH1       -6.9170   78.9640   93.3510 N.pl3 465  ARG465      0.1354
     80  NH2       -6.4600   80.2690   95.1930 N.pl3 465  ARG465      0.1354
@<TRIPOS>BOND
     1    24    23    2
     2    25    22    1
     3    25    26    1
     4    22    23    1
     5    22    21    1
     6    70    71    1
     7    23    27   am
     8    72    71    1
     9    72    73    2
    10    16    15    2
    11    79    78    1
    12    71    74    1
    13    21    15   am
    14    74    75    1
    15    31    28    1
    16    31    32    1
    17    27    28    1
    18    28    29    1
    19    15    14    1
    20    75    76    1
    21    76    77    1
    22    17    14    1
    23    17    18    1
    24    78    77    2
    25    78    80    1
    26    34    32   ar
    27    32    33   ar
    28    19    18    1
    29    14    13    1
    30    29    30    2
    31    29    35   am
    32    18    20    1
    33    35    36    1
    34    69    66    1
    35    36    37    1
    36    68    67    2
    37    65    66    1
    38    64    63    2
    39    63    62    1
    40    66    67    1
    41    47    45   ar
    42    47    49   ar
    43    37    38    2
    44    45    44   ar
    45    62    61    1
    46    49    48   ar
    47    44    43    1
    48    44    46   ar
    49    43    40    1
    50    60    58    1
    51    57    56    1
    52    57    58    2
    53    39    40    1
    54     4     3    2
    55     3     2    1
    56    48    46   ar
    57    40    41    1
    58    56    55    1
    59    58    59    1
    60    55    54    1
    61     5     2    1
    62     5     6    1
    63     2     1    1
    64    54    51    1
    65    41    42    2
    66    51    52    1
    67    51    50    1
    68     6     7   ar
    69     6     8   ar
    70     7     9   ar
    71    52    53    2
    72     8    10   ar
    73     9    11   ar
    74    10    11   ar
    75    11    12    1
