@<TRIPOS>MOLECULE
tmp/3lg1A02.pdb
 79 73 0 0 0
SMALL
GASTEIGER

@<TRIPOS>ATOM
      1  N         40.9500   23.0940  129.0670 N.3   136  LYS136     -0.1231
      2  CA        41.3560   22.5270  127.7840 C.3   136  LYS136      0.1693
      3  C         42.5460   23.3120  127.2130 C.2   136  LYS136      0.2592
      4  O         43.3730   22.7670  126.5020 O.2   136  LYS136     -0.2718
      5  CB        40.1910   22.5540  126.7890 C.3   136  LYS136      0.0285
      6  CG        39.1010   21.4920  127.1090 C.3   136  LYS136      0.0035
      7  CD        37.9500   21.5210  126.0960 C.3   136  LYS136      0.0206
      8  CE        37.0160   20.3130  126.3480 C.3   136  LYS136      0.1093
      9  NZ        35.8250   20.3730  125.4430 N.3   136  LYS136     -0.1314
     10  N         42.5780   24.6120  127.4950 N.am  137  ASN137     -0.1974
     11  CA        43.7340   25.4430  127.1950 C.3   137  ASN137      0.1688
     12  C         43.6760   26.6570  128.1100 C.2   137  ASN137      0.2292
     13  O         42.7160   26.8130  128.8580 O.2   137  ASN137     -0.2864
     14  CB        43.7700   25.8530  125.7160 C.3   137  ASN137      0.1181
     15  CG        42.5140   26.5870  125.2750 C.2   137  ASN137      0.2629
     16  OD1       42.1330   27.6110  125.8480 O.2   137  ASN137     -0.2716
     17  ND2       41.8350   26.0350  124.2730 N.am  137  ASN137     -0.0877
     18  N         43.1880   29.7090  127.4830 N.3   139  GLN139     -0.1231
     19  CA        42.1310   30.6750  127.1760 C.3   139  GLN139      0.1698
     20  C         40.8330   30.4250  127.9340 C.2   139  GLN139      0.2592
     21  O         40.0980   31.3690  128.2240 O.2   139  GLN139     -0.2718
     22  CB        41.8150   30.7080  125.6730 C.3   139  GLN139      0.0381
     23  CG        43.0640   30.8640  124.7830 C.3   139  GLN139      0.0905
     24  CD        42.7890   30.4860  123.3350 C.2   139  GLN139      0.2608
     25  OE1       42.1150   31.2200  122.6410 O.2   139  GLN139     -0.2717
     26  NE2       43.3080   29.3030  122.8800 N.am  139  GLN139     -0.0878
     27  N         40.5390   29.1590  128.2410 N.am  140  LYS140     -0.1980
     28  CA        39.2360   28.7920  128.8330 C.3   140  LYS140      0.1596
     29  C         39.0200   29.3380  130.2470 C.2   140  LYS140      0.2287
     30  O         37.8860   29.3380  130.7290 O.2   140  LYS140     -0.2864
     31  CB        39.0540   27.2870  128.8550 C.3   140  LYS140      0.0298
     32  CG        39.0980   26.6270  127.4740 C.3   140  LYS140      0.0038
     33  CD        38.1870   27.3630  126.4990 C.3   140  LYS140      0.0206
     34  CE        37.8250   26.5070  125.3030 C.3   140  LYS140      0.1093
     35  NZ        36.8190   27.2200  124.4410 N.3   140  LYS140     -0.1314
     36  N         38.7410   32.1890  131.1470 N.3   142  THR142     -0.1203
     37  CA        37.8880   33.3710  131.1510 C.3   142  THR142      0.1994
     38  C         36.4060   33.0170  130.9930 C.2   142  THR142      0.2617
     39  O         35.5420   33.8770  131.1430 O.2   142  THR142     -0.2717
     40  CB        38.2160   34.3230  129.9530 C.3   142  THR142      0.1784
     41  OG1       37.8570   33.6900  128.7260 O.3   142  THR142     -0.2211
     42  CG2       39.7060   34.7690  129.9130 C.3   142  THR142      0.0376
     43  N         36.1020   31.7710  130.6450 N.am  143  ASP143     -0.1973
     44  CA        34.7680   31.4430  130.1060 C.3   143  ASP143      0.1709
     45  C         33.7710   31.0270  131.1900 C.2   143  ASP143      0.2293
     46  O         33.5530   29.8060  131.4310 O.2   143  ASP143     -0.2864
     47  CB        34.9160   30.3350  129.0470 C.3   143  ASP143      0.1436
     48  CG        33.6650   30.1570  128.2150 C.2   143  ASP143      0.3671
     49  OD1       32.6620   30.8690  128.4410 O.co2 143  ASP143     -0.2456
     50  OD2       33.7010   29.2940  127.3400 O.co2 143  ASP143     -0.2456
     51  N         30.6510   29.3110  129.6160 N.3   146  GLY146     -0.1225
     52  CA        31.0660   27.9280  129.3050 C.3   146  GLY146      0.1811
     53  C         31.0930   27.0120  130.5320 C.2   146  GLY146      0.2280
     54  O         30.5220   25.9220  130.5070 O.2   146  GLY146     -0.2866
     55  N         27.5790   26.2040  131.4820 N.3   149  ARG149     -0.1245
     56  CA        27.0140   25.2100  130.5470 C.3   149  ARG149      0.1563
     57  C         27.4920   23.7960  130.8750 C.2   149  ARG149      0.2260
     58  O         26.7930   22.8480  130.6080 O.2   149  ARG149     -0.2867
     59  CB        27.3600   25.5100  129.0840 C.3   149  ARG149      0.0307
     60  CG        26.5890   26.6870  128.4610 C.3   149  ARG149      0.0489
     61  CD        26.8920   26.8280  126.9500 C.3   149  ARG149      0.2205
     62  NE        26.0660   27.8980  126.3810 N.pl3 149  ARG149     -0.0865
     63  CZ        26.5080   29.0490  125.8640 C.cat 149  ARG149      0.5346
     64  NH1       27.8110   29.3320  125.7950 N.pl3 149  ARG149      0.1354
     65  NH2       25.6190   29.9170  125.3870 N.pl3 149  ARG149      0.1354
     66  N         32.7010   20.8230  129.2770 N.3   153  THR153     -0.1203
     67  CA        32.8710   21.5580  128.0060 C.3   153  THR153      0.1994
     68  C         34.1730   22.3780  127.9890 C.2   153  THR153      0.2617
     69  O         34.6260   22.7710  126.9060 O.2   153  THR153     -0.2717
     70  CB        31.6950   22.5240  127.6750 C.3   153  THR153      0.1784
     71  OG1       31.7230   23.6590  128.5600 O.3   153  THR153     -0.2211
     72  CG2       30.3000   21.8020  127.7520 C.3   153  THR153      0.0376
     73  N         34.7510   22.6500  129.1680 N.am  154  VAL154     -0.1979
     74  CA        35.9550   23.5050  129.2700 C.3   154  VAL154      0.1595
     75  C         37.1870   22.8110  129.8760 C.2   154  VAL154      0.2287
     76  O         38.2900   23.3850  129.8340 O.2   154  VAL154     -0.2864
     77  CB        35.7000   24.8620  130.0160 C.3   154  VAL154      0.0276
     78  CG1       34.6930   25.7220  129.2360 C.3   154  VAL154      0.0022
     79  CG2       35.2240   24.6280  131.4740 C.3   154  VAL154      0.0022
@<TRIPOS>BOND
     1    25    24    2
     2    26    24   am
     3    24    23    1
     4    17    15   am
     5    35    34    1
     6    23    22    1
     7    15    14    1
     8    15    16    2
     9    34    33    1
    10    65    63    1
    11     9     8    1
    12    22    19    1
    13    14    11    1
    14    64    63    1
    15    63    62    2
    16     7     8    1
    17     7     6    1
    18    62    61    1
    19    33    32    1
    20     4     3    2
    21     5     6    1
    22     5     2    1
    23    69    68    2
    24    61    60    1
    25    19    18    1
    26    19    20    1
    27    11    10    1
    28    11    12    1
    29     3    10   am
    30     3     2    1
    31    50    48   ar
    32    32    31    1
    33    70    72    1
    34    70    67    1
    35    70    71    1
    36     2     1    1
    37    20    21    2
    38    20    27   am
    39    68    67    1
    40    68    73   am
    41    67    66    1
    42    12    13    2
    43    48    49   ar
    44    48    47    1
    45    27    28    1
    46    60    59    1
    47    41    40    1
    48    28    31    1
    49    28    29    1
    50    47    44    1
    51    59    56    1
    52    73    74    1
    53    78    77    1
    54    74    75    1
    55    74    77    1
    56    52    51    1
    57    52    53    1
    58    76    75    2
    59    42    40    1
    60    40    37    1
    61    77    79    1
    62    44    43    1
    63    44    45    1
    64    29    30    2
    65    54    53    2
    66    56    57    1
    67    56    55    1
    68    58    57    2
    69    43    38   am
    70    38    39    2
    71    38    37    1
    72    36    37    1
    73    45    46    2
