@<TRIPOS>MOLECULE
tmp/3lg1B00.pdb
 111 105 0 0 0
SMALL
GASTEIGER

@<TRIPOS>ATOM
      1  N         15.0530   64.3990  123.5480 N.3    81  HIS81      -0.1241
      2  CA        14.3980   65.6320  124.0370 C.3    81  HIS81       0.1621
      3  C         12.8800   65.4860  124.0640 C.2    81  HIS81       0.2264
      4  O         12.2690   65.1150  123.0380 O.2    81  HIS81      -0.2867
      5  CB        14.7000   66.8030  123.1260 C.3    81  HIS81       0.0745
      6  CG        16.1610   66.9880  122.8410 C.ar   81  HIS81       0.0817
      7  ND1       16.9870   67.7330  123.6550 N.ar   81  HIS81      -0.2268
      8  CD2       16.9500   66.4830  121.8630 C.ar   81  HIS81       0.1154
      9  CE1       18.2170   67.7090  123.1660 C.ar   81  HIS81       0.1986
     10  NE2       18.2210   66.9510  122.0840 N.ar   81  HIS81      -0.2212
     11  N          9.4720   68.4730  122.3670 N.3    84  LEU84      -0.1245
     12  CA        10.2610   69.4420  121.6040 C.3    84  LEU84       0.1561
     13  C          9.5860   69.7090  120.2610 C.2    84  LEU84       0.2260
     14  O          9.4850   68.8040  119.4270 O.2    84  LEU84      -0.2867
     15  CB        11.7060   68.9500  121.4120 C.3    84  LEU84       0.0270
     16  CG        12.6300   70.0970  120.9850 C.3    84  LEU84       0.0019
     17  CD1       13.9620   70.0150  121.6160 C.3    84  LEU84       0.0001
     18  CD2       12.7360   70.1360  119.4690 C.3    84  LEU84       0.0001
     19  N         13.5090   76.8920  114.9890 N.3    89  PRO89      -0.2102
     20  CA        14.6600   76.9730  114.1060 C.3    89  PRO89       0.1504
     21  C         15.7140   75.9150  114.4070 C.2    89  PRO89       0.2576
     22  O         16.5750   75.6620  113.5540 O.2    89  PRO89      -0.2718
     23  CB        15.2390   78.3550  114.4020 C.3    89  PRO89       0.0282
     24  CG        14.1550   79.1210  115.0690 C.3    89  PRO89       0.0208
     25  CD        13.2760   78.1380  115.7510 C.3    89  PRO89       0.0893
     26  N         15.6600   75.3100  115.5870 N.am   90  THR90      -0.1939
     27  CA        16.6630   74.3260  115.9830 C.3    90  THR90       0.2028
     28  C         16.1560   72.8640  115.9060 C.2    90  THR90       0.2643
     29  O         16.8390   71.9220  116.3530 O.2    90  THR90      -0.2714
     30  CB        17.2440   74.6230  117.3960 C.3    90  THR90       0.1808
     31  OG1       16.1740   74.7200  118.3410 O.3    90  THR90      -0.2208
     32  CG2       18.0540   75.9740  117.4160 C.3    90  THR90       0.0379
     33  N         14.9760   72.6760  115.3380 N.am   91  SER91      -0.1935
     34  CA        14.4310   71.3410  115.1680 C.3    91  SER91       0.2055
     35  C         14.2720   71.0150  113.6790 C.2    91  SER91       0.2642
     36  O         15.0360   71.5050  112.8420 O.2    91  SER91      -0.2714
     37  CB        13.1300   71.1610  115.9970 C.3    91  SER91       0.2130
     38  OG        12.5860   69.8390  115.8790 O.3    91  SER91      -0.2179
     39  N         13.3350   70.1400  113.3670 N.am   92  ARG92      -0.1977
     40  CA        13.2430   69.5270  112.0430 C.3    92  ARG92       0.1597
     41  C         12.7350   70.4660  110.9540 C.2    92  ARG92       0.2287
     42  O         13.1370   70.3300  109.8040 O.2    92  ARG92      -0.2864
     43  CB        12.3220   68.3050  112.1250 C.3    92  ARG92       0.0334
     44  CG        12.8810   67.1690  113.0300 C.3    92  ARG92       0.0492
     45  CD        14.2380   66.5400  112.5060 C.3    92  ARG92       0.2205
     46  NE        14.2980   66.4490  111.0400 N.pl3  92  ARG92      -0.0865
     47  CZ        13.6770   65.5200  110.3010 C.cat  92  ARG92       0.5346
     48  NH1       12.9620   64.5730  110.8830 N.pl3  92  ARG92       0.1354
     49  NH2       13.7610   65.5620  108.9570 N.pl3  92  ARG92       0.1354
     50  N          8.8520   66.3070  118.3840 N.3   111  GLU111     -0.1245
     51  CA         9.6850   65.1610  118.0130 C.3   111  GLU111      0.1567
     52  C          9.2180   63.9180  118.8050 C.2   111  GLU111      0.2260
     53  O          8.7220   64.0570  119.9450 O.2   111  GLU111     -0.2867
     54  CB        11.1680   65.4500  118.3020 C.3   111  GLU111      0.0388
     55  CG        11.7370   66.4830  117.3240 C.3   111  GLU111      0.1160
     56  CD        13.2580   66.6110  117.3920 C.2   111  GLU111      0.3649
     57  OE1       13.9300   65.6710  117.8740 O.co2 111  GLU111     -0.2457
     58  OE2       13.7680   67.6550  116.9490 O.co2 111  GLU111     -0.2457
     59  N         23.0920   55.3750  117.7250 N.3   400  ARG400     -0.1245
     60  CA        24.1800   56.1290  118.3680 C.3   400  ARG400      0.1563
     61  C         24.4960   55.6330  119.7700 C.2   400  ARG400      0.2260
     62  O         25.6270   55.7630  120.2430 O.2   400  ARG400     -0.2867
     63  CB        23.8370   57.6200  118.4580 C.3   400  ARG400      0.0307
     64  CG        24.0300   58.3380  117.1890 C.3   400  ARG400      0.0489
     65  CD        23.9910   59.8550  117.4080 C.3   400  ARG400      0.2205
     66  NE        23.5840   60.3910  116.1210 N.pl3 400  ARG400     -0.0865
     67  CZ        24.3680   61.0310  115.2670 C.cat 400  ARG400      0.5346
     68  NH1       25.6410   61.3420  115.5810 N.pl3 400  ARG400      0.1354
     69  NH2       23.8520   61.4070  114.1100 N.pl3 400  ARG400      0.1354
     70  N         26.2860   61.5090  109.9510 N.3   424  ASP424     -0.1239
     71  CA        26.1280   62.9570  109.9820 C.3   424  ASP424      0.1674
     72  C         26.2810   63.5930  108.5910 C.2   424  ASP424      0.2266
     73  O         25.5960   64.5560  108.2770 O.2   424  ASP424     -0.2867
     74  CB        27.0720   63.5740  111.0130 C.3   424  ASP424      0.1410
     75  CG        26.6020   63.2820  112.4480 C.2   424  ASP424      0.3668
     76  OD1       25.3950   63.1490  112.6570 O.co2 424  ASP424     -0.2456
     77  OD2       27.4250   63.1170  113.3520 O.co2 424  ASP424     -0.2456
     78  N         22.8180   63.1610  107.1160 N.3   427  LYS427     -0.1231
     79  CA        21.7990   63.9670  107.8120 C.3   427  LYS427      0.1693
     80  C         22.0290   65.4550  107.5780 C.2   427  LYS427      0.2592
     81  O         21.0550   66.2090  107.3880 O.2   427  LYS427     -0.2718
     82  CB        21.7860   63.6630  109.3200 C.3   427  LYS427      0.0285
     83  CG        21.3620   62.1820  109.5730 C.3   427  LYS427      0.0035
     84  CD        21.1350   61.9070  111.0150 C.3   427  LYS427      0.0206
     85  CE        19.8110   62.5130  111.5000 C.3   427  LYS427      0.1093
     86  NZ        19.6740   62.3750  112.9690 N.3   427  LYS427     -0.1314
     87  N         23.2970   65.8860  107.6150 N.am  428  ASN428     -0.1974
     88  CA        23.5950   67.3280  107.3840 C.3   428  ASN428      0.1688
     89  C         23.1840   67.7120  105.9680 C.2   428  ASN428      0.2292
     90  O         22.5340   68.7370  105.7550 O.2   428  ASN428     -0.2864
     91  CB        25.0970   67.6400  107.6090 C.3   428  ASN428      0.1181
     92  CG        25.5320   67.4700  109.0660 C.2   428  ASN428      0.2629
     93  OD1       24.7030   67.5050  109.9620 O.2   428  ASN428     -0.2716
     94  ND2       26.8300   67.3070  109.3030 N.am  428  ASN428     -0.0877
     95  N         19.3040   67.6820  105.6420 N.3   431  HIS431     -0.1241
     96  CA        18.7120   68.7960  106.3510 C.3   431  HIS431      0.1621
     97  C         18.9300   70.1170  105.5730 C.2   431  HIS431      0.2264
     98  O         18.0300   70.9770  105.5220 O.2   431  HIS431     -0.2867
     99  CB        19.2970   68.9140  107.7600 C.3   431  HIS431      0.0745
    100  CG        18.6670   70.0030  108.5660 C.ar  431  HIS431      0.0817
    101  ND1       17.3450   69.9710  108.9420 N.ar  431  HIS431     -0.2268
    102  CD2       19.1730   71.1620  109.0490 C.ar  431  HIS431      0.1154
    103  CE1       17.0630   71.0590  109.6390 C.ar  431  HIS431      0.1986
    104  NE2       18.1520   71.8030  109.7080 N.ar  431  HIS431     -0.2212
    105  N         16.1540   61.7860  108.7740 N.3   484  VAL484     -0.1245
    106  CA        16.7880   62.9300  108.0750 C.3   484  VAL484      0.1561
    107  C         17.6310   62.3980  106.9100 C.2   484  VAL484      0.2260
    108  O         18.8060   62.7630  106.7370 O.2   484  VAL484     -0.2867
    109  CB        17.6410   63.8920  109.0320 C.3   484  VAL484      0.0252
    110  CG1       17.8070   65.2680  108.3870 C.3   484  VAL484      0.0019
    111  CG2       16.9450   64.0230  110.4220 C.3   484  VAL484      0.0019
@<TRIPOS>BOND
     1    98    97    2
     2    97    96    1
     3    95    96    1
     4    90    89    2
     5    89    88    1
     6    96    99    1
     7   108   107    2
     8   107   106    1
     9    78    79    1
    10    88    91    1
    11    88    87    1
    12    81    80    2
    13    80    87   am
    14    80    79    1
    15    91    92    1
    16    99   100    1
    17    79    82    1
    18   106   105    1
    19   106   109    1
    20    73    72    2
    21   110   109    1
    22   100   101   ar
    23   100   102   ar
    24    72    71    1
    25   101   103   ar
    26    49    47    1
    27   109   111    1
    28   102   104   ar
    29    92    94   am
    30    92    93    2
    31    82    83    1
    32    83    84    1
    33   103   104   ar
    34    42    41    2
    35    70    71    1
    36    71    74    1
    37    47    48    1
    38    47    46    2
    39    41    40    1
    40    74    75    1
    41    84    85    1
    42    46    45    1
    43    85    86    1
    44    40    43    1
    45    40    39    1
    46    43    44    1
    47    75    76   ar
    48    75    77   ar
    49    45    44    1
    50    36    35    2
    51    39    35   am
    52    22    21    2
    53    35    34    1
    54    20    23    1
    55    20    21    1
    56    20    19    1
    57    69    67    1
    58    23    24    1
    59    21    26   am
    60    19    25    1
    61    24    25    1
    62    34    33    1
    63    34    37    1
    64    67    68    1
    65    67    66    2
    66    33    28   am
    67    26    27    1
    68    38    37    1
    69    28    27    1
    70    28    29    2
    71    27    30    1
    72    66    65    1
    73    58    56   ar
    74    64    65    1
    75    64    63    1
    76    55    56    1
    77    55    54    1
    78    56    57   ar
    79    30    32    1
    80    30    31    1
    81    59    60    1
    82    51    54    1
    83    51    50    1
    84    51    52    1
    85    60    63    1
    86    60    61    1
    87    52    53    2
    88    14    13    2
    89    18    16    1
    90    61    62    2
    91    13    12    1
    92    16    15    1
    93    16    17    1
    94    15    12    1
    95    12    11    1
    96     8    10   ar
    97     8     6   ar
    98    10     9   ar
    99     6     5    1
   100     6     7   ar
   101     4     3    2
   102     5     2    1
   103     9     7   ar
   104     1     2    1
   105     2     3    1
