@<TRIPOS>MOLECULE
tmp/3lg1B01.pdb
 89 87 0 0 0
SMALL
GASTEIGER

@<TRIPOS>ATOM
      1  N         -5.6800   26.8050  134.5720 N.3     5  VAL5       -0.1231
      2  CA        -6.9960   26.2980  134.1460 C.3     5  VAL5        0.1692
      3  C         -6.7890   25.1380  133.2020 C.2     5  VAL5        0.2592
      4  O         -5.6830   24.9180  132.6850 O.2     5  VAL5       -0.2718
      5  CB        -7.8860   27.3750  133.4660 C.3     5  VAL5        0.0266
      6  CG1       -8.2190   28.4770  134.4510 C.3     5  VAL5        0.0020
      7  CG2       -7.2120   27.9510  132.1950 C.3     5  VAL5        0.0020
      8  N         -7.8620   24.3930  132.9680 N.am    6  ASP6       -0.1960
      9  CA        -7.8240   23.2480  132.0840 C.3     6  ASP6        0.1840
     10  C         -7.9480   23.7420  130.6410 C.2     6  ASP6        0.2622
     11  O         -9.0440   24.0840  130.1630 O.2     6  ASP6       -0.2715
     12  CB        -8.9560   22.2800  132.4990 C.3     6  ASP6        0.1450
     13  CG        -9.0840   21.0790  131.5810 C.2     6  ASP6        0.3671
     14  OD1       -8.1690   20.8130  130.7670 O.co2   6  ASP6       -0.2456
     15  OD2      -10.1240   20.3920  131.7050 O.co2   6  ASP6       -0.2456
     16  N         -6.8190   23.7860  129.9330 N.am    7  ALA7       -0.1963
     17  CA        -6.8190   24.3440  128.5740 C.3     7  ALA7        0.1728
     18  C         -7.6020   23.4270  127.6260 C.2     7  ALA7        0.2616
     19  O         -8.1150   23.8850  126.6120 O.2     7  ALA7       -0.2715
     20  CB        -5.3980   24.5440  128.0570 C.3     7  ALA7        0.0334
     21  N         -7.6750   22.1350  127.9540 N.am    8  MET8       -0.1977
     22  CA        -8.3930   21.1900  127.0910 C.3     8  MET8        0.1605
     23  C         -9.8590   21.5940  126.9800 C.2     8  MET8        0.2287
     24  O        -10.4590   21.5070  125.9070 O.2     8  MET8       -0.2864
     25  CB        -8.2010   19.7310  127.5480 C.3     8  MET8        0.0413
     26  CG        -6.7440   19.2740  127.3950 C.3     8  MET8        0.0598
     27  SD        -6.1510   19.3520  125.7010 S.3     8  MET8       -0.1393
     28  CE        -7.3020   18.2610  124.8620 C.3     8  MET8        0.0692
     29  N        -10.0530   24.4190  124.6270 N.3    11  PHE11      -0.1241
     30  CA        -9.7360   23.9940  123.2630 C.3    11  PHE11       0.1605
     31  C        -10.9150   23.3080  122.5810 C.2    11  PHE11       0.2264
     32  O        -10.9980   23.2710  121.3480 O.2    11  PHE11      -0.2867
     33  CB        -8.5770   23.0110  123.2530 C.3    11  PHE11       0.0534
     34  CG        -7.2260   23.6440  123.5260 C.ar   11  PHE11      -0.0203
     35  CD1       -7.0020   25.0160  123.2910 C.ar   11  PHE11      -0.0042
     36  CD2       -6.1840   22.8590  124.0070 C.ar   11  PHE11      -0.0042
     37  CE1       -5.7410   25.5890  123.5320 C.ar   11  PHE11      -0.0003
     38  CE2       -4.9280   23.4130  124.2550 C.ar   11  PHE11      -0.0003
     39  CZ        -4.7010   24.7780  124.0050 C.ar   11  PHE11      -0.0000
     40  N         -1.5980   27.3530  119.8060 N.3    21  HIS21      -0.1226
     41  CA        -1.0220   27.1830  121.1560 C.3    21  HIS21       0.1752
     42  C         -0.2720   25.8650  121.3170 C.2    21  HIS21       0.2596
     43  O          0.8590   25.8520  121.8050 O.2    21  HIS21      -0.2718
     44  CB        -2.1120   27.3430  122.2410 C.3    21  HIS21       0.0759
     45  CG        -1.5830   27.3810  123.6530 C.ar   21  HIS21       0.0818
     46  ND1       -1.2760   26.2410  124.3740 N.ar   21  HIS21      -0.2268
     47  CD2       -1.3100   28.4320  124.4730 C.ar   21  HIS21       0.1154
     48  CE1       -0.8350   26.5880  125.5750 C.ar   21  HIS21       0.1986
     49  NE2       -0.8480   27.9100  125.6620 N.ar   21  HIS21      -0.2212
     50  N         -0.8770   24.7420  120.9000 N.am   22  THR22      -0.1953
     51  CA        -0.2580   23.4210  121.1340 C.3    22  THR22       0.1897
     52  C          1.0090   23.2010  120.3570 C.2    22  THR22       0.2313
     53  O          1.8240   22.3470  120.7110 O.2    22  THR22      -0.2863
     54  CB        -1.2130   22.2400  120.7610 C.3    22  THR22       0.1794
     55  OG1       -1.5610   22.3540  119.3720 O.3    22  THR22      -0.2208
     56  CG2       -2.4490   22.2710  121.6200 C.3    22  THR22       0.0378
     57  N          3.3810   26.5320  124.1540 N.3    27  ALA27      -0.1231
     58  CA         2.5510   25.3120  124.3960 C.3    27  ALA27       0.1694
     59  C          2.4300   24.9850  125.8860 C.2    27  ALA27       0.2593
     60  O          1.4390   24.3690  126.3190 O.2    27  ALA27      -0.2718
     61  CB         3.1260   24.1290  123.6400 C.3    27  ALA27       0.0304
     62  N          3.4150   25.4330  126.6890 N.am   28  THR28      -0.1939
     63  CA         3.3880   25.1170  128.1230 C.3    28  THR28       0.2028
     64  C          2.8710   26.2690  128.9730 C.2    28  THR28       0.2642
     65  O          2.8540   26.1610  130.2000 O.2    28  THR28      -0.2714
     66  CB         4.7930   24.7570  128.6800 C.3    28  THR28       0.1808
     67  OG1        5.6400   25.9160  128.5800 O.3    28  THR28      -0.2208
     68  CG2        5.4310   23.6190  127.9110 C.3    28  THR28       0.0379
     69  N          2.5080   27.3840  128.3360 N.am   29  VAL29      -0.1963
     70  CA         2.0890   28.5810  129.0600 C.3    29  VAL29       0.1727
     71  C          0.5760   28.5610  129.2580 C.2    29  VAL29       0.2616
     72  O         -0.1840   28.6120  128.2970 O.2    29  VAL29      -0.2715
     73  CB         2.5090   29.9050  128.3460 C.3    29  VAL29       0.0290
     74  CG1        2.0270   31.0900  129.1720 C.3    29  VAL29       0.0023
     75  CG2        4.0390   29.9430  128.1190 C.3    29  VAL29       0.0023
     76  N          0.1460   28.4850  130.5100 N.am   30  ASN30      -0.1958
     77  CA        -1.2680   28.3130  130.8070 C.3    30  ASN30       0.1819
     78  C         -2.0890   29.5840  130.5410 C.2    30  ASN30       0.2621
     79  O         -1.6010   30.6920  130.8110 O.2    30  ASN30      -0.2715
     80  CB        -1.4520   27.8870  132.2570 C.3    30  ASN30       0.1195
     81  CG        -2.8620   27.4090  132.5250 C.2    30  ASN30       0.2630
     82  OD1       -3.7060   28.1660  132.9900 O.2    30  ASN30      -0.2716
     83  ND2       -3.1400   26.1570  132.1620 N.am   30  ASN30      -0.0877
     84  N         -3.3230   29.4210  130.0340 N.am   31  CYS31      -0.1968
     85  CA        -4.2450   30.5290  129.7240 C.3    31  CYS31       0.1712
     86  C         -4.4370   31.5020  130.8560 C.2    31  CYS31       0.2296
     87  O         -4.6820   32.6880  130.6170 O.2    31  CYS31      -0.2864
     88  CB        -5.6510   29.9950  129.2990 C.3    31  CYS31       0.0983
     89  SG        -5.5420   28.4690  128.3910 S.3    31  CYS31      -0.0798
@<TRIPOS>BOND
     1    55    54    1
     2    40    41    1
     3    52    53    2
     4    52    51    1
     5    54    51    1
     6    54    56    1
     7    50    51    1
     8    50    42   am
     9    41    42    1
    10    41    44    1
    11    42    43    2
    12    32    31    2
    13    44    45    1
    14    31    30    1
    15    33    30    1
    16    33    34    1
    17    30    29    1
    18    35    34   ar
    19    35    37   ar
    20    34    36   ar
    21    37    39   ar
    22    61    58    1
    23    45    46   ar
    24    45    47   ar
    25    39    38   ar
    26    36    38   ar
    27    57    58    1
    28    46    48   ar
    29    58    59    1
    30    47    49   ar
    31    28    27    1
    32    48    49   ar
    33    27    26    1
    34    59    60    2
    35    59    62   am
    36    24    23    2
    37    19    18    2
    38    62    63    1
    39    23    22    1
    40    22    25    1
    41    22    21    1
    42    26    25    1
    43    18    21   am
    44    18    17    1
    45    68    66    1
    46    20    17    1
    47    75    73    1
    48    63    66    1
    49    63    64    1
    50    72    71    2
    51    69    64   am
    52    69    70    1
    53    73    70    1
    54    73    74    1
    55    89    88    1
    56    17    16    1
    57    67    66    1
    58    64    65    2
    59    70    71    1
    60    71    76   am
    61    88    85    1
    62    85    84    1
    63    85    86    1
    64    16    10   am
    65    84    78   am
    66    11    10    2
    67    76    77    1
    68    78    77    1
    69    78    79    2
    70    87    86    2
    71    10     9    1
    72    14    13   ar
    73    77    80    1
    74    13    15   ar
    75    13    12    1
    76     9    12    1
    77     9     8    1
    78    83    81   am
    79     7     5    1
    80    80    81    1
    81    81    82    2
    82     4     3    2
    83     8     3   am
    84     3     2    1
    85     5     2    1
    86     5     6    1
    87     2     1    1
