@<TRIPOS>MOLECULE
tmp/3lgbA00.pdb
 89 86 0 0 0
SMALL
GASTEIGER

@<TRIPOS>ATOM
      1  N         18.2370   13.8420   23.6700 N.3    97  HIS97      -0.1241
      2  CA        17.7370   15.1950   23.3930 C.3    97  HIS97       0.1621
      3  C         18.3780   15.7490   22.1140 C.2    97  HIS97       0.2264
      4  O         17.6840   16.2730   21.2380 O.2    97  HIS97      -0.2867
      5  CB        18.0930   16.0720   24.6090 C.3    97  HIS97       0.0745
      6  CG        17.8820   17.5270   24.4070 C.ar   97  HIS97       0.0817
      7  ND1       16.6400   18.1010   24.5870 N.ar   97  HIS97      -0.2268
      8  CD2       18.7900   18.4980   24.1630 C.ar   97  HIS97       0.1154
      9  CE1       16.8290   19.4020   24.4080 C.ar   97  HIS97       0.1986
     10  NE2       18.1070   19.6850   24.1580 N.ar   97  HIS97      -0.2212
     11  N         17.2270   13.7380   18.9640 N.3   100  LEU100     -0.1245
     12  CA        15.8530   14.0910   18.6050 C.3   100  LEU100      0.1561
     13  C         15.7530   15.4760   17.9600 C.2   100  LEU100      0.2260
     14  O         14.8200   15.7140   17.1840 O.2   100  LEU100     -0.2867
     15  CB        14.9530   13.9960   19.8530 C.3   100  LEU100      0.0270
     16  CG        14.7270   12.5560   20.3370 C.3   100  LEU100      0.0019
     17  CD1       14.2890   12.5120   21.8240 C.3   100  LEU100      0.0001
     18  CD2       13.7230   11.7930   19.4290 C.3   100  LEU100      0.0001
     19  N         14.3890   15.3770   11.0290 N.3   104  ARG104     -0.1245
     20  CA        13.8080   14.0320   11.0150 C.3   104  ARG104      0.1563
     21  C         14.3610   13.2340    9.8180 C.2   104  ARG104      0.2260
     22  O         14.5450   13.7850    8.7080 O.2   104  ARG104     -0.2867
     23  CB        12.2710   14.0700   10.8860 C.3   104  ARG104      0.0307
     24  CG        11.5440   14.9080   11.9410 C.3   104  ARG104      0.0489
     25  CD        11.2740   14.1020   13.1850 C.3   104  ARG104      0.2205
     26  NE        10.3160   14.7590   14.0810 N.pl3 104  ARG104     -0.0865
     27  CZ         9.1050   14.2850   14.3590 C.cat 104  ARG104      0.5346
     28  NH1        8.6830   13.1550   13.8050 N.pl3 104  ARG104      0.1354
     29  NH2        8.3090   14.9340   15.1960 N.pl3 104  ARG104      0.1354
     30  N         10.5360    7.0760   17.8950 N.3   116  ARG116     -0.1245
     31  CA         9.7580    8.1680   17.2880 C.3   116  ARG116      0.1563
     32  C          9.5820    7.9090   15.7810 C.2   116  ARG116      0.2260
     33  O          8.5030    8.1610   15.2200 O.2   116  ARG116     -0.2867
     34  CB        10.5230    9.4830   17.4630 C.3   116  ARG116      0.0307
     35  CG         9.7950   10.6910   16.8690 C.3   116  ARG116      0.0489
     36  CD        10.6840   11.9210   16.7710 C.3   116  ARG116      0.2205
     37  NE        11.8430   11.6580   15.9080 N.pl3 116  ARG116     -0.0865
     38  CZ        12.9010   12.4540   15.7890 C.cat 116  ARG116      0.5346
     39  NH1       12.9480   13.6150   16.4410 N.pl3 116  ARG116      0.1354
     40  NH2       13.8890   12.1270   14.9690 N.pl3 116  ARG116      0.1354
     41  N          2.6880    8.3270   23.4530 N.3   145  LYS145     -0.1231
     42  CA         2.7280    9.4760   24.3520 C.3   145  LYS145      0.1693
     43  C          3.8810   10.4460   24.0560 C.2   145  LYS145      0.2593
     44  O          3.9470   11.4960   24.6930 O.2   145  LYS145     -0.2718
     45  CB         2.8050    9.0070   25.8070 C.3   145  LYS145      0.0285
     46  CG         1.4570    8.5790   26.3770 C.3   145  LYS145      0.0035
     47  CD         1.6290    7.8440   27.6950 C.3   145  LYS145      0.0206
     48  CE         0.3380    7.7890   28.4610 C.3   145  LYS145      0.1093
     49  NZ        -0.6050    6.7650   27.9320 N.3   145  LYS145     -0.1314
     50  N          4.7910   10.0990   23.1310 N.am  146  GLY146     -0.1942
     51  CA         5.9540   10.9310   22.8290 C.3   146  GLY146      0.2014
     52  C          7.0670   10.7810   23.8540 C.2   146  GLY146      0.2639
     53  O          7.9960   11.5910   23.8730 O.2   146  GLY146     -0.2714
     54  N          7.0040    9.7250   24.6860 N.am  147  GLU147     -0.1963
     55  CA         7.9940    9.4780   25.7500 C.3   147  GLU147      0.1733
     56  C          8.9970    8.4570   25.2420 C.2   147  GLU147      0.2616
     57  O          9.0400    7.3150   25.6970 O.2   147  GLU147     -0.2715
     58  CB         7.3100    9.0470   27.0570 C.3   147  GLU147      0.0429
     59  CG         6.4320   10.1640   27.6000 C.3   147  GLU147      0.1163
     60  CD         5.6010    9.8690   28.8340 C.2   147  GLU147      0.3649
     61  OE1        5.4480    8.6800   29.1910 O.co2 147  GLU147     -0.2457
     62  OE2        5.0470   10.8340   29.4050 O.co2 147  GLU147     -0.2457
     63  N          9.7980    8.8770   24.2590 N.am  148  TYR148     -0.1960
     64  CA        10.7370    7.9700   23.5830 C.3   148  TYR148      0.1771
     65  C         11.7880    7.3890   24.4920 C.2   148  TYR148      0.2620
     66  O         12.0450    6.1900   24.4190 O.2   148  TYR148     -0.2715
     67  CB        11.3710    8.6650   22.3590 C.3   148  TYR148      0.0574
     68  CG        10.3040    9.3000   21.4980 C.ar  148  TYR148     -0.0198
     69  CD1        9.2380    8.5450   21.0000 C.ar  148  TYR148     -0.0009
     70  CD2       10.3220   10.6650   21.2270 C.ar  148  TYR148     -0.0009
     71  CE1        8.2050    9.1430   20.2760 C.ar  148  TYR148      0.0417
     72  CE2        9.3150   11.2650   20.4750 C.ar  148  TYR148      0.0417
     73  CZ         8.2480   10.5050   20.0210 C.ar  148  TYR148      0.1957
     74  OH         7.2460   11.1070   19.3010 O.3   148  TYR148     -0.2866
     75  N         12.3590    8.2170   25.3870 N.am  149  THR149     -0.1937
     76  CA        13.4100    7.7060   26.2930 C.3   149  THR149      0.2028
     77  C         12.8110    6.7600   27.3260 C.2   149  THR149      0.2642
     78  O         13.5110    5.8610   27.7920 O.2   149  THR149     -0.2714
     79  CB        14.2350    8.8220   26.9200 C.3   149  THR149      0.1808
     80  OG1       13.3670    9.6570   27.7070 O.3   149  THR149     -0.2208
     81  CG2       14.9970    9.6480   25.8600 C.3   149  THR149      0.0379
     82  N         11.5120    6.9330   27.6590 N.am  150  ILE150     -0.1977
     83  CA        10.8530    5.9770   28.5610 C.3   150  ILE150      0.1596
     84  C         10.6670    4.6440   27.8210 C.2   150  ILE150      0.2287
     85  O         10.9410    3.5910   28.3970 O.2   150  ILE150     -0.2864
     86  CB         9.5240    6.5240   29.1120 C.3   150  ILE150      0.0276
     87  CG1        9.8020    7.7540   30.0030 C.3   150  ILE150      0.0022
     88  CG2        8.7480    5.4140   29.8760 C.3   150  ILE150      0.0022
     89  CD1        8.5060    8.3480   30.6850 C.3   150  ILE150      0.0001
@<TRIPOS>BOND
     1    22    21    2
     2    21    20    1
     3    23    20    1
     4    23    24    1
     5    20    19    1
     6    24    25    1
     7    25    26    1
     8    28    27    1
     9    26    27    2
    10    27    29    1
    11    40    38    1
    12    33    32    2
    13    32    31    1
    14    38    37    2
    15    38    39    1
    16    37    36    1
    17    36    35    1
    18    35    34    1
    19    14    13    2
    20    31    34    1
    21    31    30    1
    22    13    12    1
    23    12    11    1
    24    12    15    1
    25    74    73    1
    26    18    16    1
    27    15    16    1
    28    73    71   ar
    29    73    72   ar
    30    71    69   ar
    31    16    17    1
    32    72    70   ar
    33    69    68   ar
    34    70    68   ar
    35     4     3    2
    36    68    67    1
    37     3     2    1
    38    67    64    1
    39    51    50    1
    40    51    52    1
    41    50    43   am
    42     2     1    1
    43     2     5    1
    44    41    42    1
    45    64    63    1
    46    64    65    1
    47    52    53    2
    48    52    54   am
    49    43    42    1
    50    43    44    2
    51    10     8   ar
    52    10     9   ar
    53     8     6   ar
    54    63    56   am
    55    42    45    1
    56     6     7   ar
    57     6     5    1
    58     9     7   ar
    59    66    65    2
    60    65    75   am
    61    54    55    1
    62    56    57    2
    63    56    55    1
    64    75    76    1
    65    55    58    1
    66    45    46    1
    67    81    79    1
    68    76    79    1
    69    76    77    1
    70    46    47    1
    71    79    80    1
    72    58    59    1
    73    77    82   am
    74    77    78    2
    75    59    60    1
    76    82    83    1
    77    47    48    1
    78    84    85    2
    79    84    83    1
    80    49    48    1
    81    83    86    1
    82    60    61   ar
    83    60    62   ar
    84    86    88    1
    85    86    87    1
    86    87    89    1
