@<TRIPOS>MOLECULE
tmp/3lgdB02.pdb
 88 85 0 0 0
SMALL
GASTEIGER

@<TRIPOS>ATOM
      1  N         27.8470   -2.0360   16.9870 N.3   313  LEU313     -0.1231
      2  CA        26.6250   -2.5000   17.6500 C.3   313  LEU313      0.1693
      3  C         26.8050   -3.7590   18.4940 C.2   313  LEU313      0.2591
      4  O         25.9600   -4.0590   19.3470 O.2   313  LEU313     -0.2718
      5  CB        25.4700   -2.6660   16.6210 C.3   313  LEU313      0.0284
      6  CG        25.1110   -1.3300   15.9230 C.3   313  LEU313      0.0019
      7  CD1       24.0800   -1.5030   14.8270 C.3   313  LEU313      0.0001
      8  CD2       24.6200   -0.2830   16.9430 C.3   313  LEU313      0.0001
      9  N         27.9000   -4.4800   18.2410 N.am  314  MET314     -0.1979
     10  CA        28.2820   -5.6770   19.0210 C.3   314  MET314      0.1605
     11  C         29.2190   -5.3820   20.2090 C.2   314  MET314      0.2287
     12  O         29.5470   -6.2930   20.9760 O.2   314  MET314     -0.2864
     13  CB        28.9570   -6.7360   18.1230 C.3   314  MET314      0.0413
     14  CG        28.0710   -7.3840   17.0620 C.3   314  MET314      0.0598
     15  SD        26.4820   -7.9200   17.7180 S.3   314  MET314     -0.1393
     16  CE        26.9210   -9.2500   18.8580 C.3   314  MET314      0.0692
     17  N         28.7160   -3.8450   23.1180 N.3   316  PRO316     -0.2102
     18  CA        28.2210   -4.2500   24.4450 C.3   316  PRO316      0.1504
     19  C         28.2840   -5.7650   24.6990 C.2   316  PRO316      0.2575
     20  O         28.7060   -6.1980   25.7870 O.2   316  PRO316     -0.2718
     21  CB        26.7770   -3.7330   24.4620 C.3   316  PRO316      0.0282
     22  CG        26.7820   -2.5900   23.4880 C.3   316  PRO316      0.0208
     23  CD        27.7520   -2.9760   22.4090 C.3   316  PRO316      0.0893
     24  N         27.8820   -6.5660   23.7170 N.am  317  ALA317     -0.1980
     25  CA        27.9610   -8.0170   23.8600 C.3   317  ALA317      0.1597
     26  C         29.4210   -8.4990   24.0620 C.2   317  ALA317      0.2287
     27  O         29.6960   -9.3140   24.9540 O.2   317  ALA317     -0.2864
     28  CB        27.3060   -8.7060   22.6770 C.3   317  ALA317      0.0319
     29  N         27.9250   -6.7370   28.3020 N.3   321  VAL321     -0.1231
     30  CA        26.8150   -5.8920   28.7720 C.3   321  VAL321      0.1692
     31  C         25.6290   -5.8990   27.7870 C.2   321  VAL321      0.2592
     32  O         25.8180   -5.9860   26.5780 O.2   321  VAL321     -0.2718
     33  CB        27.2820   -4.4260   28.9530 C.3   321  VAL321      0.0266
     34  CG1       26.1670   -3.5460   29.5560 C.3   321  VAL321      0.0020
     35  CG2       28.5660   -4.3460   29.8050 C.3   321  VAL321      0.0020
     36  N         24.4140   -5.7980   28.3130 N.am  322  LYS322     -0.1966
     37  CA        23.2120   -5.6670   27.4860 C.3   322  LYS322      0.1728
     38  C         22.9160   -4.1690   27.2600 C.2   322  LYS322      0.2616
     39  O         22.5950   -3.4470   28.2000 O.2   322  LYS322     -0.2715
     40  CB        22.0360   -6.3710   28.1850 C.3   322  LYS322      0.0311
     41  CG        20.6870   -6.2500   27.4710 C.3   322  LYS322      0.0038
     42  CD        19.7570   -7.4030   27.8220 C.3   322  LYS322      0.0206
     43  CE        18.9630   -7.1380   29.1040 C.3   322  LYS322      0.1093
     44  NZ        17.9740   -8.2380   29.3590 N.3   322  LYS322     -0.1314
     45  N         23.0880   -3.6890   26.0380 N.am  323  LEU323     -0.1977
     46  CA        22.5900   -2.3600   25.7020 C.3   323  LEU323      0.1596
     47  C         21.2710   -2.4890   24.8940 C.2   323  LEU323      0.2287
     48  O         21.2730   -2.9380   23.7600 O.2   323  LEU323     -0.2864
     49  CB        23.6350   -1.5150   24.9610 C.3   323  LEU323      0.0297
     50  CG        23.1910   -0.1590   24.3470 C.3   323  LEU323      0.0022
     51  CD1       22.8060    0.8910   25.4210 C.3   323  LEU323      0.0001
     52  CD2       24.2760    0.3570   23.4100 C.3   323  LEU323      0.0001
     53  N         18.2940   -1.8780   22.4610 N.3   325  TYR325     -0.1241
     54  CA        18.1850   -1.1580   21.2100 C.3   325  TYR325      0.1605
     55  C         16.6970   -0.9150   20.8540 C.2   325  TYR325      0.2264
     56  O         15.8340   -1.6900   21.2360 O.2   325  TYR325     -0.2867
     57  CB        18.9010   -1.9430   20.0890 C.3   325  TYR325      0.0534
     58  CG        20.4470   -1.9800   20.2110 C.ar  325  TYR325     -0.0201
     59  CD1       21.1800   -0.8110   20.3630 C.ar  325  TYR325     -0.0009
     60  CD2       21.1530   -3.1890   20.1150 C.ar  325  TYR325     -0.0009
     61  CE1       22.5870   -0.8260   20.4460 C.ar  325  TYR325      0.0417
     62  CE2       22.5720   -3.2230   20.1950 C.ar  325  TYR325      0.0417
     63  CZ        23.2770   -2.0420   20.3640 C.ar  325  TYR325      0.1957
     64  OH        24.6630   -2.0400   20.4520 O.3   325  TYR325     -0.2866
     65  N         17.9030   -9.4460   14.9400 N.3   348  MET348     -0.1230
     66  CA        19.1240  -10.2130   15.2560 C.3   348  MET348      0.1702
     67  C         19.9640   -9.5440   16.3440 C.2   348  MET348      0.2592
     68  O         20.7090  -10.2100   17.0720 O.2   348  MET348     -0.2718
     69  CB        19.9770  -10.4300   13.9990 C.3   348  MET348      0.0401
     70  CG        19.3610  -11.2990   12.8910 C.3   348  MET348      0.0596
     71  SD        18.7950  -12.9320   13.3790 S.3   348  MET348     -0.1393
     72  CE        17.0880  -12.6490   13.8950 C.3   348  MET348      0.0692
     73  N         19.8540   -8.2190   16.4340 N.am  349  LEU349     -0.1966
     74  CA        20.4940   -7.4520   17.4920 C.3   349  LEU349      0.1728
     75  C         19.6450   -7.2740   18.7660 C.2   349  LEU349      0.2616
     76  O         19.9720   -6.4420   19.6110 O.2   349  LEU349     -0.2715
     77  CB        20.9880   -6.1120   16.9570 C.3   349  LEU349      0.0311
     78  CG        22.0770   -6.1610   15.8830 C.3   349  LEU349      0.0022
     79  CD1       22.1680   -4.8230   15.1270 C.3   349  LEU349      0.0001
     80  CD2       23.4450   -6.5210   16.4950 C.3   349  LEU349      0.0001
     81  N         18.5960   -8.0940   18.9010 N.am  350  ASN350     -0.1972
     82  CA        17.6890   -8.1150   20.0640 C.3   350  ASN350      0.1688
     83  C         16.9640   -6.7990   20.3660 C.2   350  ASN350      0.2292
     84  O         16.7600   -6.4490   21.5310 O.2   350  ASN350     -0.2864
     85  CB        18.4210   -8.6040   21.3340 C.3   350  ASN350      0.1181
     86  CG        19.3730   -9.7520   21.0510 C.2   350  ASN350      0.2629
     87  OD1       19.1240  -10.5620   20.1620 O.2   350  ASN350     -0.2716
     88  ND2       20.4800   -9.8180   21.8010 N.am  350  ASN350     -0.0877
@<TRIPOS>BOND
     1    70    71    1
     2    70    69    1
     3    71    72    1
     4    69    66    1
     5     7     6    1
     6    65    66    1
     7    79    78    1
     8    66    67    1
     9    78    80    1
    10    78    77    1
    11     6     5    1
    12     6     8    1
    13    67    73   am
    14    67    68    2
    15    73    74    1
    16     5     2    1
    17    77    74    1
    18     1     2    1
    19    14    15    1
    20    14    13    1
    21    74    75    1
    22     2     3    1
    23    15    16    1
    24    13    10    1
    25     9     3   am
    26     9    10    1
    27     3     4    2
    28    75    81   am
    29    75    76    2
    30    81    82    1
    31    10    11    1
    32    82    83    1
    33    82    85    1
    34    57    58    1
    35    57    54    1
    36    60    62   ar
    37    60    58   ar
    38    87    86    2
    39    62    63   ar
    40    11    12    2
    41    58    59   ar
    42    59    61   ar
    43    63    61   ar
    44    63    64    1
    45    83    84    2
    46    55    54    1
    47    55    56    2
    48    86    85    1
    49    86    88   am
    50    54    53    1
    51    23    17    1
    52    23    22    1
    53    28    25    1
    54    17    18    1
    55    52    50    1
    56    22    21    1
    57    24    25    1
    58    24    19   am
    59    48    47    2
    60    25    26    1
    61    26    27    2
    62    50    49    1
    63    50    51    1
    64    18    21    1
    65    18    19    1
    66    19    20    2
    67    47    46    1
    68    49    46    1
    69    46    45    1
    70    45    38   am
    71    32    31    2
    72    38    37    1
    73    38    39    2
    74    41    42    1
    75    41    40    1
    76    37    40    1
    77    37    36    1
    78    31    36   am
    79    31    30    1
    80    42    43    1
    81    29    30    1
    82    30    33    1
    83    33    34    1
    84    33    35    1
    85    43    44    1
