@<TRIPOS>MOLECULE
tmp/3lgdB01.pdb
 108 103 0 0 0
SMALL
GASTEIGER

@<TRIPOS>ATOM
      1  N         22.3710   34.0840    8.3540 N.3   110  PHE110     -0.1241
      2  CA        22.2490   33.2060    7.1870 C.3   110  PHE110      0.1605
      3  C         23.6020   32.6570    6.7500 C.2   110  PHE110      0.2264
      4  O         24.5720   33.4040    6.6190 O.2   110  PHE110     -0.2867
      5  CB        21.5540   33.9300    6.0270 C.3   110  PHE110      0.0534
      6  CG        20.1240   34.2990    6.3180 C.ar  110  PHE110     -0.0203
      7  CD1       19.0920   33.4090    6.0440 C.ar  110  PHE110     -0.0042
      8  CD2       19.8130   35.5280    6.8830 C.ar  110  PHE110     -0.0042
      9  CE1       17.7650   33.7470    6.3240 C.ar  110  PHE110     -0.0003
     10  CE2       18.4940   35.8760    7.1740 C.ar  110  PHE110     -0.0003
     11  CZ        17.4650   34.9830    6.8880 C.ar  110  PHE110     -0.0000
     12  N         22.6200   30.4480    2.2100 N.3   114  GLY114     -0.1210
     13  CA        21.3190   31.0810    2.4680 C.3   114  GLY114      0.1956
     14  C         20.3870   30.3460    3.4300 C.2   114  GLY114      0.2612
     15  O         19.1770   30.6050    3.4570 O.2   114  GLY114     -0.2717
     16  N         20.9420   29.4340    4.2230 N.am  115  ILE115     -0.1965
     17  CA        20.1400   28.7240    5.2220 C.3   115  ILE115      0.1727
     18  C         20.1050   29.4580    6.5660 C.2   115  ILE115      0.2616
     19  O         21.1430   29.7200    7.1820 O.2   115  ILE115     -0.2715
     20  CB        20.5980   27.2620    5.4170 C.3   115  ILE115      0.0290
     21  CG1       20.5400   26.5040    4.0780 C.3   115  ILE115      0.0022
     22  CG2       19.7280   26.5740    6.4870 C.3   115  ILE115      0.0023
     23  CD1       21.3370   25.2190    4.0630 C.3   115  ILE115      0.0001
     24  N         18.8890   29.7760    6.9890 N.am  116  MET116     -0.1977
     25  CA        18.6090   30.4410    8.2580 C.3   116  MET116      0.1605
     26  C         19.0960   29.6770    9.5010 C.2   116  MET116      0.2287
     27  O         19.0110   28.4540    9.5720 O.2   116  MET116     -0.2864
     28  CB        17.1160   30.7240    8.3460 C.3   116  MET116      0.0413
     29  CG        16.7200   31.6550    9.4470 C.3   116  MET116      0.0598
     30  SD        14.9930   32.1030    9.2850 S.3   116  MET116     -0.1393
     31  CE        14.1760   30.6230    9.8350 C.3   116  MET116      0.0692
     32  N          6.4250   29.5000    8.6740 N.3   156  ARG156     -0.1231
     33  CA         6.4370   28.7110    7.4280 C.3   156  ARG156      0.1694
     34  C          7.7790   28.0230    7.1940 C.2   156  ARG156      0.2592
     35  O          7.8350   26.9670    6.5780 O.2   156  ARG156     -0.2718
     36  CB         6.0400   29.5620    6.2130 C.3   156  ARG156      0.0321
     37  CG         4.5800   30.0370    6.2520 C.3   156  ARG156      0.0489
     38  CD         4.1210   30.6200    4.9060 C.3   156  ARG156      0.2205
     39  NE         5.1590   31.4450    4.2780 N.pl3 156  ARG156     -0.0865
     40  CZ         5.2550   32.7700    4.3880 C.cat 156  ARG156      0.5346
     41  NH1        4.3690   33.4610    5.1020 N.pl3 156  ARG156      0.1354
     42  NH2        6.2430   33.4080    3.7680 N.pl3 156  ARG156      0.1354
     43  N          8.8580   28.6010    7.7090 N.am  157  ASN157     -0.1974
     44  CA        10.1510   27.9550    7.5840 C.3   157  ASN157      0.1688
     45  C         10.4340   26.8890    8.6520 C.2   157  ASN157      0.2292
     46  O         11.4150   26.1590    8.5510 O.2   157  ASN157     -0.2864
     47  CB        11.2950   28.9760    7.5140 C.3   157  ASN157      0.1181
     48  CG        12.4070   28.5180    6.5970 C.2   157  ASN157      0.2629
     49  OD1       13.5820   28.4800    6.9860 O.2   157  ASN157     -0.2716
     50  ND2       12.0350   28.1430    5.3630 N.am  157  ASN157     -0.0877
     51  N          8.2260   24.4110    9.5230 N.3   159  THR159     -0.1203
     52  CA         7.4340   23.1910    9.2760 C.3   159  THR159      0.1994
     53  C          7.4720   22.8360    7.7980 C.2   159  THR159      0.2618
     54  O          7.9260   23.6290    6.9680 O.2   159  THR159     -0.2717
     55  CB         5.9340   23.2820    9.7320 C.3   159  THR159      0.1784
     56  OG1        5.1520   23.9410    8.7310 O.3   159  THR159     -0.2211
     57  CG2        5.7490   23.9920   11.0760 C.3   159  THR159      0.0376
     58  N          6.9880   21.6380    7.4790 N.am  160  LEU160     -0.1965
     59  CA         6.8880   21.2000    6.0940 C.3   160  LEU160      0.1728
     60  C          5.5570   21.6080    5.4630 C.2   160  LEU160      0.2616
     61  O          5.3890   21.4810    4.2560 O.2   160  LEU160     -0.2715
     62  CB         7.0600   19.6770    6.0150 C.3   160  LEU160      0.0311
     63  CG         8.4420   19.1410    6.3570 C.3   160  LEU160      0.0022
     64  CD1        8.4090   17.6030    6.5500 C.3   160  LEU160      0.0001
     65  CD2        9.4590   19.5610    5.2790 C.3   160  LEU160      0.0001
     66  N          4.6250   22.0770    6.2890 N.am  161  VAL161     -0.1977
     67  CA         3.2540   22.3390    5.8740 C.3   161  VAL161      0.1596
     68  C          3.2380   23.2900    4.6770 C.2   161  VAL161      0.2287
     69  O          3.9080   24.3260    4.6860 O.2   161  VAL161     -0.2864
     70  CB         2.3930   22.9510    7.0380 C.3   161  VAL161      0.0276
     71  CG1        1.0350   23.3980    6.5230 C.3   161  VAL161      0.0022
     72  CG2        2.2070   21.9410    8.1990 C.3   161  VAL161      0.0022
     73  N          7.3370   19.1910   -3.0560 N.3   169  TYR169     -0.1241
     74  CA         8.2340   18.0880   -2.7270 C.3   169  TYR169      0.1605
     75  C          8.0400   17.0230   -3.7680 C.2   169  TYR169      0.2264
     76  O          7.1150   16.2260   -3.6770 O.2   169  TYR169     -0.2867
     77  CB         7.9650   17.5240   -1.3310 C.3   169  TYR169      0.0534
     78  CG         7.8630   18.5730   -0.2460 C.ar  169  TYR169     -0.0201
     79  CD1        8.9400   19.4060    0.0520 C.ar  169  TYR169     -0.0009
     80  CD2        6.6900   18.7130    0.4950 C.ar  169  TYR169     -0.0009
     81  CE1        8.8480   20.3760    1.0680 C.ar  169  TYR169      0.0417
     82  CE2        6.5890   19.6580    1.5100 C.ar  169  TYR169      0.0417
     83  CZ         7.6650   20.4870    1.7850 C.ar  169  TYR169      0.1957
     84  OH         7.5530   21.4370    2.7840 O.3   169  TYR169     -0.2866
     85  N         14.5810   19.1900    2.8980 N.3   178  LYS178     -0.1245
     86  CA        13.8720   20.2270    3.6440 C.3   178  LYS178      0.1561
     87  C         13.6590   19.8800    5.1190 C.2   178  LYS178      0.2260
     88  O         13.8430   20.7430    5.9860 O.2   178  LYS178     -0.2867
     89  CB        12.5380   20.5870    2.9960 C.3   178  LYS178      0.0271
     90  CG        12.6170   20.8680    1.4860 C.3   178  LYS178      0.0035
     91  CD        13.1930   22.2570    1.1920 C.3   178  LYS178      0.0206
     92  CE        13.1260   22.5770   -0.2960 C.3   178  LYS178      0.1093
     93  NZ        13.6530   23.9540   -0.5300 N.3   178  LYS178     -0.1314
     94  N         16.9260   20.2620    7.0670 N.3   181  THR181     -0.1203
     95  CA        17.2070   21.6920    7.1320 C.3   181  THR181      0.1994
     96  C         16.3900   22.4100    8.2340 C.2   181  THR181      0.2617
     97  O         16.8900   23.3520    8.8700 O.2   181  THR181     -0.2717
     98  CB        17.0090   22.3720    5.7570 C.3   181  THR181      0.1784
     99  OG1       17.9110   21.7800    4.8210 O.3   181  THR181     -0.2211
    100  CG2       17.2830   23.8790    5.8240 C.3   181  THR181      0.0376
    101  N         15.1460   21.9860    8.4440 N.am  182  ILE182     -0.1979
    102  CA        14.3590   22.4930    9.5640 C.3   182  ILE182      0.1595
    103  C         15.0510   22.2030   10.9070 C.2   182  ILE182      0.2287
    104  O         15.1380   23.0910   11.7550 O.2   182  ILE182     -0.2864
    105  CB        12.9160   21.9400    9.5780 C.3   182  ILE182      0.0276
    106  CG1       12.1260   22.4540    8.3720 C.3   182  ILE182      0.0022
    107  CG2       12.1960   22.3190   10.8890 C.3   182  ILE182      0.0022
    108  CD1       10.8240   21.6750    8.1630 C.3   182  ILE182      0.0001
@<TRIPOS>BOND
     1    75    76    2
     2    75    74    1
     3    73    74    1
     4    74    77    1
     5    77    78    1
     6    93    92    1
     7    92    91    1
     8    78    79   ar
     9    78    80   ar
    10    79    81   ar
    11    80    82   ar
    12    81    83   ar
    13    91    90    1
    14    90    89    1
    15    82    83   ar
    16    83    84    1
    17    12    13    1
    18    13    14    1
    19    85    86    1
    20    89    86    1
    21    14    15    2
    22    14    16   am
    23    86    87    1
    24    42    40    1
    25    23    21    1
    26    21    20    1
    27    16    17    1
    28    61    60    2
    29    39    40    2
    30    39    38    1
    31    40    41    1
    32    68    69    2
    33    68    67    1
    34    99    98    1
    35    38    37    1
    36    87    88    2
    37    17    20    1
    38    17    18    1
    39    65    63    1
    40    50    48   am
    41    20    22    1
    42    60    59    1
    43    60    66   am
    44    98   100    1
    45    98    95    1
    46    67    66    1
    47    67    70    1
    48    62    59    1
    49    62    63    1
    50     5     6    1
    51     5     2    1
    52     7     6   ar
    53     7     9   ar
    54    59    58    1
    55    36    37    1
    56    36    33    1
    57     6     8   ar
    58     9    11   ar
    59    63    64    1
    60    71    70    1
    61    18    24   am
    62    18    19    2
    63    35    34    2
    64    48    49    2
    65    48    47    1
    66     4     3    2
    67     3     2    1
    68     8    10   ar
    69    11    10   ar
    70    54    53    2
    71    24    25    1
    72    70    72    1
    73    94    95    1
    74    95    96    1
    75     2     1    1
    76    34    33    1
    77    34    43   am
    78    33    32    1
    79    58    53   am
    80    47    44    1
    81    44    43    1
    82    44    45    1
    83    53    52    1
    84   108   106    1
    85    96   101   am
    86    96    97    2
    87    25    28    1
    88    25    26    1
    89    28    29    1
    90   106   105    1
    91   101   102    1
    92    46    45    2
    93    56    55    1
    94    52    51    1
    95    52    55    1
    96    30    29    1
    97    30    31    1
    98    26    27    2
    99   102   105    1
   100   102   103    1
   101   105   107    1
   102    55    57    1
   103   103   104    2
