@<TRIPOS>MOLECULE
tmp/3lgeA00.pdb
 163 154 0 0 0
SMALL
GASTEIGER

@<TRIPOS>ATOM
      1  N        -27.1470  -15.8560   73.2090 N.3    34  GLU34      -0.1245
      2  CA       -28.1120  -16.6840   73.9510 C.3    34  GLU34       0.1567
      3  C        -29.0000  -15.7870   74.8450 C.2    34  GLU34       0.2260
      4  O        -28.4930  -14.8510   75.4850 O.2    34  GLU34      -0.2867
      5  CB       -27.3960  -17.7660   74.8070 C.3    34  GLU34       0.0388
      6  CG       -26.4270  -18.6590   74.0290 C.3    34  GLU34       0.1160
      7  CD       -25.0220  -18.1260   73.7810 C.2    34  GLU34       0.3649
      8  OE1      -24.7040  -16.9940   74.2140 O.co2  34  GLU34      -0.2457
      9  OE2      -24.2270  -18.8590   73.1550 O.co2  34  GLU34      -0.2457
     10  N        -32.6630  -17.1970   79.4390 N.3    37  GLY37      -0.1210
     11  CA       -33.1040  -18.5660   79.6790 C.3    37  GLY37       0.1956
     12  C        -32.1360  -19.6360   79.1990 C.2    37  GLY37       0.2612
     13  O        -31.8350  -20.5770   79.9480 O.2    37  GLY37      -0.2717
     14  N        -31.6540  -19.5090   77.9370 N.am   38  SER38      -0.1952
     15  CA       -30.6230  -20.3880   77.3680 C.3    38  SER38       0.1924
     16  C        -29.3310  -20.3390   78.1880 C.2    38  SER38       0.2314
     17  O        -28.8120  -21.3830   78.5870 O.2    38  SER38      -0.2863
     18  CB       -30.3320  -20.0130   75.9170 C.3    38  SER38       0.2116
     19  OG       -29.1640  -20.6750   75.4530 O.3    38  SER38      -0.2180
     20  N        -29.3940  -22.2420   81.4520 N.3    41  LYS41      -0.1231
     21  CA       -29.0910  -23.6550   81.1920 C.3    41  LYS41       0.1693
     22  C        -27.5750  -23.9150   81.0670 C.2    41  LYS41       0.2591
     23  O        -27.0840  -24.9090   81.6030 O.2    41  LYS41      -0.2718
     24  CB       -29.8440  -24.1780   79.9540 C.3    41  LYS41       0.0285
     25  CG       -31.3620  -24.1150   80.0710 C.3    41  LYS41       0.0035
     26  CD       -32.0500  -24.5630   78.7860 C.3    41  LYS41       0.0206
     27  CE       -33.5530  -24.4210   78.8460 C.3    41  LYS41       0.1093
     28  NZ       -34.1840  -25.4980   79.6550 N.3    41  LYS41      -0.1314
     29  N        -26.8380  -23.0250   80.3670 N.am   42  ARG42      -0.1980
     30  CA       -25.3780  -23.1290   80.2360 C.3    42  ARG42       0.1597
     31  C        -24.7220  -23.0960   81.6030 C.2    42  ARG42       0.2287
     32  O        -23.9060  -23.9650   81.9110 O.2    42  ARG42      -0.2864
     33  CB       -24.8150  -22.0040   79.3390 C.3    42  ARG42       0.0334
     34  CG       -24.7300  -22.3130   77.8360 C.3    42  ARG42       0.0492
     35  CD       -26.0810  -22.5530   77.1880 C.3    42  ARG42       0.2205
     36  NE       -26.4790  -23.9550   77.3390 N.pl3  42  ARG42      -0.0865
     37  CZ       -27.6820  -24.4450   77.0570 C.cat  42  ARG42       0.5346
     38  NH1      -28.6340  -23.6550   76.5770 N.pl3  42  ARG42       0.1354
     39  NH2      -27.9310  -25.7350   77.2210 N.pl3  42  ARG42       0.1354
     40  N        -19.1380  -14.3240   82.3840 N.3    58  TYR58      -0.1241
     41  CA       -18.9650  -15.3090   81.3270 C.3    58  TYR58       0.1605
     42  C        -18.7860  -14.6260   79.9740 C.2    58  TYR58       0.2264
     43  O        -17.9020  -15.0140   79.2230 O.2    58  TYR58      -0.2867
     44  CB       -20.1070  -16.3420   81.2760 C.3    58  TYR58       0.0534
     45  CG       -19.9420  -17.3280   80.1380 C.ar   58  TYR58      -0.0201
     46  CD1      -18.7990  -18.1210   80.0350 C.ar   58  TYR58      -0.0009
     47  CD2      -20.9030  -17.4330   79.1360 C.ar   58  TYR58      -0.0009
     48  CE1      -18.6140  -18.9860   78.9580 C.ar   58  TYR58       0.0417
     49  CE2      -20.7300  -18.2980   78.0550 C.ar   58  TYR58       0.0417
     50  CZ       -19.5840  -19.0730   77.9720 C.ar   58  TYR58       0.1957
     51  OH       -19.4190  -19.9300   76.9150 O.3    58  TYR58      -0.2866
     52  N        -33.7670  -15.1020   63.5580 N.3   148  ARG148     -0.1245
     53  CA       -33.7470  -16.5490   63.3500 C.3   148  ARG148      0.1563
     54  C        -35.1370  -17.0710   63.0310 C.2   148  ARG148      0.2260
     55  O        -36.0550  -16.9140   63.8450 O.2   148  ARG148     -0.2867
     56  CB       -33.1800  -17.2500   64.5970 C.3   148  ARG148      0.0307
     57  CG       -33.2400  -18.7830   64.5520 C.3   148  ARG148      0.0489
     58  CD       -32.6320  -19.3370   65.8220 C.3   148  ARG148      0.2205
     59  NE       -32.5960  -20.7950   65.8100 N.pl3 148  ARG148     -0.0865
     60  CZ       -33.3780  -21.5620   66.5540 C.cat 148  ARG148      0.5346
     61  NH1      -34.2570  -21.0160   67.3870 N.pl3 148  ARG148      0.1354
     62  NH2      -33.3050  -22.8820   66.4570 N.pl3 148  ARG148      0.1354
     63  N        -33.0410  -21.2200   59.4170 N.3   189  GLU189     -0.1245
     64  CA       -32.4450  -22.4300   59.9880 C.3   189  GLU189      0.1567
     65  C        -33.3290  -23.6320   59.7070 C.2   189  GLU189      0.2260
     66  O        -34.4720  -23.6870   60.1620 O.2   189  GLU189     -0.2867
     67  CB       -32.1970  -22.2740   61.4810 C.3   189  GLU189      0.0388
     68  CG       -31.6290  -23.5130   62.1580 C.3   189  GLU189      0.1160
     69  CD       -31.2870  -23.2930   63.6250 C.2   189  GLU189      0.3649
     70  OE1      -30.9530  -22.1510   64.0150 O.co2 189  GLU189     -0.2457
     71  OE2      -31.3580  -24.2740   64.3920 O.co2 189  GLU189     -0.2457
     72  N        -33.6920  -27.3020   60.7050 N.3   191  LEU191     -0.1231
     73  CA       -33.2660  -28.1960   61.7900 C.3   191  LEU191      0.1678
     74  C        -32.7200  -29.5300   61.2760 C.2   191  LEU191      0.2434
     75  O        -33.2620  -30.0900   60.3230 O.2   191  LEU191     -0.2733
     76  CB       -34.3970  -28.4560   62.8240 C.3   191  LEU191      0.0284
     77  CG       -34.8980  -27.2600   63.6460 C.3   191  LEU191      0.0019
     78  CD1      -35.9300  -27.6960   64.6790 C.3   191  LEU191      0.0001
     79  CD2      -33.7530  -26.5200   64.3540 C.3   191  LEU191      0.0001
     80  N        -31.6280  -30.0390   61.8880 N.am  192  PRO192     -0.2718
     81  CA       -31.1320  -31.3790   61.5160 C.3   192  PRO192      0.1535
     82  C        -31.9150  -32.5430   62.1350 C.2   192  PRO192      0.2598
     83  O        -31.5670  -33.6980   61.9010 O.2   192  PRO192     -0.2715
     84  CB       -29.6720  -31.3470   61.9590 C.3   192  PRO192      0.0310
     85  CG       -29.6820  -30.4210   63.1530 C.3   192  PRO192      0.0237
     86  CD       -30.7640  -29.4010   62.9100 C.3   192  PRO192      0.0939
     87  N        -32.9930  -32.2500   62.8780 N.am  193  ASP193     -0.1972
     88  CA       -33.8360  -33.2520   63.5490 C.3   193  ASP193      0.1709
     89  C        -34.5260  -34.1700   62.5470 C.2   193  ASP193      0.2293
     90  O        -35.1000  -33.6870   61.5620 O.2   193  ASP193     -0.2864
     91  CB       -34.9080  -32.5520   64.4170 C.3   193  ASP193      0.1436
     92  CG       -34.4050  -31.5710   65.4740 C.2   193  ASP193      0.3671
     93  OD1      -35.1220  -31.3580   66.4640 O.co2 193  ASP193     -0.2456
     94  OD2      -33.3150  -30.9770   65.2810 O.co2 193  ASP193     -0.2456
     95  N        -30.1440  -36.0700   62.2620 N.3   237  HIS237     -0.1241
     96  CA       -29.4610  -36.6600   63.4170 C.3   237  HIS237      0.1621
     97  C        -29.7310  -38.1520   63.5880 C.2   237  HIS237      0.2264
     98  O        -28.8480  -38.8740   64.0430 O.2   237  HIS237     -0.2867
     99  CB       -29.7470  -35.8830   64.7180 C.3   237  HIS237      0.0745
    100  CG       -29.0270  -34.5680   64.8200 C.ar  237  HIS237      0.0817
    101  ND1      -27.7440  -34.3840   64.2800 N.ar  237  HIS237     -0.2268
    102  CD2      -29.4210  -33.4070   65.4060 C.ar  237  HIS237      0.1154
    103  CE1      -27.4300  -33.1150   64.5210 C.ar  237  HIS237      0.1986
    104  NE2      -28.3930  -32.4940   65.2190 N.ar  237  HIS237     -0.2212
    105  N        -24.3010  -21.7920   60.6280 N.3   270  LEU270     -0.1231
    106  CA       -24.6400  -22.4500   61.8960 C.3   270  LEU270      0.1693
    107  C        -23.9280  -23.7970   62.0010 C.2   270  LEU270      0.2593
    108  O        -23.5760  -24.3940   60.9810 O.2   270  LEU270     -0.2718
    109  CB       -26.1510  -22.7200   61.9320 C.3   270  LEU270      0.0284
    110  CG       -27.0290  -21.5180   61.9750 C.3   270  LEU270      0.0019
    111  CD1      -28.4070  -21.8890   61.5040 C.3   270  LEU270      0.0001
    112  CD2      -27.0540  -20.9300   63.4000 C.3   270  LEU270      0.0001
    113  N        -23.7640  -24.3060   63.2160 N.am  271  SER271     -0.1938
    114  CA       -23.1430  -25.6120   63.3860 C.3   271  SER271      0.2055
    115  C        -24.1290  -26.7060   63.8060 C.2   271  SER271      0.2644
    116  O        -23.6970  -27.8110   64.0730 O.2   271  SER271     -0.2714
    117  CB       -21.9670  -25.5320   64.3480 C.3   271  SER271      0.2130
    118  OG       -22.3960  -25.1340   65.6370 O.3   271  SER271     -0.2179
    119  N        -25.4270  -26.3950   63.8360 N.am  272  GLY272     -0.1939
    120  CA       -26.4890  -27.3220   64.2120 C.3   272  GLY272      0.2014
    121  C        -26.1600  -28.1490   65.4440 C.2   272  GLY272      0.2639
    122  O        -25.8990  -27.5970   66.5240 O.2   272  GLY272     -0.2714
    123  N        -26.1140  -29.4640   65.2700 N.am  273  GLY273     -0.1954
    124  CA       -25.7700  -30.3580   66.3700 C.3   273  GLY273      0.1869
    125  C        -24.3380  -30.8460   66.3520 C.2   273  GLY273      0.2309
    126  O        -24.0240  -31.8430   67.0060 O.2   273  GLY273     -0.2863
    127  N        -21.8460  -20.5030   68.0880 N.3   302  GLY302     -0.1210
    128  CA       -22.0910  -20.2880   69.5000 C.3   302  GLY302      0.1956
    129  C        -21.4000  -21.3610   70.2920 C.2   302  GLY302      0.2611
    130  O        -20.2310  -21.2120   70.6300 O.2   302  GLY302     -0.2717
    131  N        -22.1090  -22.4730   70.5390 N.am  303  ARG303     -0.1979
    132  CA       -21.5960  -23.6870   71.1820 C.3   303  ARG303      0.1597
    133  C        -20.2850  -24.1860   70.5630 C.2   303  ARG303      0.2287
    134  O        -19.3880  -24.5960   71.3100 O.2   303  ARG303     -0.2864
    135  CB       -22.6540  -24.8050   71.1860 C.3   303  ARG303      0.0334
    136  CG       -22.1930  -26.0470   71.9690 C.3   303  ARG303      0.0492
    137  CD       -23.2330  -27.1380   72.1260 C.3   303  ARG303      0.2205
    138  NE       -23.6970  -27.6880   70.8500 N.pl3 303  ARG303     -0.0865
    139  CZ       -23.0770  -28.6430   70.1640 C.cat 303  ARG303      0.5346
    140  NH1      -21.9340  -29.1510   70.6030 N.pl3 303  ARG303      0.1354
    141  NH2      -23.5910  -29.0890   69.0270 N.pl3 303  ARG303      0.1354
    142  N        -17.6850  -22.1250   72.0370 N.3   306  GLN306     -0.1231
    143  CA       -17.8310  -21.8680   73.4760 C.3   306  GLN306      0.1698
    144  C        -17.8070  -23.0930   74.3930 C.2   306  GLN306      0.2592
    145  O        -17.4920  -22.9290   75.5660 O.2   306  GLN306     -0.2718
    146  CB       -19.1380  -21.1140   73.7420 C.3   306  GLN306      0.0381
    147  CG       -19.1970  -19.6580   73.3120 C.3   306  GLN306      0.0905
    148  CD       -20.5640  -19.1250   73.6510 C.2   306  GLN306      0.2608
    149  OE1      -20.9550  -19.0660   74.8230 O.2   306  GLN306     -0.2717
    150  NE2      -21.3520  -18.7980   72.6350 N.am  306  GLN306     -0.0878
    151  N        -18.1640  -24.2990   73.8900 N.am  307  ALA307     -0.1980
    152  CA       -18.4160  -25.4910   74.7270 C.3   307  ALA307      0.1597
    153  C        -17.2580  -25.8930   75.6660 C.2   307  ALA307      0.2287
    154  O        -17.4880  -26.0680   76.8640 O.2   307  ALA307     -0.2864
    155  CB       -18.8700  -26.6750   73.8760 C.3   307  ALA307      0.0319
    156  N        -16.7020  -22.8920   78.2790 N.3   310  LEU310     -0.1245
    157  CA       -17.7080  -22.9600   79.3370 C.3   310  LEU310      0.1561
    158  C        -17.3390  -24.0460   80.3770 C.2   310  LEU310      0.2260
    159  O        -17.3370  -23.7610   81.5870 O.2   310  LEU310     -0.2867
    160  CB       -19.1210  -23.1950   78.7490 C.3   310  LEU310      0.0270
    161  CG       -20.2760  -23.3040   79.7680 C.3   310  LEU310      0.0019
    162  CD1      -20.6380  -21.9370   80.3650 C.3   310  LEU310      0.0001
    163  CD2      -21.5040  -23.9450   79.1390 C.3   310  LEU310      0.0001
@<TRIPOS>BOND
     1    63    64    1
     2    65    64    1
     3    65    66    2
     4    64    67    1
     5    75    74    2
     6   105   106    1
     7    72    73    1
     8   108   107    2
     9    74    73    1
    10    74    80   am
    11    67    68    1
    12   111   110    1
    13    81    80    1
    14    81    84    1
    15    81    82    1
    16    90    89    2
    17    73    76    1
    18    80    86    1
    19   106   109    1
    20   106   107    1
    21    83    82    2
    22   109   110    1
    23    84    85    1
    24   110   112    1
    25   107   113   am
    26    82    87   am
    27    68    69    1
    28    95    96    1
    29    89    88    1
    30    76    77    1
    31    87    88    1
    32    86    85    1
    33    54    53    1
    34    54    55    2
    35   113   114    1
    36    53    52    1
    37    53    56    1
    38   114   115    1
    39   114   117    1
    40    96    97    1
    41    96    99    1
    42    88    91    1
    43    97    98    2
    44    69    70   ar
    45    69    71   ar
    46    77    79    1
    47    77    78    1
    48   115   119   am
    49   115   116    2
    50   119   120    1
    51   120   121    1
    52   101   103   ar
    53   101   100   ar
    54   117   118    1
    55    91    92    1
    56   103   104   ar
    57    57    56    1
    58    57    58    1
    59    99   100    1
    60   100   102   ar
    61   104   102   ar
    62   123   121   am
    63   123   124    1
    64    94    92   ar
    65   121   122    2
    66    92    93   ar
    67    59    58    1
    68    59    60    2
    69   125   124    1
    70   125   126    2
    71    62    60    1
    72    60    61    1
    73   127   128    1
    74   141   139    1
    75   128   129    1
    76   139   140    1
    77   139   138    2
    78   129   131   am
    79   129   130    2
    80   131   132    1
    81   133   132    1
    82   133   134    2
    83   138   137    1
    84   132   135    1
    85   135   136    1
    86   136   137    1
    87   142   143    1
    88   150   148   am
    89     9     7   ar
    90     1     2    1
    91   147   148    1
    92   147   146    1
    93   143   146    1
    94   143   144    1
    95   148   149    2
    96     7     6    1
    97     7     8   ar
    98   155   152    1
    99   151   144   am
   100   151   152    1
   101     2     5    1
   102     2     3    1
   103     6     5    1
   104   144   145    2
   105   152   153    1
   106     3     4    2
   107    19    18    1
   108   153   154    2
   109    18    15    1
   110    38    37    1
   111    51    50    1
   112    37    39    1
   113    37    36    2
   114    35    36    1
   115    35    34    1
   116    15    14    1
   117    15    16    1
   118    34    33    1
   119    14    12   am
   120    50    49   ar
   121    50    48   ar
   122    49    47   ar
   123    16    17    2
   124   156   157    1
   125   160   157    1
   126   160   161    1
   127    26    27    1
   128    26    25    1
   129    27    28    1
   130    48    46   ar
   131    47    45   ar
   132   163   161    1
   133    12    11    1
   134    12    13    2
   135    43    42    2
   136   157   158    1
   137    33    30    1
   138    10    11    1
   139   161   162    1
   140    24    25    1
   141    24    21    1
   142    42    41    1
   143    46    45   ar
   144    45    44    1
   145    30    29    1
   146    30    31    1
   147    29    22   am
   148   158   159    2
   149    22    21    1
   150    22    23    2
   151    21    20    1
   152    44    41    1
   153    41    40    1
   154    31    32    2
