@<TRIPOS>MOLECULE
tmp/3lggB03.pdb
 179 172 0 0 0
SMALL
GASTEIGER

@<TRIPOS>ATOM
      1  N        -10.7090   -8.8390  -20.6040 N.3    86  HIS86      -0.1226
      2  CA       -12.0380   -8.4020  -21.0100 C.3    86  HIS86       0.1752
      3  C        -12.1660   -8.2670  -22.5160 C.2    86  HIS86       0.2596
      4  O        -11.2150   -7.8780  -23.1990 O.2    86  HIS86      -0.2718
      5  CB       -12.4240   -7.1160  -20.2820 C.3    86  HIS86       0.0759
      6  CG       -12.5740   -7.3080  -18.8060 C.ar   86  HIS86       0.0818
      7  ND1      -13.7530   -7.7270  -18.2230 N.ar   86  HIS86      -0.2268
      8  CD2      -11.6790   -7.1890  -17.7990 C.ar   86  HIS86       0.1154
      9  CE1      -13.5840   -7.8300  -16.9160 C.ar   86  HIS86       0.1986
     10  NE2      -12.3360   -7.5080  -16.6330 N.ar   86  HIS86      -0.2212
     11  N        -13.3540   -8.5990  -23.0140 N.am   87  ASP87      -0.1960
     12  CA       -13.6510   -8.6390  -24.4490 C.3    87  ASP87       0.1840
     13  C        -13.0650   -7.4810  -25.2640 C.2    87  ASP87       0.2621
     14  O        -12.4400   -7.7120  -26.3020 O.2    87  ASP87      -0.2715
     15  CB       -15.1670   -8.7750  -24.6960 C.3    87  ASP87       0.1450
     16  CG       -15.9970   -7.8180  -23.8450 C.2    87  ASP87       0.3671
     17  OD1      -15.4140   -6.9320  -23.1740 O.co2  87  ASP87      -0.2456
     18  OD2      -17.2430   -7.9570  -23.8470 O.co2  87  ASP87      -0.2456
     19  N        -13.2440   -6.2470  -24.7950 N.am   88  ILE88      -0.1977
     20  CA       -12.8500   -5.0860  -25.6050 C.3    88  ILE88       0.1596
     21  C        -11.7090   -4.2390  -25.0360 C.2    88  ILE88       0.2287
     22  O        -11.5990   -3.0500  -25.3530 O.2    88  ILE88      -0.2864
     23  CB       -14.0670   -4.1870  -26.0090 C.3    88  ILE88       0.0276
     24  CG1      -14.7440   -3.5710  -24.7870 C.3    88  ILE88       0.0022
     25  CG2      -15.0640   -4.9750  -26.8580 C.3    88  ILE88       0.0022
     26  CD1      -15.7500   -2.4920  -25.1400 C.3    88  ILE88       0.0001
     27  N        -13.1630    5.6220  -12.7830 N.3   176  TRP176     -0.1241
     28  CA       -14.1220    4.6070  -13.2300 C.3   176  TRP176      0.1605
     29  C        -15.1240    5.1870  -14.2190 C.2   176  TRP176      0.2264
     30  O        -15.5680    4.5040  -15.1390 O.2   176  TRP176     -0.2867
     31  CB       -14.8310    3.9310  -12.0480 C.3   176  TRP176      0.0550
     32  CG       -14.2480    2.6030  -11.7190 C.ar  176  TRP176      0.0003
     33  CD1      -13.2910    2.3330  -10.7810 C.ar  176  TRP176      0.0946
     34  CD2      -14.5630    1.3500  -12.3420 C.ar  176  TRP176      0.0152
     35  NE1      -12.9980    0.9870  -10.7750 N.ar  176  TRP176     -0.2442
     36  CE2      -13.7630    0.3610  -11.7240 C.ar  176  TRP176      0.0810
     37  CE3      -15.4480    0.9650  -13.3560 C.ar  176  TRP176      0.0012
     38  CZ2      -13.8180   -0.9880  -12.0940 C.ar  176  TRP176      0.0191
     39  CZ3      -15.5060   -0.3760  -13.7230 C.ar  176  TRP176      0.0001
     40  CH2      -14.6910   -1.3360  -13.0940 C.ar  176  TRP176      0.0015
     41  N        -13.1400    5.3690  -17.4490 N.3   179  PHE179     -0.1227
     42  CA       -12.9630    3.9570  -17.8340 C.3   179  PHE179      0.1736
     43  C        -14.1630    3.4330  -18.6190 C.2   179  PHE179      0.2595
     44  O        -14.0340    3.0450  -19.7800 O.2   179  PHE179     -0.2718
     45  CB       -12.7300    3.0920  -16.5760 C.3   179  PHE179      0.0547
     46  CG       -12.1550    1.7140  -16.8520 C.ar  179  PHE179     -0.0202
     47  CD1      -11.0870    1.5410  -17.7330 C.ar  179  PHE179     -0.0042
     48  CD2      -12.6530    0.5940  -16.1880 C.ar  179  PHE179     -0.0042
     49  CE1      -10.5430    0.2740  -17.9710 C.ar  179  PHE179     -0.0003
     50  CE2      -12.1110   -0.6850  -16.4200 C.ar  179  PHE179     -0.0003
     51  CZ       -11.0510   -0.8390  -17.3160 C.ar  179  PHE179     -0.0000
     52  N        -15.3290    3.4640  -17.9810 N.am  180  GLU180     -0.1979
     53  CA       -16.5720    2.9930  -18.5790 C.3   180  GLU180      0.1602
     54  C        -16.9530    3.7800  -19.8410 C.2   180  GLU180      0.2287
     55  O        -17.4480    3.1970  -20.8080 O.2   180  GLU180     -0.2864
     56  CB       -17.7060    3.0320  -17.5460 C.3   180  GLU180      0.0415
     57  CG       -18.5260    1.7420  -17.4860 C.3   180  GLU180      0.1163
     58  CD       -17.9180    0.6840  -16.5780 C.2   180  GLU180      0.3649
     59  OE1      -18.4100   -0.4620  -16.5430 O.co2 180  GLU180     -0.2457
     60  OE2      -16.9430    1.0040  -15.8840 O.co2 180  GLU180     -0.2457
     61  N        -15.1870    2.3060  -22.8530 N.3   183  PHE183     -0.1241
     62  CA       -15.9070    1.1150  -23.3070 C.3   183  PHE183      0.1605
     63  C        -17.1200    1.5020  -24.1580 C.2   183  PHE183      0.2264
     64  O        -17.3270    0.9400  -25.2380 O.2   183  PHE183     -0.2867
     65  CB       -16.3280    0.2150  -22.1310 C.3   183  PHE183      0.0534
     66  CG       -15.1800   -0.4810  -21.4520 C.ar  183  PHE183     -0.0203
     67  CD1      -14.6110   -1.6250  -22.0070 C.ar  183  PHE183     -0.0042
     68  CD2      -14.6700   -0.0030  -20.2510 C.ar  183  PHE183     -0.0042
     69  CE1      -13.5410   -2.2850  -21.3800 C.ar  183  PHE183     -0.0003
     70  CE2      -13.6010   -0.6430  -19.6240 C.ar  183  PHE183     -0.0003
     71  CZ       -13.0360   -1.7930  -20.1940 C.ar  183  PHE183     -0.0000
     72  N        -13.4450  -12.6560  -20.2670 N.3   218  ARG218     -0.1245
     73  CA       -14.7500  -12.1790  -19.7730 C.3   218  ARG218      0.1563
     74  C        -15.4410  -11.3710  -20.8630 C.2   218  ARG218      0.2260
     75  O        -14.9490  -10.3100  -21.2500 O.2   218  ARG218     -0.2867
     76  CB       -14.5960  -11.2940  -18.5300 C.3   218  ARG218      0.0307
     77  CG       -14.7890  -11.9830  -17.1850 C.3   218  ARG218      0.0489
     78  CD       -13.5690  -12.8110  -16.8260 C.3   218  ARG218      0.2205
     79  NE       -13.4760  -13.1230  -15.4100 N.pl3 218  ARG218     -0.0865
     80  CZ       -12.4020  -13.6720  -14.8420 C.cat 218  ARG218      0.5346
     81  NH1      -11.3390  -13.9700  -15.5800 N.pl3 218  ARG218      0.1354
     82  NH2      -12.3860  -13.9170  -13.5320 N.pl3 218  ARG218      0.1354
     83  N        -19.0960   -9.7030  -22.4230 N.3   220  ARG220     -0.1245
     84  CA       -20.4830   -9.2520  -22.2580 C.3   220  ARG220      0.1563
     85  C        -21.3860   -9.8420  -23.3400 C.2   220  ARG220      0.2260
     86  O        -22.5990   -9.9500  -23.1440 O.2   220  ARG220     -0.2867
     87  CB       -20.5910   -7.7260  -22.3330 C.3   220  ARG220      0.0307
     88  CG       -19.8470   -6.9000  -21.2890 C.3   220  ARG220      0.0489
     89  CD       -20.6040   -6.6970  -19.9660 C.3   220  ARG220      0.2205
     90  NE       -22.0620   -6.8680  -20.0440 N.pl3 220  ARG220     -0.0865
     91  CZ       -22.9370   -5.9260  -20.4080 C.cat 220  ARG220      0.5346
     92  NH1      -22.5260   -4.7100  -20.7720 N.pl3 220  ARG220      0.1354
     93  NH2      -24.2370   -6.2120  -20.4290 N.pl3 220  ARG220      0.1354
     94  N        -20.3110  -12.6630  -18.9980 N.3   263  SER263     -0.1217
     95  CA       -20.3630  -11.6670  -17.9320 C.3   263  SER263      0.1889
     96  C        -21.4300  -10.5940  -18.1120 C.2   263  SER263      0.2288
     97  O        -21.8460  -10.2770  -19.2310 O.2   263  SER263     -0.2866
     98  CB       -18.9930  -11.0140  -17.7380 C.3   263  SER263      0.2089
     99  OG       -18.5790  -10.3390  -18.9050 O.3   263  SER263     -0.2183
    100  N        -22.9900   -6.7750  -15.9330 N.3   265  HIS265     -0.1241
    101  CA       -22.6470   -5.7010  -15.0020 C.3   265  HIS265      0.1621
    102  C        -23.3430   -5.8220  -13.6600 C.2   265  HIS265      0.2264
    103  O        -24.5530   -6.0500  -13.5890 O.2   265  HIS265     -0.2867
    104  CB       -22.9820   -4.3380  -15.6100 C.3   265  HIS265      0.0745
    105  CG       -21.9570   -3.8450  -16.5740 C.ar  265  HIS265      0.0817
    106  ND1      -22.1640   -3.8260  -17.9350 N.ar  265  HIS265     -0.2268
    107  CD2      -20.7080   -3.3600  -16.3750 C.ar  265  HIS265      0.1154
    108  CE1      -21.0900   -3.3430  -18.5350 C.ar  265  HIS265      0.1986
    109  NE2      -20.1920   -3.0530  -17.6110 N.ar  265  HIS265     -0.2212
    110  N        -19.1770   -8.2200  -13.4300 N.3   297  VAL297     -0.1231
    111  CA       -18.1320   -7.2100  -13.6270 C.3   297  VAL297      0.1692
    112  C        -18.6280   -5.8040  -13.3070 C.2   297  VAL297      0.2592
    113  O        -19.7930   -5.6230  -12.9650 O.2   297  VAL297     -0.2718
    114  CB       -17.5430   -7.2640  -15.0630 C.3   297  VAL297      0.0266
    115  CG1      -16.9200   -8.6220  -15.3290 C.3   297  VAL297      0.0020
    116  CG2      -18.6100   -6.9160  -16.1360 C.3   297  VAL297      0.0020
    117  N        -17.7470   -4.8150  -13.4320 N.am  298  GLY298     -0.1957
    118  CA       -18.1000   -3.4250  -13.1500 C.3   298  GLY298      0.1869
    119  C        -17.4520   -2.9280  -11.8720 C.2   298  GLY298      0.2309
    120  O        -16.7600   -3.6860  -11.1930 O.2   298  GLY298     -0.2863
    121  N        -14.9900  -11.6740  -10.0140 N.3   328  HIS328     -0.1241
    122  CA       -14.2850  -10.4950   -9.5000 C.3   328  HIS328      0.1621
    123  C        -14.6860  -10.3380   -8.0400 C.2   328  HIS328      0.2264
    124  O        -15.8760  -10.3890   -7.7110 O.2   328  HIS328     -0.2867
    125  CB       -14.7350   -9.2310  -10.2290 C.3   328  HIS328      0.0745
    126  CG       -14.1100   -9.0340  -11.5720 C.ar  328  HIS328      0.0817
    127  ND1      -14.2670   -9.9290  -12.6080 N.ar  328  HIS328     -0.2268
    128  CD2      -13.3590   -8.0200  -12.0590 C.ar  328  HIS328      0.1154
    129  CE1      -13.6190   -9.4850  -13.6700 C.ar  328  HIS328      0.1986
    130  NE2      -13.0630   -8.3270  -13.3630 N.ar  328  HIS328     -0.2212
    131  N        -11.9430   -6.3170   -5.0090 N.3   331  GLU331     -0.1245
    132  CA       -11.1890   -5.3020   -5.7260 C.3   331  GLU331      0.1567
    133  C        -11.4700   -3.9300   -5.0780 C.2   331  GLU331      0.2260
    134  O        -12.1080   -3.0570   -5.6640 O.2   331  GLU331     -0.2867
    135  CB       -11.5750   -5.3310   -7.2060 C.3   331  GLU331      0.0388
    136  CG       -10.6130   -4.6220   -8.1290 C.3   331  GLU331      0.1160
    137  CD       -11.2460   -4.2600   -9.4610 C.2   331  GLU331      0.3649
    138  OE1      -12.4560   -4.5470   -9.6550 O.co2 331  GLU331     -0.2457
    139  OE2      -10.5270   -3.6800  -10.3090 O.co2 331  GLU331     -0.2457
    140  N         -8.8260  -10.6620   -9.0270 N.3   356  HIS356     -0.1241
    141  CA        -8.1660   -9.6530   -8.1900 C.3   356  HIS356      0.1621
    142  C         -7.8980  -10.1110   -6.7700 C.2   356  HIS356      0.2264
    143  O         -6.7390  -10.2440   -6.3830 O.2   356  HIS356     -0.2867
    144  CB        -8.9300   -8.3330   -8.1810 C.3   356  HIS356      0.0745
    145  CG        -9.0680   -7.7210   -9.5310 C.ar  356  HIS356      0.0817
    146  ND1       -8.0300   -7.0630  -10.1520 N.ar  356  HIS356     -0.2268
    147  CD2      -10.1140   -7.6770  -10.3860 C.ar  356  HIS356      0.1154
    148  CE1       -8.4360   -6.6230  -11.3280 C.ar  356  HIS356      0.1986
    149  NE2       -9.6970   -6.9830  -11.4950 N.ar  356  HIS356     -0.2212
    150  N         -3.6290   -2.6900  -13.7390 N.3   383  SER383     -0.1217
    151  CA        -5.0220   -2.3120  -13.5140 C.3   383  SER383      0.1889
    152  C         -5.2520   -1.7180  -12.1290 C.2   383  SER383      0.2288
    153  O         -5.8890   -0.6770  -12.0130 O.2   383  SER383     -0.2866
    154  CB        -5.9440   -3.5120  -13.7240 C.3   383  SER383      0.2089
    155  OG        -7.2840   -3.1620  -13.4150 O.3   383  SER383     -0.2183
    156  N         -6.3670    2.1210  -11.7490 N.3   387  LEU387     -0.1245
    157  CA        -7.6860    2.3200  -11.1340 C.3   387  LEU387      0.1561
    158  C         -7.6090    2.7770   -9.6720 C.2   387  LEU387      0.2260
    159  O         -8.6260    2.8370   -8.9710 O.2   387  LEU387     -0.2867
    160  CB        -8.5700    1.0810  -11.3070 C.3   387  LEU387      0.0270
    161  CG        -8.9080    0.7200  -12.7640 C.3   387  LEU387      0.0019
    162  CD1       -9.8000   -0.5170  -12.8300 C.3   387  LEU387      0.0001
    163  CD2       -9.5450    1.8880  -13.5430 C.3   387  LEU387      0.0001
    164  N         -5.7550   -7.8770  -17.7780 N.3   413  ASP413     -0.1225
    165  CA        -7.0680   -7.2810  -17.5420 C.3   413  ASP413      0.1805
    166  C         -7.6180   -6.4850  -18.7450 C.2   413  ASP413      0.2597
    167  O         -8.4870   -6.9670  -19.4640 O.2   413  ASP413     -0.2718
    168  CB        -7.0120   -6.4060  -16.2750 C.3   413  ASP413      0.1424
    169  CG        -8.3550   -6.2470  -15.6060 C.2   413  ASP413      0.3668
    170  OD1       -9.3480   -6.8180  -16.1010 O.co2 413  ASP413     -0.2456
    171  OD2       -8.4090   -5.5430  -14.5750 O.co2 413  ASP413     -0.2456
    172  N         -7.1340   -5.2610  -18.9340 N.am  414  ASP414     -0.1974
    173  CA        -7.4960   -4.4390  -20.0890 C.3   414  ASP414      0.1709
    174  C         -6.2580   -3.6850  -20.5590 C.2   414  ASP414      0.2293
    175  O         -6.2640   -2.4550  -20.5850 O.2   414  ASP414     -0.2864
    176  CB        -8.5650   -3.4030  -19.7350 C.3   414  ASP414      0.1436
    177  CG        -9.8000   -4.0110  -19.1300 C.2   414  ASP414      0.3671
    178  OD1      -10.7750   -4.2470  -19.8800 O.co2 414  ASP414     -0.2456
    179  OD2       -9.7910   -4.2500  -17.8990 O.co2 414  ASP414     -0.2456
@<TRIPOS>BOND
     1    25    23    1
     2    14    13    2
     3    23    20    1
     4    23    24    1
     5    20    21    1
     6    20    19    1
     7    22    21    2
     8    13    19   am
     9    13    12    1
    10    64    63    2
    11    26    24    1
    12    15    12    1
    13    15    16    1
    14    12    11    1
    15    63    62    1
    16    18    16   ar
    17    16    17   ar
    18    85    86    2
    19    85    84    1
    20    62    61    1
    21    62    65    1
    22     4     3    2
    23    11     3   am
    24     3     2    1
    25    83    84    1
    26    87    84    1
    27    87    88    1
    28    65    66    1
    29    67    66   ar
    30    67    69   ar
    31    66    68   ar
    32    69    71   ar
    33    88    89    1
    34    75    74    2
    35     2     1    1
    36     2     5    1
    37    74    73    1
    38    55    54    2
    39    92    91    1
    40   175   174    2
    41   174   173    1
    42    93    91    1
    43    91    90    2
    44     5     6    1
    45    72    73    1
    46    68    70   ar
    47    71    70   ar
    48   173   176    1
    49   173   172    1
    50    90    89    1
    51   178   177   ar
    52    54    53    1
    53    44    43    2
    54    73    76    1
    55   176   177    1
    56   167   166    2
    57    97    96    2
    58   177   179   ar
    59    94    95    1
    60   172   166   am
    61    99    98    1
    62     6     7   ar
    63     6     8   ar
    64   166   165    1
    65    43    52   am
    66    43    42    1
    67    53    52    1
    68    53    56    1
    69   108   106   ar
    70   108   109   ar
    71    76    77    1
    72     7     9   ar
    73    96    95    1
    74    49    47   ar
    75    49    51   ar
    76   106   105   ar
    77    95    98    1
    78    42    41    1
    79    42    45    1
    80     8    10   ar
    81   164   165    1
    82    47    46   ar
    83   109   107   ar
    84    56    57    1
    85   165   168    1
    86    57    58    1
    87    51    50   ar
    88    77    78    1
    89     9    10   ar
    90    46    45    1
    91    46    48   ar
    92    78    79    1
    93    58    59   ar
    94    58    60   ar
    95   105   107   ar
    96   105   104    1
    97    50    48   ar
    98   168   169    1
    99   116   114    1
   100   170   169   ar
   101   100   101    1
   102   104   101    1
   103   169   171   ar
   104    81    80    1
   105    79    80    2
   106   115   114    1
   107    30    29    2
   108   114   111    1
   109   101   102    1
   110    80    82    1
   111    29    28    1
   112   150   151    1
   113   154   151    1
   114   154   155    1
   115    39    37   ar
   116    39    40   ar
   117   129   130   ar
   118   129   127   ar
   119   102   103    2
   120   111   110    1
   121   111   112    1
   122   163   161    1
   123   151   152    1
   124   117   112   am
   125   117   118    1
   126   130   128   ar
   127    37    34   ar
   128   112   113    2
   129    28    27    1
   130    28    31    1
   131   118   119    1
   132    40    38   ar
   133   162   161    1
   134   161   160    1
   135   127   126   ar
   136    34    36   ar
   137    34    32   ar
   138   152   153    2
   139    38    36   ar
   140   128   126   ar
   141    31    32    1
   142   119   120    2
   143   156   157    1
   144    36    35   ar
   145    32    33   ar
   146   126   125    1
   147   149   148   ar
   148   149   147   ar
   149   148   146   ar
   150   160   157    1
   151   157   158    1
   152    33    35   ar
   153   147   145   ar
   154   139   137   ar
   155   125   122    1
   156   146   145   ar
   157   121   122    1
   158   158   159    2
   159   138   137   ar
   160   145   144    1
   161   122   123    1
   162   137   136    1
   163   140   141    1
   164   141   144    1
   165   141   142    1
   166   136   135    1
   167   123   124    2
   168   135   132    1
   169   142   143    2
   170   132   133    1
   171   132   131    1
   172   134   133    2
