@<TRIPOS>MOLECULE
tmp/3lgpA00.pdb
 195 191 0 0 0
SMALL
GASTEIGER

@<TRIPOS>ATOM
      1  N         -3.1740   10.9980   19.8270 N.3    97  VAL97      -0.1231
      2  CA        -2.5160   11.7940   20.8780 C.3    97  VAL97       0.1692
      3  C         -2.2120   13.2450   20.4960 C.2    97  VAL97       0.2591
      4  O         -2.4810   14.1520   21.2940 O.2    97  VAL97      -0.2718
      5  CB        -1.3470   11.0290   21.5910 C.3    97  VAL97       0.0266
      6  CG1       -0.1320   10.8470   20.6720 C.3    97  VAL97       0.0020
      7  CG2       -0.9550   11.7070   22.9100 C.3    97  VAL97       0.0020
      8  N         -1.6770   13.4600   19.2650 N.am   98  LYS98      -0.1980
      9  CA        -1.3510   14.7910   18.7460 C.3    98  LYS98       0.1596
     10  C         -2.5890   15.6750   18.6100 C.2    98  LYS98       0.2287
     11  O         -2.5500   16.8500   18.9840 O.2    98  LYS98      -0.2864
     12  CB        -0.5420   14.6870   17.4340 C.3    98  LYS98       0.0298
     13  CG        -0.1130   16.0360   16.8380 C.3    98  LYS98       0.0038
     14  CD         0.5600   15.8950   15.4730 C.3    98  LYS98       0.0206
     15  CE         0.8410   17.2440   14.8480 C.3    98  LYS98       0.1093
     16  NZ         1.3240   17.1250   13.4470 N.3    98  LYS98      -0.1314
     17  N          1.7680    1.9630   22.5050 N.3   129  GLY129     -0.1210
     18  CA         2.4040    2.2760   23.7850 C.3   129  GLY129      0.1956
     19  C          2.6620    3.7210   24.1570 C.2   129  GLY129      0.2613
     20  O          3.3880    3.9580   25.1290 O.2   129  GLY129     -0.2717
     21  N          2.0890    4.7080   23.4180 N.am  130  THR130     -0.1938
     22  CA         2.2530    6.1290   23.7750 C.3   130  THR130      0.2028
     23  C          1.5300    6.4010   25.1200 C.2   130  THR130      0.2642
     24  O          0.4060    5.9380   25.3230 O.2   130  THR130     -0.2714
     25  CB         1.7760    7.0690   22.6520 C.3   130  THR130      0.1808
     26  OG1        2.5750    6.8620   21.5010 O.3   130  THR130     -0.2208
     27  CG2        1.8730    8.5540   23.0330 C.3   130  THR130      0.0379
     28  N          2.1860    7.1640   26.0110 N.am  131  LEU131     -0.1963
     29  CA         1.6770    7.5100   27.3280 C.3   131  LEU131      0.1728
     30  C          1.3670    8.9780   27.5350 C.2   131  LEU131      0.2617
     31  O          0.5850    9.3310   28.4310 O.2   131  LEU131     -0.2715
     32  CB         2.6380    6.9990   28.3950 C.3   131  LEU131      0.0311
     33  CG         2.6670    5.4900   28.5650 C.3   131  LEU131      0.0022
     34  CD1        4.0120    5.0490   29.0390 C.3   131  LEU131      0.0001
     35  CD2        1.5710    5.0340   29.5250 C.3   131  LEU131      0.0001
     36  N          1.9620    9.8270   26.7130 N.am  132  GLY132     -0.1940
     37  CA         1.7210   11.2560   26.7920 C.3   132  GLY132      0.2014
     38  C          2.2810   12.0380   25.6310 C.2   132  GLY132      0.2638
     39  O          2.8870   11.4640   24.7110 O.2   132  GLY132     -0.2714
     40  N          2.1460   13.3640   25.7250 N.am  133  LEU133     -0.1977
     41  CA         2.6220   14.3260   24.7270 C.3   133  LEU133      0.1596
     42  C          2.6790   15.7000   25.3380 C.2   133  LEU133      0.2287
     43  O          1.8910   15.9890   26.2280 O.2   133  LEU133     -0.2864
     44  CB         1.6840   14.3360   23.4770 C.3   133  LEU133      0.0297
     45  CG         2.2450   15.0660   22.2330 C.3   133  LEU133      0.0022
     46  CD1        3.3420   14.2740   21.5880 C.3   133  LEU133      0.0001
     47  CD2        1.1770   15.2910   21.2140 C.3   133  LEU133      0.0001
     48  N          5.3440    4.2680   37.2650 N.3   175  GLU175     -0.1245
     49  CA         5.3380    4.4880   35.8130 C.3   175  GLU175      0.1567
     50  C          4.6820    5.8330   35.4720 C.2   175  GLU175      0.2260
     51  O          5.2220    6.5630   34.6400 O.2   175  GLU175     -0.2867
     52  CB         4.6400    3.3210   35.0730 C.3   175  GLU175      0.0388
     53  CG         5.3210    1.9660   35.2620 C.3   175  GLU175      0.1160
     54  CD         4.6090    0.7870   34.6140 C.2   175  GLU175      0.3649
     55  OE1        3.3690    0.7060   34.7280 O.co2 175  GLU175     -0.2457
     56  OE2        5.2850   -0.0370   33.9600 O.co2 175  GLU175     -0.2457
     57  N          6.9250    8.7830   35.9780 N.3   178  LEU178     -0.1231
     58  CA         7.8820    8.9240   34.8620 C.3   178  LEU178      0.1693
     59  C          7.2760    9.5370   33.6220 C.2   178  LEU178      0.2591
     60  O          7.9670   10.2740   32.9250 O.2   178  LEU178     -0.2718
     61  CB         8.5980    7.6060   34.5150 C.3   178  LEU178      0.0284
     62  CG         9.3070    6.9080   35.6810 C.3   178  LEU178      0.0019
     63  CD1        9.8570    5.5690   35.2670 C.3   178  LEU178      0.0001
     64  CD2       10.3280    7.8230   36.3230 C.3   178  LEU178      0.0001
     65  N          5.9950    9.2350   33.3380 N.am  179  VAL179     -0.1980
     66  CA         5.2990    9.8240   32.1840 C.3   179  VAL179      0.1595
     67  C          5.2300   11.3420   32.3860 C.2   179  VAL179      0.2287
     68  O          5.6530   12.0970   31.5070 O.2   179  VAL179     -0.2864
     69  CB         3.8850    9.2180   31.9250 C.3   179  VAL179      0.0276
     70  CG1        3.1820    9.9530   30.7720 C.3   179  VAL179      0.0022
     71  CG2        3.9730    7.7000   31.6490 C.3   179  VAL179      0.0022
     72  N          8.5820   13.1130   32.1240 N.3   182  HIS182     -0.1226
     73  CA         8.9880   13.1500   30.7230 C.3   182  HIS182      0.1752
     74  C          8.2590   14.2480   29.9440 C.2   182  HIS182      0.2595
     75  O          8.8950   15.0660   29.2750 O.2   182  HIS182     -0.2718
     76  CB         8.7900   11.7420   30.0790 C.3   182  HIS182      0.0759
     77  CG         9.1060   11.6650   28.6180 C.ar  182  HIS182      0.0818
     78  ND1       10.2330   11.0240   28.1630 N.ar  182  HIS182     -0.2268
     79  CD2        8.4080   12.1250   27.5520 C.ar  182  HIS182      0.1154
     80  CE1       10.2090   11.1480   26.8460 C.ar  182  HIS182      0.1986
     81  NE2        9.1280   11.7940   26.4380 N.ar  182  HIS182     -0.2212
     82  N          6.9240   14.2960   30.0640 N.am  183  GLU183     -0.1979
     83  CA         6.1170   15.3030   29.3470 C.3   183  GLU183      0.1602
     84  C          6.4350   16.7190   29.8420 C.2   183  GLU183      0.2287
     85  O          6.6530   17.6330   29.0290 O.2   183  GLU183     -0.2864
     86  CB         4.6090   14.9690   29.4510 C.3   183  GLU183      0.0415
     87  CG         4.2470   13.6120   28.8220 C.3   183  GLU183      0.1163
     88  CD         4.8390   13.2330   27.4700 C.2   183  GLU183      0.3649
     89  OE1        5.1610   14.1300   26.6570 O.co2 183  GLU183     -0.2457
     90  OE2        4.9740   12.0190   27.2160 O.co2 183  GLU183     -0.2457
     91  N          9.6880   17.9130   28.3340 N.3   186  HIS186     -0.1241
     92  CA         9.4890   18.5640   27.0380 C.3   186  HIS186      0.1621
     93  C          9.0580   20.0040   27.2660 C.2   186  HIS186      0.2264
     94  O          9.6370   20.8910   26.6500 O.2   186  HIS186     -0.2867
     95  CB         8.4340   17.8130   26.1770 C.3   186  HIS186      0.0745
     96  CG         8.9090   16.5190   25.5880 C.ar  186  HIS186      0.0817
     97  ND1       10.0670   16.4460   24.8090 N.ar  186  HIS186     -0.2268
     98  CD2        8.3250   15.2960   25.6200 C.ar  186  HIS186      0.1154
     99  CE1       10.1490   15.1900   24.4150 C.ar  186  HIS186      0.1986
    100  NE2        9.1330   14.4530   24.8910 N.ar  186  HIS186     -0.2212
    101  N         14.2920   14.3600   23.3130 N.3   192  HIS192     -0.1241
    102  CA        14.5540   12.9860   23.6920 C.3   192  HIS192      0.1621
    103  C         16.0520   12.7310   23.7400 C.2   192  HIS192      0.2264
    104  O         16.8080   13.3670   23.0080 O.2   192  HIS192     -0.2867
    105  CB        13.8850   11.9780   22.7320 C.3   192  HIS192      0.0745
    106  CG        12.3860   11.9380   22.8360 C.ar  192  HIS192      0.0817
    107  ND1       11.6020   11.5880   21.7540 N.ar  192  HIS192     -0.2268
    108  CD2       11.5800   12.1940   23.8960 C.ar  192  HIS192      0.1154
    109  CE1       10.3490   11.6570   22.1740 C.ar  192  HIS192      0.1986
    110  NE2       10.2860   11.9830   23.4710 N.ar  192  HIS192     -0.2212
    111  N         18.4500    3.8660   31.1350 N.3   209  LYS209     -0.1231
    112  CA        18.1030    5.0930   30.4320 C.3   209  LYS209      0.1693
    113  C         17.6420    6.1810   31.3870 C.2   209  LYS209      0.2592
    114  O         17.1840    5.8810   32.4940 O.2   209  LYS209     -0.2718
    115  CB        17.0220    4.7970   29.3490 C.3   209  LYS209      0.0285
    116  CG        17.4060    3.7000   28.3210 C.3   209  LYS209      0.0035
    117  CD        18.7250    4.0350   27.5720 C.3   209  LYS209      0.0206
    118  CE        19.0970    3.0440   26.4890 C.3   209  LYS209      0.1093
    119  NZ        19.8610    1.8810   27.0180 N.3   209  LYS209     -0.1314
    120  N         17.7340    7.4440   30.9520 N.am  210  TYR210     -0.1962
    121  CA        17.2310    8.5860   31.7140 C.3   210  TYR210      0.1771
    122  C         15.7780    8.8590   31.2890 C.2   210  TYR210      0.2619
    123  O         15.3170    8.2890   30.2950 O.2   210  TYR210     -0.2715
    124  CB        18.1300    9.8160   31.5100 C.3   210  TYR210      0.0574
    125  CG        19.4720    9.6610   32.1790 C.ar  210  TYR210     -0.0198
    126  CD1       19.6370    9.9460   33.5320 C.ar  210  TYR210     -0.0009
    127  CD2       20.5930    9.2700   31.4530 C.ar  210  TYR210     -0.0009
    128  CE1       20.8860    9.8560   34.1440 C.ar  210  TYR210      0.0417
    129  CE2       21.8550    9.1990   32.0500 C.ar  210  TYR210      0.0417
    130  CZ        21.9930    9.4800   33.3980 C.ar  210  TYR210      0.1957
    131  OH        23.2260    9.3620   33.9950 O.3   210  TYR210     -0.2866
    132  N         15.0700    9.7170   32.0280 N.am  211  VAL211     -0.1977
    133  CA        13.6360    9.9780   31.8070 C.3   211  VAL211      0.1596
    134  C         13.2290   10.4410   30.3980 C.2   211  VAL211      0.2287
    135  O         12.1190   10.1270   29.9700 O.2   211  VAL211     -0.2864
    136  CB        13.0180   10.8440   32.9360 C.3   211  VAL211      0.0276
    137  CG1       13.3900   12.3110   32.7740 C.3   211  VAL211      0.0022
    138  CG2       11.5000   10.6510   33.0240 C.3   211  VAL211      0.0022
    139  N         14.3310    9.4270   27.5650 N.3   213  TYR213     -0.1228
    140  CA        14.4890    8.3800   26.5440 C.3   213  TYR213      0.1721
    141  C         13.1450    8.2920   25.7780 C.2   213  TYR213      0.2437
    142  O         12.1020    8.4930   26.4140 O.2   213  TYR213     -0.2733
    143  CB        14.8740    7.0090   27.1550 C.3   213  TYR213      0.0547
    144  CG        15.4790    6.0860   26.1130 C.ar  213  TYR213     -0.0200
    145  CD1       16.7150    6.3720   25.5340 C.ar  213  TYR213     -0.0009
    146  CD2       14.7750    4.9780   25.6400 C.ar  213  TYR213     -0.0009
    147  CE1       17.2310    5.5880   24.5080 C.ar  213  TYR213      0.0417
    148  CE2       15.3050    4.1590   24.6400 C.ar  213  TYR213      0.0417
    149  CZ        16.5280    4.4740   24.0720 C.ar  213  TYR213      0.1957
    150  OH        17.0500    3.6980   23.0650 O.3   213  TYR213     -0.2866
    151  N         13.1320    8.1530   24.4200 N.am  214  PRO214     -0.2718
    152  CA        11.8270    8.1580   23.7140 C.3   214  PRO214      0.1535
    153  C         10.8970    6.9990   24.0880 C.2   214  PRO214      0.2598
    154  O          9.6980    7.1640   24.0180 O.2   214  PRO214     -0.2715
    155  CB        12.1890    8.1340   22.2190 C.3   214  PRO214      0.0310
    156  CG        13.6210    7.8050   22.1360 C.3   214  PRO214      0.0237
    157  CD        14.2710    7.9780   23.4880 C.3   214  PRO214      0.0939
    158  N         11.4570    5.8570   24.4810 N.am  215  ILE215     -0.1964
    159  CA        10.7170    4.6350   24.8060 C.3   215  ILE215      0.1727
    160  C         10.5920    4.4820   26.3220 C.2   215  ILE215      0.2616
    161  O         11.6110    4.5000   27.0080 O.2   215  ILE215     -0.2715
    162  CB        11.4180    3.3620   24.1830 C.3   215  ILE215      0.0290
    163  CG1       11.8380    3.4970   22.6810 C.3   215  ILE215      0.0022
    164  CG2       10.6450    2.0500   24.4570 C.3   215  ILE215      0.0023
    165  CD1       10.7110    3.6960   21.6340 C.3   215  ILE215      0.0001
    166  N          9.3620    4.2270   26.8290 N.am  216  ALA216     -0.1963
    167  CA         9.1120    3.9190   28.2470 C.3   216  ALA216      0.1728
    168  C          9.5890    2.4560   28.4320 C.2   216  ALA216      0.2616
    169  O          8.7840    1.5340   28.5750 O.2   216  ALA216     -0.2715
    170  CB         7.6280    4.0490   28.5540 C.3   216  ALA216      0.0334
    171  N         10.9200    2.2680   28.3310 N.am  217  VAL217     -0.1963
    172  CA        11.6780    1.0120   28.3350 C.3   217  VAL217      0.1727
    173  C         11.5790    0.1750   29.5850 C.2   217  VAL217      0.2617
    174  O         11.4690   -1.0530   29.4800 O.2   217  VAL217     -0.2715
    175  CB        13.1860    1.1840   27.9400 C.3   217  VAL217      0.0290
    176  CG1       13.3910    1.2140   26.4390 C.3   217  VAL217      0.0023
    177  CG2       13.8430    2.3900   28.6080 C.3   217  VAL217      0.0023
    178  N         11.7190    0.8110   30.7600 N.am  218  SER218     -0.1936
    179  CA        11.7890    0.0820   32.0140 C.3   218  SER218      0.2055
    180  C         10.8560    0.5710   33.1120 C.2   218  SER218      0.2643
    181  O          9.6940    0.1590   33.1460 O.2   218  SER218     -0.2714
    182  CB        13.2400    0.0000   32.4950 C.3   218  SER218      0.2130
    183  OG        14.1270    0.6790   31.6170 O.3   218  SER218     -0.2179
    184  N         11.3830    1.4100   34.0080 N.am  219  GLY219     -0.1954
    185  CA        10.6660    1.9510   35.1550 C.3   219  GLY219      0.1869
    186  C         11.2280    1.5090   36.4920 C.2   219  GLY219      0.2309
    187  O         10.7380    1.9540   37.5340 O.2   219  GLY219     -0.2863
    188  N         16.2500    5.9990   35.3630 N.3   224  ASN224     -0.1240
    189  CA        14.8860    6.1800   34.8370 C.3   224  ASN224      0.1653
    190  C         14.1710    7.3960   35.3650 C.2   224  ASN224      0.2266
    191  O         13.4340    8.0410   34.6160 O.2   224  ASN224     -0.2867
    192  CB        14.0360    4.9480   35.1100 C.3   224  ASN224      0.1155
    193  CG        14.5000    3.6620   34.4500 C.2   224  ASN224      0.2627
    194  OD1       13.9370    2.6020   34.7150 O.2   224  ASN224     -0.2716
    195  ND2       15.5520    3.6960   33.6230 N.am  224  ASN224     -0.0877
@<TRIPOS>BOND
     1    16    15    1
     2    15    14    1
     3    14    13    1
     4    13    12    1
     5    12     9    1
     6    10     9    1
     7    10    11    2
     8     9     8    1
     9     8     3   am
    10     1     2    1
    11     3     2    1
    12     3     4    2
    13     6     5    1
    14     2     5    1
    15    47    45    1
    16    26    25    1
    17    46    45    1
    18     5     7    1
    19   165   163    1
    20   107   109   ar
    21   107   106   ar
    22   156   155    1
    23   156   157    1
    24   109   110   ar
    25   155   152    1
    26    45    44    1
    27    17    18    1
    28    25    27    1
    29    25    22    1
    30   163   162    1
    31   105   106    1
    32   105   102    1
    33   106   108   ar
    34   104   103    2
    35   150   149    1
    36   101   102    1
    37    21    22    1
    38    21    19   am
    39   110   108   ar
    40    44    41    1
    41   157   151    1
    42   102   103    1
    43   152   153    1
    44   152   151    1
    45    22    23    1
    46    18    19    1
    47   154   153    2
    48   149   147   ar
    49   149   148   ar
    50   153   158   am
    51    19    20    2
    52   162   164    1
    53   162   159    1
    54    99    97   ar
    55    99   100   ar
    56   151   141   am
    57   158   159    1
    58   147   145   ar
    59   148   146   ar
    60    39    38    2
    61    41    42    1
    62    41    40    1
    63   159   160    1
    64    97    96   ar
    65   100    98   ar
    66    23    24    2
    67    23    28   am
    68    42    43    2
    69   145   144   ar
    70    96    98   ar
    71    96    95    1
    72    38    40   am
    73    38    37    1
    74   146   144   ar
    75   141   142    2
    76   141   140    1
    77    28    29    1
    78   144   143    1
    79    95    92    1
    80   160   166   am
    81   160   161    2
    82    81    80   ar
    83    81    79   ar
    84   176   175    1
    85   118   119    1
    86   118   117    1
    87   140   143    1
    88   140   139    1
    89    94    93    2
    90    89    88   ar
    91    36    37    1
    92    36    30   am
    93   166   167    1
    94    80    78   ar
    95    92    93    1
    96    92    91    1
    97    90    88   ar
    98    29    30    1
    99    29    32    1
   100    88    87    1
   101    30    31    2
   102    79    77   ar
   103   117   116    1
   104   175   172    1
   105   175   177    1
   106    78    77   ar
   107   167   168    1
   108   167   170    1
   109   116   115    1
   110   171   172    1
   111   171   168   am
   112   172   173    1
   113    32    33    1
   114   168   169    2
   115    33    34    1
   116    33    35    1
   117    77    76    1
   118    87    86    1
   119    85    84    2
   120    75    74    2
   121    83    86    1
   122    83    84    1
   123    83    82    1
   124   115   112    1
   125   174   173    2
   126   173   178   am
   127    74    82   am
   128    74    73    1
   129   135   134    2
   130    76    73    1
   131   123   122    2
   132   134   133    1
   133   112   111    1
   134   112   113    1
   135    73    72    1
   136   178   179    1
   137    70    69    1
   138   120   113   am
   139   120   121    1
   140   122   121    1
   141   122   132   am
   142   113   114    2
   143   127   129   ar
   144   127   125   ar
   145    68    67    2
   146   124   121    1
   147   124   125    1
   148   183   182    1
   149    71    69    1
   150   133   132    1
   151   133   136    1
   152    69    66    1
   153   179   182    1
   154   179   180    1
   155   129   130   ar
   156   125   126   ar
   157    66    67    1
   158    66    65    1
   159   137   136    1
   160    60    59    2
   161   136   138    1
   162   180   181    2
   163   180   184   am
   164    65    59   am
   165   130   131    1
   166   130   128   ar
   167   126   128   ar
   168    59    58    1
   169   195   193   am
   170    56    54   ar
   171   184   185    1
   172   193   194    2
   173   193   192    1
   174    61    58    1
   175    61    62    1
   176    54    55   ar
   177    54    53    1
   178   191   190    2
   179    51    50    2
   180   189   192    1
   181   189   188    1
   182   189   190    1
   183    58    57    1
   184    52    53    1
   185    52    49    1
   186   185   186    1
   187    63    62    1
   188    50    49    1
   189    62    64    1
   190    49    48    1
   191   186   187    2
