@<TRIPOS>MOLECULE
tmp/3lgrA02.pdb
 81 79 0 0 0
SMALL
GASTEIGER

@<TRIPOS>ATOM
      1  N         52.7760    7.3180    2.1750 N.3     1  THR1       -0.1203
      2  CA        53.0380    8.8290    2.3050 C.3     1  THR1        0.1994
      3  C         52.5850    9.5370    1.0550 C.2     1  THR1        0.2618
      4  O         52.9640    9.1520   -0.0630 O.2     1  THR1       -0.2717
      5  CB        54.4140    9.2690    2.6080 C.3     1  THR1        0.1784
      6  OG1       54.7280    8.8030    3.9400 O.3     1  THR1       -0.2211
      7  CG2       54.5270   10.8580    2.5910 C.3     1  THR1        0.0376
      8  N         51.6320   10.4490    1.1990 N.am    2  ILE2       -0.1965
      9  CA        51.0640   11.0870    0.0120 C.3     2  ILE2        0.1727
     10  C         51.1500   12.5720    0.0880 C.2     2  ILE2        0.2616
     11  O         51.1520   13.2360    1.2160 O.2     2  ILE2       -0.2715
     12  CB        49.6360   10.6580   -0.3070 C.3     2  ILE2        0.0290
     13  CG1       48.7990   10.9940    0.8580 C.3     2  ILE2        0.0022
     14  CG2       49.4760    9.0860   -0.6150 C.3     2  ILE2        0.0023
     15  CD1       47.3530   11.0950    0.4340 C.3     2  ILE2        0.0001
     16  N         51.1480   13.1980   -1.0860 N.am    3  GLN3       -0.1964
     17  CA        51.0330   14.6370   -1.1310 C.3     3  GLN3        0.1718
     18  C         49.5520   15.0270   -1.0050 C.2     3  GLN3        0.2458
     19  O         48.7120   14.1570   -1.0950 O.2     3  GLN3       -0.2730
     20  CB        51.5920   15.2090   -2.4310 C.3     3  GLN3        0.0407
     21  CG        53.1870   15.0090   -2.4750 C.3     3  GLN3        0.0908
     22  CD        53.7500   15.0030   -3.8420 C.2     3  GLN3        0.2608
     23  OE1       53.7100   13.9670   -4.5780 O.2     3  GLN3       -0.2717
     24  NE2       54.1290   16.1930   -4.3090 N.am    3  GLN3       -0.0878
     25  N         49.2870   16.2760   -0.7240 N.am    4  PRO4       -0.2727
     26  CA        47.8730   16.6850   -0.5850 C.3     4  PRO4        0.1402
     27  C         46.9540   16.2830   -1.7010 C.2     4  PRO4        0.2269
     28  O         47.3120   16.3850   -2.8960 O.2     4  PRO4       -0.2865
     29  CB        47.9590   18.1730   -0.4220 C.3     4  PRO4        0.0296
     30  CG        49.3040   18.3610    0.2870 C.3     4  PRO4        0.0237
     31  CD        50.1720   17.4080   -0.4150 C.3     4  PRO4        0.0939
     32  N         43.6140   15.2760    2.5530 N.3    16  TYR16      -0.1241
     33  CA        44.8150   15.8300    3.1930 C.3    16  TYR16       0.1605
     34  C         45.0280   17.1650    2.4880 C.2    16  TYR16       0.2264
     35  O         45.2450   17.2000    1.2500 O.2    16  TYR16      -0.2867
     36  CB        45.9820   14.8810    3.0660 C.3    16  TYR16       0.0534
     37  CG        47.3530   15.4820    3.3090 C.ar   16  TYR16      -0.0201
     38  CD1       47.5380   16.3990    4.3190 C.ar   16  TYR16      -0.0009
     39  CD2       48.4360   15.1580    2.5240 C.ar   16  TYR16      -0.0009
     40  CE1       48.7230   17.0210    4.5160 C.ar   16  TYR16       0.0417
     41  CE2       49.6570   15.7320    2.7720 C.ar   16  TYR16       0.0417
     42  CZ        49.7690   16.7420    3.6540 C.ar   16  TYR16       0.1957
     43  OH        50.9870   17.3110    3.8830 O.3    16  TYR16      -0.2866
     44  N         47.2550   20.9470    2.8600 N.3    18  ASN18      -0.1240
     45  CA        48.4180   21.5750    3.5160 C.3    18  ASN18       0.1653
     46  C         48.5520   22.9400    2.8280 C.2    18  ASN18       0.2266
     47  O         48.5220   23.0580    1.5890 O.2    18  ASN18      -0.2867
     48  CB        49.6250   20.7430    3.3240 C.3    18  ASN18       0.1155
     49  CG        50.8050   21.1950    4.2040 C.2    18  ASN18       0.2627
     50  OD1       50.9460   22.3650    4.4900 O.2    18  ASN18      -0.2716
     51  ND2       51.7120   20.2690    4.4780 N.am   18  ASN18      -0.0877
     52  N         54.9970   23.0060    4.3470 N.3    22  GLY22      -0.1225
     53  CA        55.7460   21.7880    4.5090 C.3    22  GLY22       0.1811
     54  C         55.7130   21.3000    5.9450 C.2    22  GLY22       0.2280
     55  O         54.8310   21.6830    6.7090 O.2    22  GLY22      -0.2866
     56  N         54.8640   18.3390    7.1600 N.3    24  VAL24      -0.1231
     57  CA        53.7340   17.4170    7.5020 C.3    24  VAL24       0.1692
     58  C         53.9010   16.1430    6.6980 C.2    24  VAL24       0.2593
     59  O         54.0470   16.1760    5.4250 O.2    24  VAL24      -0.2718
     60  CB        52.3770   18.0840    7.1260 C.3    24  VAL24       0.0266
     61  CG1       51.2410   17.0860    7.4330 C.3    24  VAL24       0.0020
     62  CG2       52.2480   19.4550    7.7980 C.3    24  VAL24       0.0020
     63  N         53.9120   15.0130    7.3780 N.am   25  THR25      -0.1939
     64  CA        54.0020   13.7140    6.7140 C.3    25  THR25       0.2028
     65  C         52.6800   13.0200    7.0210 C.2    25  THR25       0.2642
     66  O         52.4490   12.5780    8.1840 O.2    25  THR25      -0.2714
     67  CB        55.1630   12.8780    7.1860 C.3    25  THR25       0.1808
     68  OG1       56.3890   13.6510    7.0330 O.3    25  THR25      -0.2208
     69  CG2       55.2280   11.5200    6.3640 C.3    25  THR25       0.0379
     70  N         51.7740   12.9850    6.0260 N.am   26  TYR26      -0.1973
     71  CA        50.5040   12.2800    6.0610 C.3    26  TYR26       0.1639
     72  C         50.6090   10.9490    5.3310 C.2    26  TYR26       0.2290
     73  O         51.0400   10.9120    4.2060 O.2    26  TYR26      -0.2864
     74  CB        49.4180   13.1580    5.4250 C.3    26  TYR26       0.0560
     75  CG        48.0420   12.5360    5.4230 C.ar   26  TYR26      -0.0198
     76  CD1       47.7180   11.6600    4.4080 C.ar   26  TYR26      -0.0009
     77  CD2       47.1210   12.6750    6.4630 C.ar   26  TYR26      -0.0009
     78  CE1       46.4920   10.9560    4.4030 C.ar   26  TYR26       0.0417
     79  CE2       45.8880   11.9820    6.4640 C.ar   26  TYR26       0.0417
     80  CZ        45.6030   11.1280    5.4250 C.ar   26  TYR26       0.1957
     81  OH        44.4360   10.4350    5.4060 O.3    26  TYR26      -0.2866
@<TRIPOS>BOND
     1    23    22    2
     2    24    22   am
     3    22    21    1
     4    28    27    2
     5    21    20    1
     6    20    17    1
     7    27    26    1
     8    17    16    1
     9    17    18    1
    10    19    18    2
    11    16    10   am
    12    18    25   am
    13    25    26    1
    14    25    31    1
    15    14    12    1
    16    26    29    1
    17    29    30    1
    18    31    30    1
    19    12     9    1
    20    12    13    1
    21     4     3    2
    22     9    10    1
    23     9     8    1
    24    10    11    2
    25    15    13    1
    26     3     8   am
    27     3     2    1
    28    35    34    2
    29    47    46    2
    30     1     2    1
    31     2     5    1
    32    34    33    1
    33    39    41   ar
    34    39    37   ar
    35    32    33    1
    36     7     5    1
    37     5     6    1
    38    41    42   ar
    39    46    45    1
    40    44    45    1
    41    36    33    1
    42    36    37    1
    43    37    38   ar
    44    48    45    1
    45    48    49    1
    46    42    43    1
    47    42    40   ar
    48    49    51   am
    49    49    50    2
    50    73    72    2
    51    38    40   ar
    52    52    53    1
    53    78    76   ar
    54    78    80   ar
    55    76    75   ar
    56    53    54    1
    57    72    71    1
    58    81    80    1
    59    75    74    1
    60    75    77   ar
    61    59    58    2
    62    80    79   ar
    63    74    71    1
    64    54    55    2
    65    70    71    1
    66    70    65   am
    67    69    67    1
    68    77    79   ar
    69    58    63   am
    70    58    57    1
    71    64    65    1
    72    64    67    1
    73    64    63    1
    74    65    66    2
    75    68    67    1
    76    60    61    1
    77    60    57    1
    78    60    62    1
    79    56    57    1
