@<TRIPOS>MOLECULE
tmp/3lgsA00.pdb
 134 125 0 0 0
SMALL
GASTEIGER

@<TRIPOS>ATOM
      1  N         14.1210   -9.0550    8.1300 N.3    13  ALA13      -0.1231
      2  CA        14.5840   -7.6470    8.0060 C.3    13  ALA13       0.1694
      3  C         14.9380   -7.1620    6.5890 C.2    13  ALA13       0.2591
      4  O         14.7890   -5.9840    6.2870 O.2    13  ALA13      -0.2718
      5  CB        15.7430   -7.3870    8.9380 C.3    13  ALA13       0.0304
      6  N         15.4140   -8.0720    5.7380 N.am   14  MET14      -0.1979
      7  CA        15.8030   -7.7430    4.3530 C.3    14  MET14       0.1605
      8  C         14.9200   -8.4090    3.2910 C.2    14  MET14       0.2287
      9  O         14.6990   -9.6100    3.3390 O.2    14  MET14      -0.2864
     10  CB        17.2630   -8.1200    4.1210 C.3    14  MET14       0.0413
     11  CG        18.2190   -7.5120    5.1530 C.3    14  MET14       0.0598
     12  SD        19.9190   -7.9500    4.8150 S.3    14  MET14      -0.1393
     13  CE        20.3800   -6.7180    3.6380 C.3    14  MET14       0.0692
     14  N         16.1640  -11.5180    1.6300 N.3    17  GLU17      -0.1245
     15  CA        16.1260  -12.6960    2.5070 C.3    17  GLU17       0.1567
     16  C         14.7440  -13.3300    2.5420 C.2    17  GLU17       0.2260
     17  O         14.6060  -14.5350    2.7350 O.2    17  GLU17      -0.2867
     18  CB        16.5960  -12.3450    3.9090 C.3    17  GLU17       0.0388
     19  CG        18.0360  -11.9080    3.9460 C.3    17  GLU17       0.1160
     20  CD        18.5100  -11.5160    5.3280 C.2    17  GLU17       0.3649
     21  OE1       17.6770  -11.2910    6.2330 O.co2  17  GLU17      -0.2457
     22  OE2       19.7420  -11.4100    5.5040 O.co2  17  GLU17      -0.2457
     23  N         16.7090   -1.9530    8.3090 N.3    69  VAL69      -0.1245
     24  CA        17.2270   -2.8690    9.3320 C.3    69  VAL69       0.1561
     25  C         17.2190   -2.2230   10.7260 C.2    69  VAL69       0.2260
     26  O         16.9610   -1.0160   10.8720 O.2    69  VAL69      -0.2867
     27  CB        18.6700   -3.3660    8.9600 C.3    69  VAL69       0.0252
     28  CG1       18.6630   -4.2040    7.6210 C.3    69  VAL69       0.0019
     29  CG2       19.6270   -2.1920    8.8720 C.3    69  VAL69       0.0019
     30  N         19.9660  -13.1200    8.9170 N.3    95  THR95      -0.1203
     31  CA        21.3840  -13.3980    8.8930 C.3    95  THR95       0.1994
     32  C         21.9840  -12.8430   10.1670 C.2    95  THR95       0.2618
     33  O         21.3520  -12.0440   10.8630 O.2    95  THR95      -0.2717
     34  CB        22.0640  -12.7570    7.6660 C.3    95  THR95       0.1784
     35  OG1       21.5660  -11.4230    7.4780 O.3    95  THR95      -0.2211
     36  CG2       21.8010  -13.5940    6.4140 C.3    95  THR95       0.0376
     37  N         23.2010  -13.2720   10.4750 N.am   96  CYS96      -0.1955
     38  CA        23.8390  -12.9370   11.7240 C.3    96  CYS96       0.1843
     39  C         25.3300  -13.1640   11.5720 C.2    96  CYS96       0.2626
     40  O         25.7760  -13.8300   10.6370 O.2    96  CYS96      -0.2714
     41  CB        23.2830  -13.8220   12.8470 C.3    96  CYS96       0.0997
     42  SG        23.8360  -15.5490   12.7930 S.3    96  CYS96      -0.0797
     43  N         26.1060  -12.5770   12.4720 N.am   97  GLY97      -0.1954
     44  CA        27.5110  -12.9210   12.6000 C.3    97  GLY97       0.1869
     45  C         27.6120  -14.0700   13.5780 C.2    97  GLY97       0.2309
     46  O         26.7030  -14.2860   14.3820 O.2    97  GLY97      -0.2863
     47  N         24.0610   -2.0090   15.6680 N.3   159  SER159     -0.1202
     48  CA        25.2610   -1.8220   14.8590 C.3   159  SER159      0.2020
     49  C         25.7800   -3.1230   14.2280 C.2   159  SER159      0.2618
     50  O         25.8510   -4.1560   14.8810 O.2   159  SER159     -0.2717
     51  CB        26.3680   -1.1380   15.6620 C.3   159  SER159      0.2103
     52  OG        25.9540    0.1420   16.1290 O.3   159  SER159     -0.2182
     53  N         26.1590   -3.0380   12.9540 N.am  160  LEU160     -0.1979
     54  CA        26.7170   -4.1690   12.2290 C.3   160  LEU160      0.1596
     55  C         28.1030   -4.5110   12.7290 C.2   160  LEU160      0.2287
     56  O         28.5180   -5.6950   12.7360 O.2   160  LEU160     -0.2864
     57  CB        26.7950   -3.8700   10.7370 C.3   160  LEU160      0.0297
     58  CG        27.3520   -4.9600    9.8310 C.3   160  LEU160      0.0022
     59  CD1       26.6610   -6.3140   10.0240 C.3   160  LEU160      0.0001
     60  CD2       27.2280   -4.5080    8.3720 C.3   160  LEU160      0.0001
     61  N         25.4520  -12.9540   16.7400 N.3   178  LYS178     -0.1231
     62  CA        25.2580  -11.4910   16.8200 C.3   178  LYS178      0.1693
     63  C         24.3610  -10.9780   15.6680 C.2   178  LYS178      0.2592
     64  O         24.6200  -11.2600   14.4890 O.2   178  LYS178     -0.2718
     65  CB        26.6270  -10.8000   16.7850 C.3   178  LYS178      0.0285
     66  CG        26.6220   -9.2860   16.8840 C.3   178  LYS178      0.0035
     67  CD        28.0300   -8.7300   16.8320 C.3   178  LYS178      0.0206
     68  CE        28.0340   -7.2090   16.9380 C.3   178  LYS178      0.1093
     69  NZ        27.3830   -6.5430   15.7440 N.3   178  LYS178     -0.1314
     70  N         23.3020  -10.2330   15.9970 N.am  179  ASP179     -0.1960
     71  CA        22.3870   -9.7530   14.9660 C.3   179  ASP179      0.1840
     72  C         21.8990   -8.3400   15.2720 C.2   179  ASP179      0.2622
     73  O         22.4210   -7.7010   16.1860 O.2   179  ASP179     -0.2715
     74  CB        21.2200  -10.7320   14.7730 C.3   179  ASP179      0.1450
     75  CG        20.0950  -10.4950   15.7440 C.2   179  ASP179      0.3671
     76  OD1       20.3710  -10.0550   16.8930 O.co2 179  ASP179     -0.2456
     77  OD2       18.9310  -10.7290   15.3470 O.co2 179  ASP179     -0.2456
     78  N         20.9090   -7.8540   14.5140 N.am  180  MET180     -0.1963
     79  CA        20.4150   -6.4840   14.6820 C.3   180  MET180      0.1736
     80  C         18.9230   -6.2820   15.0510 C.2   180  MET180      0.2616
     81  O         18.4700   -5.1360   15.0960 O.2   180  MET180     -0.2715
     82  CB        20.7860   -5.6510   13.4510 C.3   180  MET180      0.0427
     83  CG        22.2960   -5.4670   13.2520 C.3   180  MET180      0.0599
     84  SD        22.7460   -4.7800   11.6390 S.3   180  MET180     -0.1393
     85  CE        22.0030   -3.1550   11.7870 C.3   180  MET180      0.0692
     86  N         18.1740   -7.3570   15.3370 N.am  181  GLU181     -0.1977
     87  CA        16.7430   -7.2300   15.6460 C.3   181  GLU181      0.1602
     88  C         16.2350   -8.2100   16.7040 C.2   181  GLU181      0.2287
     89  O         15.2760   -7.9180   17.4250 O.2   181  GLU181     -0.2864
     90  CB        15.8900   -7.3580   14.3640 C.3   181  GLU181      0.0415
     91  CG        15.6960   -8.7840   13.8130 C.3   181  GLU181      0.1163
     92  CD        16.5380   -9.0740   12.5810 C.2   181  GLU181      0.3649
     93  OE1       17.3550   -8.2140   12.1980 O.co2 181  GLU181     -0.2457
     94  OE2       16.3790  -10.1600   11.9840 O.co2 181  GLU181     -0.2457
     95  N         26.6000  -15.2590    8.2840 N.3   203  THR203     -0.1203
     96  CA        27.2060  -14.7150    7.0560 C.3   203  THR203      0.1994
     97  C         28.6780  -14.3550    7.2080 C.2   203  THR203      0.2617
     98  O         29.3960  -14.2130    6.2070 O.2   203  THR203     -0.2717
     99  CB        26.4370  -13.4740    6.4920 C.3   203  THR203      0.1784
    100  OG1       26.2590  -12.4900    7.5090 O.3   203  THR203     -0.2211
    101  CG2       25.0860  -13.8580    5.9220 C.3   203  THR203      0.0376
    102  N         29.1130  -14.1730    8.4580 N.am  204  ASP204     -0.1973
    103  CA        30.4700  -13.7060    8.7510 C.3   204  ASP204      0.1709
    104  C         30.8980  -14.0860   10.1570 C.2   204  ASP204      0.2293
    105  O         30.0640  -14.1480   11.0820 O.2   204  ASP204     -0.2864
    106  CB        30.5390  -12.1920    8.6430 C.3   204  ASP204      0.1436
    107  CG        29.4890  -11.5110    9.4950 C.2   204  ASP204      0.3671
    108  OD1       29.7880  -11.1770   10.6640 O.co2 204  ASP204     -0.2456
    109  OD2       28.3580  -11.3480    9.0020 O.co2 204  ASP204     -0.2456
    110  N         32.7120  -13.0760   13.4160 N.3   206  VAL206     -0.1245
    111  CA        33.0470  -11.8780   14.1630 C.3   206  VAL206      0.1561
    112  C         34.4640  -11.9910   14.7290 C.2   206  VAL206      0.2260
    113  O         35.1460  -10.9800   14.9220 O.2   206  VAL206     -0.2867
    114  CB        31.9820  -11.5620   15.2640 C.3   206  VAL206      0.0252
    115  CG1       32.4220  -10.3840   16.1280 C.3   206  VAL206      0.0019
    116  CG2       30.6310  -11.2670   14.6220 C.3   206  VAL206      0.0019
    117  N         33.9350   -7.2310    8.7640 N.3   212  THR212     -0.1218
    118  CA        32.5190   -7.6220    8.9030 C.3   212  THR212      0.1862
    119  C         31.6110   -7.2250    7.7140 C.2   212  THR212      0.2287
    120  O         30.9980   -8.0920    7.0770 O.2   212  THR212     -0.2866
    121  CB        31.9450   -7.1460   10.2510 C.3   212  THR212      0.1770
    122  OG1       32.6810   -7.7710   11.3100 O.3   212  THR212     -0.2211
    123  CG2       30.4790   -7.5210   10.3870 C.3   212  THR212      0.0375
    124  N         30.0050  -10.0720    5.2230 N.3   216  PHE216     -0.1241
    125  CA        28.5660  -10.1380    5.2200 C.3   216  PHE216      0.1605
    126  C         28.0370   -9.9980    3.7870 C.2   216  PHE216      0.2264
    127  O         27.2600  -10.8390    3.3350 O.2   216  PHE216     -0.2867
    128  CB        28.0190   -9.0720    6.2010 C.3   216  PHE216      0.0534
    129  CG        26.5870   -8.6740    5.9790 C.ar  216  PHE216     -0.0203
    130  CD1       25.5430   -9.5600    6.2480 C.ar  216  PHE216     -0.0042
    131  CD2       26.2770   -7.3880    5.5520 C.ar  216  PHE216     -0.0042
    132  CE1       24.2260   -9.1770    6.0610 C.ar  216  PHE216     -0.0003
    133  CE2       24.9420   -6.9950    5.3670 C.ar  216  PHE216     -0.0003
    134  CZ        23.9270   -7.8910    5.6160 C.ar  216  PHE216     -0.0000
@<TRIPOS>BOND
     1    14    15    1
     2    15    16    1
     3    15    18    1
     4    16    17    2
     5     8     9    2
     6     8     7    1
     7   127   126    2
     8    13    12    1
     9   126   125    1
    10    18    19    1
    11    19    20    1
    12    10     7    1
    13    10    11    1
    14     7     6    1
    15    12    11    1
    16   125   124    1
    17   125   128    1
    18    20    22   ar
    19    20    21   ar
    20   133   131   ar
    21   133   134   ar
    22   131   129   ar
    23   134   132   ar
    24     6     3   am
    25   101    99    1
    26   129   128    1
    27   129   130   ar
    28   132   130   ar
    29    98    97    2
    30     4     3    2
    31    36    34    1
    32    99    96    1
    33    99   100    1
    34     3     2    1
    35    96    97    1
    36    96    95    1
    37   120   119    2
    38    97   102   am
    39    35    34    1
    40    28    27    1
    41    34    31    1
    42   119   118    1
    43     2     1    1
    44     2     5    1
    45    23    24    1
    46    60    58    1
    47   102   103    1
    48   106   103    1
    49   106   107    1
    50   103   104    1
    51   117   118    1
    52    29    27    1
    53    31    30    1
    54    31    32    1
    55   118   121    1
    56    27    24    1
    57   109   107   ar
    58    24    25    1
    59   107   108   ar
    60    58    59    1
    61    58    57    1
    62   104   105    2
    63    32    37   am
    64    32    33    2
    65   121   123    1
    66   121   122    1
    67    37    38    1
    68    40    39    2
    69    25    26    2
    70    57    54    1
    71    39    38    1
    72    39    43   am
    73    84    85    1
    74    84    83    1
    75    38    41    1
    76    94    92   ar
    77    93    92   ar
    78    54    55    1
    79    54    53    1
    80    43    44    1
    81    92    91    1
    82    44    45    1
    83    55    56    2
    84    42    41    1
    85    53    49   am
    86    83    82    1
    87   110   111    1
    88    82    79    1
    89    45    46    2
    90    91    90    1
    91   111   112    1
    92   111   114    1
    93    49    48    1
    94    49    50    2
    95    90    87    1
    96    64    63    2
    97    78    79    1
    98    78    72   am
    99   116   114    1
   100    79    80    1
   101   112   113    2
   102    74    71    1
   103    74    75    1
   104    48    51    1
   105    48    47    1
   106    71    72    1
   107    71    70    1
   108    80    81    2
   109    80    86   am
   110   114   115    1
   111    72    73    2
   112    86    87    1
   113    77    75   ar
   114    87    88    1
   115    51    52    1
   116    63    70   am
   117    63    62    1
   118    69    68    1
   119    75    76   ar
   120    88    89    2
   121    61    62    1
   122    65    62    1
   123    65    66    1
   124    67    66    1
   125    67    68    1
