@<TRIPOS>MOLECULE
tmp/3lgxA00.pdb
 238 228 0 0 0
SMALL
GASTEIGER

@<TRIPOS>ATOM
      1  N         39.4740   73.6580   34.3910 N.3    91  ARG91      -0.1245
      2  CA        40.5100   73.7270   35.4210 C.3    91  ARG91       0.1563
      3  C         41.5420   74.8460   35.1410 C.2    91  ARG91       0.2260
      4  O         41.8160   75.6820   36.0140 O.2    91  ARG91      -0.2867
      5  CB        41.1530   72.3380   35.6080 C.3    91  ARG91       0.0307
      6  CG        42.5070   72.3090   36.2510 C.3    91  ARG91       0.0489
      7  CD        42.4680   72.8130   37.6740 C.3    91  ARG91       0.2205
      8  NE        42.0980   71.7780   38.6530 N.pl3  91  ARG91      -0.0865
      9  CZ        42.9730   71.1070   39.4100 C.cat  91  ARG91       0.5346
     10  NH1       42.5220   70.2030   40.2790 N.pl3  91  ARG91       0.1354
     11  NH2       44.2870   71.3330   39.3080 N.pl3  91  ARG91       0.1354
     12  N         51.4090   76.0950   43.3860 N.3   150  ILE150     -0.1231
     13  CA        50.8700   74.8480   42.8930 C.3   150  ILE150      0.1692
     14  C         49.4320   74.7280   43.3390 C.2   150  ILE150      0.2592
     15  O         49.0800   75.1550   44.4400 O.2   150  ILE150     -0.2718
     16  CB        51.7430   73.6260   43.2990 C.3   150  ILE150      0.0266
     17  CG1       52.9230   73.5640   42.3210 C.3   150  ILE150      0.0019
     18  CG2       50.9210   72.3410   43.2850 C.3   150  ILE150      0.0020
     19  CD1       53.8280   72.3360   42.3260 C.3   150  ILE150      0.0001
     20  N         48.6050   74.1820   42.4530 N.am  151  PHE151     -0.1962
     21  CA        47.1920   74.0720   42.6980 C.3   151  PHE151      0.1771
     22  C         46.7880   72.6650   43.0920 C.2   151  PHE151      0.2620
     23  O         47.2190   71.6450   42.5260 O.2   151  PHE151     -0.2715
     24  CB        46.3850   74.5780   41.5020 C.3   151  PHE151      0.0574
     25  CG        46.1840   76.0600   41.5070 C.ar  151  PHE151     -0.0200
     26  CD1       44.9630   76.6090   41.9110 C.ar  151  PHE151     -0.0042
     27  CD2       47.2150   76.9180   41.1180 C.ar  151  PHE151     -0.0042
     28  CE1       44.7630   77.9780   41.9320 C.ar  151  PHE151     -0.0003
     29  CE2       47.0360   78.2970   41.1340 C.ar  151  PHE151     -0.0003
     30  CZ        45.7980   78.8340   41.5470 C.ar  151  PHE151     -0.0000
     31  N         45.9480   72.6290   44.0970 N.am  152  THR152     -0.1937
     32  CA        45.5750   71.4010   44.7070 C.3   152  THR152      0.2028
     33  C         44.1300   71.2870   44.3210 C.2   152  THR152      0.2642
     34  O         43.4640   72.3260   44.1710 O.2   152  THR152     -0.2714
     35  CB        45.7370   71.5860   46.2000 C.3   152  THR152      0.1808
     36  OG1       46.6230   70.5900   46.7130 O.3   152  THR152     -0.2208
     37  CG2       44.4020   71.6150   46.9310 C.3   152  THR152      0.0379
     38  N         43.6300   70.0710   44.1220 N.am  153  SER153     -0.1949
     39  CA        42.1900   69.9310   43.8440 C.3   153  SER153      0.1924
     40  C         41.3820   70.0370   45.1590 C.2   153  SER153      0.2314
     41  O         41.3200   69.0850   45.9650 O.2   153  SER153     -0.2863
     42  CB        41.8820   68.6160   43.1270 C.3   153  SER153      0.2116
     43  OG        41.6220   67.5860   44.0770 O.3   153  SER153     -0.2180
     44  N         38.9070   66.9740   47.3510 N.3   154  THR154     -0.1218
     45  CA        37.8740   67.9060   47.8600 C.3   154  THR154      0.1862
     46  C         37.0290   68.6710   46.7800 C.2   154  THR154      0.2287
     47  O         35.9960   69.2840   47.1040 O.2   154  THR154     -0.2866
     48  CB        38.4500   68.8500   48.9990 C.3   154  THR154      0.1770
     49  OG1       37.8920   70.1720   48.8990 O.3   154  THR154     -0.2211
     50  CG2       39.9900   68.9310   48.9450 C.3   154  THR154      0.0375
     51  N         42.4940   74.9820   44.8600 N.3   158  LYS158     -0.1245
     52  CA        43.1890   76.0360   45.6490 C.3   158  LYS158      0.1561
     53  C         44.6870   76.1270   45.3420 C.2   158  LYS158      0.2260
     54  O         45.3440   75.1010   45.1240 O.2   158  LYS158     -0.2867
     55  CB        43.0520   75.8550   47.1710 C.3   158  LYS158      0.0271
     56  CG        41.8370   75.1320   47.6830 C.3   158  LYS158      0.0035
     57  CD        42.1200   74.6300   49.0860 C.3   158  LYS158      0.0206
     58  CE        41.3010   73.4250   49.4380 C.3   158  LYS158      0.1093
     59  NZ        42.2170   72.2940   49.7950 N.3   158  LYS158     -0.1314
     60  N         52.3290   69.0240   40.0580 N.3   196  PHE196     -0.1227
     61  CA        52.1510   68.2160   41.2540 C.3   196  PHE196      0.1736
     62  C         53.4070   68.4930   42.0770 C.2   196  PHE196      0.2595
     63  O         54.5360   68.3660   41.5580 O.2   196  PHE196     -0.2718
     64  CB        52.1250   66.7670   40.7900 C.3   196  PHE196      0.0547
     65  CG        51.9350   65.7540   41.8710 C.ar  196  PHE196     -0.0202
     66  CD1       51.2900   66.0690   43.0530 C.ar  196  PHE196     -0.0042
     67  CD2       52.3350   64.4290   41.6510 C.ar  196  PHE196     -0.0042
     68  CE1       51.1100   65.1040   44.0120 C.ar  196  PHE196     -0.0003
     69  CE2       52.1330   63.4440   42.6220 C.ar  196  PHE196     -0.0003
     70  CZ        51.5300   63.7870   43.7840 C.ar  196  PHE196     -0.0000
     71  N         53.2380   68.8630   43.3410 N.am  197  ASP197     -0.1974
     72  CA        54.4120   69.2370   44.1340 C.3   197  ASP197      0.1709
     73  C         55.3960   68.0750   44.4530 C.2   197  ASP197      0.2293
     74  O         56.5090   68.2720   44.9320 O.2   197  ASP197     -0.2864
     75  CB        54.0130   70.1080   45.3270 C.3   197  ASP197      0.1436
     76  CG        53.8750   69.3420   46.6180 C.2   197  ASP197      0.3671
     77  OD1       54.2770   69.9420   47.6360 O.co2 197  ASP197     -0.2456
     78  OD2       53.3770   68.1910   46.6500 O.co2 197  ASP197     -0.2456
     79  N         55.9960   59.3680   47.8930 N.3   269  ASP269     -0.1225
     80  CA        55.2230   60.3440   48.6600 C.3   269  ASP269      0.1805
     81  C         53.8730   60.4850   47.9620 C.2   269  ASP269      0.2598
     82  O         53.7540   60.1430   46.7750 O.2   269  ASP269     -0.2718
     83  CB        55.9970   61.6440   48.6660 C.3   269  ASP269      0.1424
     84  CG        55.3470   62.7540   49.4590 C.2   269  ASP269      0.3668
     85  OD1       54.2700   62.6000   50.0810 O.co2 269  ASP269     -0.2456
     86  OD2       55.9740   63.8340   49.4570 O.co2 269  ASP269     -0.2456
     87  N         52.8500   60.9370   48.6900 N.am  270  GLY270     -0.1942
     88  CA        51.5910   61.3480   48.0560 C.3   270  GLY270      0.2014
     89  C         50.3520   60.5510   48.4430 C.2   270  GLY270      0.2639
     90  O         49.2670   61.1180   48.5190 O.2   270  GLY270     -0.2714
     91  N         50.5100   59.2470   48.6830 N.am  271  GLU271     -0.1963
     92  CA        49.4270   58.4000   49.1470 C.3   271  GLU271      0.1733
     93  C         50.0240   57.2930   49.9900 C.2   271  GLU271      0.2616
     94  O         51.2410   57.1480   50.0930 O.2   271  GLU271     -0.2715
     95  CB        48.5860   57.8170   47.9920 C.3   271  GLU271      0.0429
     96  CG        49.4190   57.3250   46.8170 C.3   271  GLU271      0.1163
     97  CD        48.6860   56.4670   45.7590 C.2   271  GLU271      0.3649
     98  OE1       49.4100   55.9120   44.9090 O.co2 271  GLU271     -0.2457
     99  OE2       47.4370   56.3200   45.7600 O.co2 271  GLU271     -0.2457
    100  N         49.1720   56.4970   50.6070 N.am  272  GLU272     -0.1963
    101  CA        49.6740   55.3980   51.3730 C.3   272  GLU272      0.1733
    102  C         50.5660   54.4770   50.5450 C.2   272  GLU272      0.2616
    103  O         50.1490   53.9980   49.4850 O.2   272  GLU272     -0.2715
    104  CB        48.5410   54.5960   51.9660 C.3   272  GLU272      0.0429
    105  CG        49.0920   53.5520   52.9230 C.3   272  GLU272      0.1163
    106  CD        48.2740   53.4070   54.1610 C.2   272  GLU272      0.3649
    107  OE1       47.2260   54.0470   54.2450 O.co2 272  GLU272     -0.2457
    108  OE2       48.6790   52.6540   55.0590 O.co2 272  GLU272     -0.2457
    109  N         51.7780   54.2430   51.0340 N.am  273  LEU273     -0.1977
    110  CA        52.5960   53.1470   50.5360 C.3   273  LEU273      0.1596
    111  C         52.2600   51.8930   51.3240 C.2   273  LEU273      0.2287
    112  O         52.3250   51.8450   52.5460 O.2   273  LEU273     -0.2864
    113  CB        54.1020   53.4410   50.5820 C.3   273  LEU273      0.0297
    114  CG        55.0200   52.3040   50.0960 C.3   273  LEU273      0.0022
    115  CD1       55.1550   52.2870   48.5990 C.3   273  LEU273      0.0001
    116  CD2       56.3740   52.4010   50.7350 C.3   273  LEU273      0.0001
    117  N         59.4330   55.9970   52.4110 N.3   292  ASN292     -0.1225
    118  CA        58.0710   56.5420   52.4520 C.3   292  ASN292      0.1785
    119  C         58.1990   57.9250   53.0060 C.2   292  ASN292      0.2597
    120  O         58.8810   58.1240   54.0080 O.2   292  ASN292     -0.2718
    121  CB        57.1260   55.7130   53.3410 C.3   292  ASN292      0.1169
    122  CG        55.6570   56.0410   53.0960 C.2   292  ASN292      0.2627
    123  OD1       55.3120   56.6320   52.0870 O.2   292  ASN292     -0.2716
    124  ND2       54.7910   55.6280   54.0010 N.am  292  ASN292     -0.0877
    125  N         57.5660   58.8880   52.3530 N.am  293  ALA293     -0.1966
    126  CA        57.6800   60.2820   52.7600 C.3   293  ALA293      0.1728
    127  C         56.3070   60.8520   52.7340 C.2   293  ALA293      0.2616
    128  O         55.4670   60.3960   51.9610 O.2   293  ALA293     -0.2715
    129  CB        58.5600   61.0330   51.8370 C.3   293  ALA293      0.0334
    130  N         56.0690   61.8410   53.5880 N.am  294  TYR294     -0.1960
    131  CA        54.7130   62.3050   53.8430 C.3   294  TYR294      0.1771
    132  C         54.6220   63.7840   53.9940 C.2   294  TYR294      0.2620
    133  O         55.5400   64.4310   54.5010 O.2   294  TYR294     -0.2715
    134  CB        54.1380   61.6670   55.0970 C.3   294  TYR294      0.0574
    135  CG        52.9540   62.4350   55.6700 C.ar  294  TYR294     -0.0198
    136  CD1       51.6670   62.1970   55.2150 C.ar  294  TYR294     -0.0009
    137  CD2       53.1330   63.3980   56.6920 C.ar  294  TYR294     -0.0009
    138  CE1       50.5730   62.8990   55.7500 C.ar  294  TYR294      0.0417
    139  CE2       52.0630   64.0780   57.2260 C.ar  294  TYR294      0.0417
    140  CZ        50.7870   63.8320   56.7450 C.ar  294  TYR294      0.1957
    141  OH        49.7140   64.5220   57.2540 O.3   294  TYR294     -0.2866
    142  N         53.4750   64.2920   53.5520 N.am  295  GLY295     -0.1940
    143  CA        53.1020   65.6680   53.7510 C.3   295  GLY295      0.1998
    144  C         52.1780   66.1580   52.6650 C.2   295  GLY295      0.2481
    145  O         52.1560   65.6190   51.5460 O.2   295  GLY295     -0.2729
    146  N         51.3860   67.1800   53.0060 N.am  296  PRO296     -0.2715
    147  CA        50.5840   67.9790   52.1220 C.3   296  PRO296      0.1536
    148  C         51.4510   69.0190   51.4330 C.2   296  PRO296      0.2599
    149  O         52.5430   69.3570   51.9140 O.2   296  PRO296     -0.2715
    150  CB        49.6520   68.6960   53.0970 C.3   296  PRO296      0.0310
    151  CG        50.5180   68.9540   54.2550 C.3   296  PRO296      0.0237
    152  CD        51.2150   67.6130   54.4030 C.3   296  PRO296      0.0939
    153  N         50.9220   69.5390   50.3290 N.am  297  THR297     -0.1937
    154  CA        51.5390   70.5700   49.5320 C.3   297  THR297      0.2028
    155  C         51.6890   71.8020   50.3840 C.2   297  THR297      0.2642
    156  O         52.6370   72.5880   50.2110 O.2   297  THR297     -0.2714
    157  CB        50.6240   70.8820   48.3590 C.3   297  THR297      0.1808
    158  OG1       50.3540   69.6650   47.6740 O.3   297  THR297     -0.2208
    159  CG2       51.2630   71.8890   47.3720 C.3   297  THR297      0.0379
    160  N         50.7420   71.9660   51.3100 N.am  298  GLU298     -0.1976
    161  CA        50.7190   73.1360   52.1740 C.3   298  GLU298      0.1602
    162  C         51.9290   73.2310   53.1360 C.2   298  GLU298      0.2287
    163  O         52.2000   74.2990   53.6850 O.2   298  GLU298     -0.2864
    164  CB        49.3990   73.2400   52.8990 C.3   298  GLU298      0.0415
    165  CG        48.2020   73.4540   51.9550 C.3   298  GLU298      0.1163
    166  CD        47.5990   72.1600   51.4270 C.2   298  GLU298      0.3649
    167  OE1       48.2700   71.1160   51.5310 O.co2 298  GLU298     -0.2457
    168  OE2       46.4680   72.1600   50.8790 O.co2 298  GLU298     -0.2457
    169  N         55.0230   56.5750   58.5060 N.3   321  ILE321     -0.1245
    170  CA        55.3020   57.6980   57.5980 C.3   321  ILE321      0.1561
    171  C         56.4730   58.5730   58.0110 C.2   321  ILE321      0.2260
    172  O         56.8150   59.5270   57.3050 O.2   321  ILE321     -0.2867
    173  CB        54.0590   58.5150   57.2310 C.3   321  ILE321      0.0252
    174  CG1       53.2550   58.9090   58.4810 C.3   321  ILE321      0.0019
    175  CG2       53.2010   57.6960   56.2290 C.3   321  ILE321      0.0019
    176  CD1       52.3560   60.1360   58.3040 C.3   321  ILE321      0.0001
    177  N         46.4760   69.3280   58.7620 N.3   381  THR381     -0.1218
    178  CA        46.6460   68.4190   57.6170 C.3   381  THR381      0.1862
    179  C         45.3570   67.7110   57.1430 C.2   381  THR381      0.2287
    180  O         45.2990   67.1920   56.0090 O.2   381  THR381     -0.2866
    181  CB        47.7350   67.3430   57.8300 C.3   381  THR381      0.1770
    182  OG1       47.3060   66.4320   58.8320 O.3   381  THR381     -0.2211
    183  CG2       49.0300   67.9320   58.2250 C.3   381  THR381      0.0375
    184  N         44.5870   64.9660   58.2170 N.3   383  ASP383     -0.1239
    185  CA        44.9070   63.5590   58.4250 C.3   383  ASP383      0.1674
    186  C         44.8490   63.1750   59.9110 C.2   383  ASP383      0.2266
    187  O         45.2280   63.9720   60.7730 O.2   383  ASP383     -0.2867
    188  CB        46.3200   63.2790   57.9130 C.3   383  ASP383      0.1410
    189  CG        46.4920   63.5760   56.4170 C.2   383  ASP383      0.3668
    190  OD1       47.4650   64.2970   56.0360 O.co2 383  ASP383     -0.2456
    191  OD2       45.6660   63.0800   55.6150 O.co2 383  ASP383     -0.2456
    192  N         50.3390   56.7680   60.3100 N.3   395  TYR395     -0.1241
    193  CA        49.3010   57.3230   59.4870 C.3   395  TYR395      0.1605
    194  C         48.0040   56.5250   59.6430 C.2   395  TYR395      0.2264
    195  O         47.9870   55.2970   59.4590 O.2   395  TYR395     -0.2867
    196  CB        49.7690   57.4190   58.0130 C.3   395  TYR395      0.0534
    197  CG        48.6820   57.8700   57.0690 C.ar  395  TYR395     -0.0201
    198  CD1       48.2960   59.1960   57.0200 C.ar  395  TYR395     -0.0009
    199  CD2       48.0100   56.9610   56.2500 C.ar  395  TYR395     -0.0009
    200  CE1       47.2730   59.6240   56.1790 C.ar  395  TYR395      0.0417
    201  CE2       46.9660   57.3820   55.4010 C.ar  395  TYR395      0.0417
    202  CZ        46.6150   58.7170   55.3860 C.ar  395  TYR395      0.1957
    203  OH        45.6150   59.1700   54.5610 O.3   395  TYR395     -0.2866
    204  N         42.3610   60.0290   56.4030 N.3   398  ARG398     -0.1245
    205  CA        41.7690   61.3510   56.3810 C.3   398  ARG398      0.1563
    206  C         40.5760   61.4600   57.3330 C.2   398  ARG398      0.2260
    207  O         39.8180   60.5110   57.4760 O.2   398  ARG398     -0.2867
    208  CB        41.3190   61.7080   54.9640 C.3   398  ARG398      0.0307
    209  CG        42.3000   61.3810   53.8650 C.3   398  ARG398      0.0489
    210  CD        42.4850   62.5850   52.9850 C.3   398  ARG398      0.2205
    211  NE        43.2900   63.5960   53.6760 N.pl3 398  ARG398     -0.0865
    212  CZ        42.9510   64.8740   53.8480 C.cat 398  ARG398      0.5346
    213  NH1       43.7820   65.6840   54.4940 N.pl3 398  ARG398      0.1354
    214  NH2       41.8010   65.3540   53.3720 N.pl3 398  ARG398      0.1354
    215  N         44.0200   59.5350   39.8690 N.3   493  THR493     -0.1218
    216  CA        43.9540   60.9810   39.6060 C.3   493  THR493      0.1862
    217  C         44.9580   61.4210   38.5410 C.2   493  THR493      0.2287
    218  O         45.8350   60.6420   38.1610 O.2   493  THR493     -0.2866
    219  CB        44.2850   61.7860   40.8600 C.3   493  THR493      0.1770
    220  OG1       45.5600   61.3520   41.3760 O.3   493  THR493     -0.2211
    221  CG2       43.1630   61.6460   41.8930 C.3   493  THR493      0.0375
    222  N         47.3970   63.2590   39.0790 N.3   495  ASN495     -0.1240
    223  CA        48.6950   63.2080   39.7420 C.3   495  ASN495      0.1653
    224  C         49.1910   61.8130   40.0250 C.2   495  ASN495      0.2266
    225  O         50.3060   61.6640   40.5090 O.2   495  ASN495     -0.2867
    226  CB        48.7300   64.0700   41.0130 C.3   495  ASN495      0.1155
    227  CG        48.5620   65.5700   40.7210 C.2   495  ASN495      0.2627
    228  OD1       48.9130   66.0590   39.6360 O.2   495  ASN495     -0.2716
    229  ND2       48.0230   66.3030   41.6990 N.am  495  ASN495     -0.0877
    230  N         47.4690   59.1930   41.9490 N.3   497  LYS497     -0.1245
    231  CA        47.0280   58.5320   43.1820 C.3   497  LYS497      0.1561
    232  C         45.7440   57.7310   42.9390 C.2   497  LYS497      0.2260
    233  O         45.0060   58.0380   41.9840 O.2   497  LYS497     -0.2867
    234  CB        46.7440   59.5550   44.2480 C.3   497  LYS497      0.0271
    235  CG        47.8100   60.5630   44.4630 C.3   497  LYS497      0.0035
    236  CD        47.2890   61.6060   45.4400 C.3   497  LYS497      0.0206
    237  CE        48.3510   62.6380   45.7970 C.3   497  LYS497      0.1093
    238  NZ        48.0170   63.1170   47.1930 N.3   497  LYS497     -0.1314
@<TRIPOS>BOND
     1     1     2    1
     2     3     2    1
     3     3     4    2
     4     2     5    1
     5     5     6    1
     6     6     7    1
     7     7     8    1
     8   218   217    2
     9   217   216    1
    10     8     9    2
    11   222   223    1
    12    11     9    1
    13     9    10    1
    14   216   215    1
    15   216   219    1
    16   228   227    2
    17   223   224    1
    18   223   226    1
    19   224   225    2
    20    60    61    1
    21   227   226    1
    22   227   229   am
    23    64    61    1
    24    64    65    1
    25   219   220    1
    26   219   221    1
    27    27    29   ar
    28    27    25   ar
    29    29    30   ar
    30    61    62    1
    31    24    25    1
    32    24    21    1
    33    25    26   ar
    34    30    28   ar
    35    63    62    2
    36    67    65   ar
    37    67    69   ar
    38    65    66   ar
    39    26    28   ar
    40   230   231    1
    41   233   232    2
    42    62    71   am
    43    17    19    1
    44    17    16    1
    45    20    21    1
    46    20    14   am
    47    23    22    2
    48    69    70   ar
    49    21    22    1
    50    13    16    1
    51    13    14    1
    52    13    12    1
    53   232   231    1
    54    66    68   ar
    55    22    31   am
    56    42    39    1
    57    42    43    1
    58   231   234    1
    59    18    16    1
    60    14    15    2
    61    71    72    1
    62    70    68   ar
    63    39    38    1
    64    39    40    1
    65    31    32    1
    66    38    33   am
    67    72    73    1
    68    72    75    1
    69    34    33    2
    70   234   235    1
    71    33    32    1
    72    73    74    2
    73   235   236    1
    74    32    35    1
    75    51    52    1
    76    98    97   ar
    77    54    53    2
    78    40    41    2
    79    75    76    1
    80    53    52    1
    81   236   237    1
    82    52    55    1
    83    97    99   ar
    84    97    96    1
    85   237   238    1
    86    35    36    1
    87    35    37    1
    88    76    78   ar
    89    76    77   ar
    90    82    81    2
    91    46    47    2
    92    46    45    1
    93    96    95    1
    94    55    56    1
    95    44    45    1
    96   159   157    1
    97   158   157    1
    98    56    57    1
    99    45    48    1
   100    79    80    1
   101    81    80    1
   102    81    87   am
   103    95    92    1
   104    88    89    1
   105    88    87    1
   106   157   154    1
   107    89    90    2
   108    89    91   am
   109   115   114    1
   110    80    83    1
   111    83    84    1
   112    91    92    1
   113    49    48    1
   114    50    48    1
   115    57    58    1
   116    92    93    1
   117    58    59    1
   118    86    84   ar
   119    84    85   ar
   120   103   102    2
   121   154   153    1
   122   154   155    1
   123    93    94    2
   124    93   100   am
   125   114   113    1
   126   114   116    1
   127   156   155    2
   128   153   148   am
   129   155   160   am
   130   110   113    1
   131   110   109    1
   132   110   111    1
   133   102   109   am
   134   102   101    1
   135   100   101    1
   136   168   166   ar
   137   160   161    1
   138   111   112    2
   139   101   104    1
   140   166   167   ar
   141   166   165    1
   142   148   149    2
   143   148   147    1
   144   145   144    2
   145   129   126    1
   146   165   164    1
   147   128   127    2
   148   104   105    1
   149   123   122    2
   150   147   146    1
   151   147   150    1
   152   161   164    1
   153   161   162    1
   154   125   126    1
   155   125   119   am
   156   117   118    1
   157   118   119    1
   158   118   121    1
   159   144   146   am
   160   144   143    1
   161   127   126    1
   162   127   130   am
   163   105   106    1
   164   210   211    1
   165   210   209    1
   166   146   152    1
   167   119   120    2
   168   122   121    1
   169   122   124   am
   170   150   151    1
   171   162   163    2
   172   214   212    1
   173   142   143    1
   174   142   132   am
   175   130   131    1
   176   211   212    2
   177   131   132    1
   178   131   134    1
   179   212   213    1
   180   209   208    1
   181   132   133    2
   182   106   107   ar
   183   106   108   ar
   184   151   152    1
   185   203   202    1
   186   208   205    1
   187   134   135    1
   188   136   135   ar
   189   136   138   ar
   190   202   201   ar
   191   202   200   ar
   192   201   199   ar
   193   191   189   ar
   194   135   137   ar
   195   138   140   ar
   196   180   179    2
   197   190   189   ar
   198   200   198   ar
   199   175   173    1
   200   199   197   ar
   201   205   204    1
   202   205   206    1
   203   189   188    1
   204   137   139   ar
   205   140   139   ar
   206   140   141    1
   207   198   197   ar
   208   197   196    1
   209   179   178    1
   210   173   170    1
   211   173   174    1
   212   172   171    2
   213   206   207    2
   214   170   171    1
   215   170   169    1
   216   178   181    1
   217   178   177    1
   218   181   183    1
   219   181   182    1
   220   188   185    1
   221   196   193    1
   222   184   185    1
   223   176   174    1
   224   185   186    1
   225   195   194    2
   226   193   194    1
   227   193   192    1
   228   186   187    2
