@<TRIPOS>MOLECULE
tmp/3lhgA00.pdb
 186 177 0 0 0
SMALL
GASTEIGER

@<TRIPOS>ATOM
      1  N          5.0610    1.9300   12.8720 N.3    14  GLY14      -0.1210
      2  CA         5.5910    1.5080   14.1570 C.3    14  GLY14       0.1956
      3  C          5.6600    0.0000   14.3240 C.2    14  GLY14       0.2612
      4  O          6.0450   -0.5030   15.3780 O.2    14  GLY14      -0.2717
      5  N          5.2830   -0.7340   13.2880 N.am   15  GLN15      -0.1965
      6  CA         5.2610   -2.1920   13.3870 C.3    15  GLN15       0.1733
      7  C          6.1280   -2.8640   12.3280 C.2    15  GLN15       0.2616
      8  O          5.9910   -4.0570   12.0800 O.2    15  GLN15      -0.2715
      9  CB         3.8190   -2.7100   13.3260 C.3    15  GLN15       0.0408
     10  CG         2.9910   -2.2940   14.5460 C.3    15  GLN15       0.0908
     11  CD         1.5670   -2.8350   14.5230 C.2    15  GLN15       0.2608
     12  OE1        1.0640   -3.2450   13.4800 O.2    15  GLN15      -0.2717
     13  NE2        0.9120   -2.8280   15.6760 N.am   15  GLN15      -0.0878
     14  N          7.0240   -2.0910   11.7200 N.am   16  GLY16      -0.1955
     15  CA         8.0070   -2.6250   10.7960 C.3    16  GLY16       0.1869
     16  C          7.5280   -2.7320    9.3550 C.2    16  GLY16       0.2309
     17  O          6.3390   -2.5960    9.0600 O.2    16  GLY16      -0.2863
     18  N          9.1370   -9.6150    8.1070 N.3    33  LEU33      -0.1245
     19  CA         9.8170   -8.3720    8.4890 C.3    33  LEU33       0.1561
     20  C         11.2510   -8.2830    7.9350 C.2    33  LEU33       0.2260
     21  O         12.0650   -9.1700    8.1500 O.2    33  LEU33      -0.2867
     22  CB         9.8700   -8.2690   10.0070 C.3    33  LEU33       0.0270
     23  CG        10.5370   -6.9990   10.5320 C.3    33  LEU33       0.0019
     24  CD1        9.5620   -5.8430   10.4200 C.3    33  LEU33       0.0001
     25  CD2       10.9930   -7.1930   11.9580 C.3    33  LEU33       0.0001
     26  N         14.6660   -7.0160    8.3670 N.3    35  ASP35      -0.1239
     27  CA        15.3490   -6.6210    9.5920 C.3    35  ASP35       0.1674
     28  C         16.8760   -6.5870    9.4450 C.2    35  ASP35       0.2266
     29  O         17.5200   -7.6320    9.5010 O.2    35  ASP35      -0.2867
     30  CB        14.9750   -7.6050   10.7070 C.3    35  ASP35       0.1410
     31  CG        15.4760   -7.1660   12.0620 C.2    35  ASP35       0.3668
     32  OD1       15.9300   -6.0100   12.1800 O.co2  35  ASP35      -0.2456
     33  OD2       15.4060   -7.9650   13.0130 O.co2  35  ASP35      -0.2456
     34  N         18.8200   -5.4870   11.6140 N.3    37  GLY37      -0.1210
     35  CA        19.3580   -5.5120   12.9670 C.3    37  GLY37       0.1956
     36  C         19.4780   -6.9040   13.5810 C.2    37  GLY37       0.2612
     37  O         19.7690   -7.0340   14.7740 O.2    37  GLY37      -0.2717
     38  N         19.2590   -7.9440   12.7810 N.am   38  SER38      -0.1952
     39  CA        19.4310   -9.3240   13.2540 C.3    38  SER38       0.1924
     40  C         19.8330  -10.1970   12.0840 C.2    38  SER38       0.2314
     41  O         19.8770   -9.7270   10.9510 O.2    38  SER38      -0.2863
     42  CB        18.1470   -9.8610   13.8930 C.3    38  SER38       0.2116
     43  OG        17.1140   -9.9550   12.9310 O.3    38  SER38      -0.2180
     44  N         18.9320  -13.9150   11.8250 N.3    40  ASN40      -0.1240
     45  CA        18.1780  -15.1580   11.6550 C.3    40  ASN40       0.1653
     46  C         16.9440  -15.0090   10.7750 C.2    40  ASN40       0.2266
     47  O         16.1550  -14.0820   10.9520 O.2    40  ASN40      -0.2867
     48  CB        17.7270  -15.7000   13.0090 C.3    40  ASN40       0.1155
     49  CG        18.8360  -16.4080   13.7480 C.2    40  ASN40       0.2627
     50  OD1       19.5860  -15.7930   14.4940 O.2    40  ASN40      -0.2716
     51  ND2       18.9370  -17.7150   13.5480 N.am   40  ASN40      -0.0877
     52  N         16.3750  -18.0180   22.0310 N.3    72  VAL72      -0.1245
     53  CA        16.8440  -16.6460   21.9200 C.3    72  VAL72       0.1561
     54  C         16.0950  -15.7110   22.8550 C.2    72  VAL72       0.2260
     55  O         15.1590  -15.0320   22.4410 O.2    72  VAL72      -0.2867
     56  CB        16.7140  -16.1230   20.4790 C.3    72  VAL72       0.0252
     57  CG1       17.4130  -14.7640   20.3450 C.3    72  VAL72       0.0019
     58  CG2       17.3060  -17.1230   19.5070 C.3    72  VAL72       0.0019
     59  N         15.8870  -12.2320   24.7200 N.3    74  TYR74      -0.1241
     60  CA        16.4080  -10.9060   24.4430 C.3    74  TYR74       0.1605
     61  C         15.7030   -9.9180   25.3650 C.2    74  TYR74       0.2264
     62  O         14.7800  -10.2840   26.0830 O.2    74  TYR74      -0.2867
     63  CB        16.2550  -10.5600   22.9500 C.3    74  TYR74       0.0534
     64  CG        14.8300  -10.4450   22.4430 C.ar   74  TYR74      -0.0201
     65  CD1       14.2050   -9.2080   22.3730 C.ar   74  TYR74      -0.0009
     66  CD2       14.1220  -11.5630   22.0050 C.ar   74  TYR74      -0.0009
     67  CE1       12.9130   -9.0780   21.9040 C.ar   74  TYR74       0.0417
     68  CE2       12.8100  -11.4420   21.5250 C.ar   74  TYR74       0.0417
     69  CZ        12.2200  -10.1890   21.4790 C.ar   74  TYR74       0.1957
     70  OH        10.9280  -10.0160   21.0140 O.3    74  TYR74      -0.2866
     71  N         13.5430   -7.3360   25.4070 N.3    76  GLN76      -0.1245
     72  CA        12.1050   -7.0630   25.4400 C.3    76  GLN76       0.1566
     73  C         11.2190   -8.3180   25.4390 C.2    76  GLN76       0.2260
     74  O         10.0130   -8.2280   25.6640 O.2    76  GLN76      -0.2867
     75  CB        11.7180   -6.1670   24.2580 C.3    76  GLN76       0.0367
     76  CG        12.3140   -4.7610   24.2590 C.3    76  GLN76       0.0905
     77  CD        11.9570   -3.9860   25.5010 C.2    76  GLN76       0.2608
     78  OE1       10.7600   -3.8980   25.8370 O.2    76  GLN76      -0.2717
     79  NE2       12.9230   -3.5430   26.2430 N.am   76  GLN76      -0.0878
     80  N         12.1960  -15.5810   21.7500 N.3    79  TRP79      -0.1241
     81  CA        11.6700  -16.5840   20.8320 C.3    79  TRP79       0.1605
     82  C         12.4910  -17.8610   20.9200 C.2    79  TRP79       0.2264
     83  O         13.6530  -17.8390   21.2980 O.2    79  TRP79      -0.2867
     84  CB        11.6090  -16.0570   19.3850 C.3    79  TRP79       0.0550
     85  CG        12.9300  -15.6810   18.7290 C.ar   79  TRP79       0.0003
     86  CD1       13.5480  -14.4590   18.7560 C.ar   79  TRP79       0.0946
     87  CD2       13.7460  -16.5190   17.8990 C.ar   79  TRP79       0.0152
     88  NE1       14.7070  -14.4960   18.0140 N.ar   79  TRP79      -0.2442
     89  CE2       14.8520  -15.7480   17.4790 C.ar   79  TRP79       0.0810
     90  CE3       13.6570  -17.8500   17.4830 C.ar   79  TRP79       0.0012
     91  CZ2       15.8570  -16.2650   16.6650 C.ar   79  TRP79       0.0191
     92  CZ3       14.6550  -18.3610   16.6780 C.ar   79  TRP79       0.0001
     93  CH2       15.7410  -17.5710   16.2780 C.ar   79  TRP79       0.0015
     94  N          6.0930  -11.8660   23.5740 N.3   110  LYS110     -0.1231
     95  CA         6.1940  -10.4740   23.1250 C.3   110  LYS110      0.1693
     96  C          7.0720  -10.2890   21.8830 C.2   110  LYS110      0.2592
     97  O          7.7120   -9.2570   21.7100 O.2   110  LYS110     -0.2718
     98  CB         6.6900   -9.5860   24.2680 C.3   110  LYS110      0.0285
     99  CG         5.6330   -9.3380   25.3370 C.3   110  LYS110      0.0035
    100  CD         6.1850   -8.5410   26.5030 C.3   110  LYS110      0.0206
    101  CE         7.2260   -9.3380   27.2700 C.3   110  LYS110      0.1093
    102  NZ         7.7090   -8.6160   28.4820 N.3   110  LYS110     -0.1314
    103  N          7.0740  -11.2870   21.0090 N.am  111  PHE111     -0.1976
    104  CA         7.8560  -11.2340   19.7820 C.3   111  PHE111      0.1639
    105  C          6.9620  -10.8190   18.6150 C.2   111  PHE111      0.2290
    106  O          7.2330   -9.8360   17.9270 O.2   111  PHE111     -0.2864
    107  CB         8.4970  -12.6040   19.5370 C.3   111  PHE111      0.0560
    108  CG         9.3080  -12.6960   18.2680 C.ar  111  PHE111     -0.0200
    109  CD1       10.5880  -12.1660   18.2020 C.ar  111  PHE111     -0.0042
    110  CD2        8.7980  -13.3490   17.1530 C.ar  111  PHE111     -0.0042
    111  CE1       11.3340  -12.2680   17.0430 C.ar  111  PHE111     -0.0003
    112  CE2        9.5420  -13.4580   15.9890 C.ar  111  PHE111     -0.0003
    113  CZ        10.8090  -12.9220   15.9330 C.ar  111  PHE111     -0.0000
    114  N          3.5380   -9.2930   16.8780 N.3   113  ILE113     -0.1245
    115  CA         2.7920   -8.0840   17.1900 C.3   113  ILE113      0.1561
    116  C          1.3490   -8.2410   16.7500 C.2   113  ILE113      0.2260
    117  O          1.0690   -8.7180   15.6480 O.2   113  ILE113     -0.2867
    118  CB         3.4090   -6.8570   16.4970 C.3   113  ILE113      0.0252
    119  CG1        4.8550   -6.6770   16.9660 C.3   113  ILE113      0.0019
    120  CG2        2.5860   -5.5910   16.7890 C.3   113  ILE113      0.0019
    121  CD1        5.5930   -5.5750   16.2470 C.3   113  ILE113      0.0001
    122  N          2.6810   -9.5790    9.7640 N.3   118  TRP118     -0.1241
    123  CA         3.8300  -10.3930    9.3630 C.3   118  TRP118      0.1605
    124  C          3.9840  -11.5880   10.2810 C.2   118  TRP118      0.2264
    125  O          3.5870  -11.5460   11.4440 O.2   118  TRP118     -0.2867
    126  CB         5.1410   -9.5860    9.2540 C.3   118  TRP118      0.0550
    127  CG         5.5040   -8.7060   10.4280 C.ar  118  TRP118      0.0003
    128  CD1        5.3020   -7.3620   10.5300 C.ar  118  TRP118      0.0946
    129  CD2        6.1690   -9.1040   11.6390 C.ar  118  TRP118      0.0152
    130  NE1        5.7820   -6.9000   11.7300 N.ar  118  TRP118     -0.2442
    131  CE2        6.3170   -7.9490   12.4320 C.ar  118  TRP118      0.0810
    132  CE3        6.6450  -10.3250   12.1300 C.ar  118  TRP118      0.0012
    133  CZ2        6.9280   -7.9750   13.6910 C.ar  118  TRP118      0.0191
    134  CZ3        7.2510  -10.3530   13.3830 C.ar  118  TRP118      0.0001
    135  CH2        7.3840   -9.1850   14.1490 C.ar  118  TRP118      0.0015
    136  N         10.6640  -13.0740   10.4930 N.3   121  ILE121     -0.1245
    137  CA        11.6700  -12.0280   10.3520 C.3   121  ILE121      0.1561
    138  C         12.8300  -12.4940    9.4840 C.2   121  ILE121      0.2260
    139  O         13.3280  -13.6090    9.6250 O.2   121  ILE121     -0.2867
    140  CB        12.2140  -11.6040   11.7220 C.3   121  ILE121      0.0252
    141  CG1       11.1010  -10.9490   12.5450 C.3   121  ILE121      0.0019
    142  CG2       13.3960  -10.6550   11.5640 C.3   121  ILE121      0.0019
    143  CD1       11.5640  -10.4270   13.8970 C.3   121  ILE121      0.0001
    144  N         19.3440    0.0370   11.4750 N.3   224  ASP224     -0.1225
    145  CA        18.4130   -1.0320   11.8190 C.3   224  ASP224      0.1805
    146  C         16.9820   -0.7810   11.3550 C.2   224  ASP224      0.2598
    147  O         16.2290   -0.0640   12.0020 O.2   224  ASP224     -0.2718
    148  CB        18.4150   -1.2400   13.3300 C.3   224  ASP224      0.1424
    149  CG        17.5820   -2.4360   13.7560 C.2   224  ASP224      0.3668
    150  OD1       17.1590   -3.2280   12.8870 O.co2 224  ASP224     -0.2456
    151  OD2       17.3660   -2.5880   14.9690 O.co2 224  ASP224     -0.2456
    152  N         16.6110   -1.4030   10.2430 N.am  225  SER225     -0.1938
    153  CA        15.2580   -1.3230    9.7230 C.3   225  SER225      0.2055
    154  C         14.2630   -1.9790   10.6850 C.2   225  SER225      0.2644
    155  O         13.0610   -1.7580   10.5900 O.2   225  SER225     -0.2714
    156  CB        15.1940   -2.0070    8.3580 C.3   225  SER225      0.2130
    157  OG        15.4620   -3.4000    8.4750 O.3   225  SER225     -0.2179
    158  N         14.7730   -2.7830   11.6150 N.am  226  GLY226     -0.1939
    159  CA        13.9400   -3.4560   12.6080 C.3   226  GLY226      0.2014
    160  C         13.7830   -2.6600   13.8990 C.2   226  GLY226      0.2640
    161  O         13.3780   -3.2020   14.9300 O.2   226  GLY226     -0.2714
    162  N         14.1050   -1.3700   13.8430 N.am  227  THR227     -0.1936
    163  CA        13.8200   -0.4550   14.9420 C.3   227  THR227      0.2028
    164  C         13.0440    0.7260   14.3770 C.2   227  THR227      0.2642
    165  O         13.3850    1.2550   13.3240 O.2   227  THR227     -0.2714
    166  CB        15.1100    0.0620   15.6330 C.3   227  THR227      0.1808
    167  OG1       15.7720   -1.0200   16.2880 O.3   227  THR227     -0.2208
    168  CG2       14.7820    1.1270   16.6660 C.3   227  THR227      0.0379
    169  N         11.9900    1.1320   15.0640 N.am  228  THR228     -0.1950
    170  CA        11.1700    2.2250   14.5800 C.3   228  THR228      0.1897
    171  C         11.8580    3.5670   14.7860 C.2   228  THR228      0.2313
    172  O         11.9310    4.3830   13.8670 O.2   228  THR228     -0.2863
    173  CB         9.8090    2.2630   15.2990 C.3   228  THR228      0.1794
    174  OG1        9.0500    1.1110   14.9260 O.3   228  THR228     -0.2208
    175  CG2        9.0320    3.5140   14.9080 C.3   228  THR228      0.0378
    176  N         17.2290    5.9630   18.1080 N.3   231  ARG231     -0.1245
    177  CA        17.5870    5.7010   19.4970 C.3   231  ARG231      0.1563
    178  C         18.9950    6.2130   19.7610 C.2   231  ARG231      0.2260
    179  O         19.9030    5.9950   18.9600 O.2   231  ARG231     -0.2867
    180  CB        17.4680    4.2030   19.7980 C.3   231  ARG231      0.0307
    181  CG        16.0660    3.6530   19.5170 C.3   231  ARG231      0.0489
    182  CD        15.8750    2.2440   20.0570 C.3   231  ARG231      0.2205
    183  NE        15.9930    2.2230   21.5100 N.pl3 231  ARG231     -0.0865
    184  CZ        16.6500    1.2950   22.2020 C.cat 231  ARG231      0.5346
    185  NH1       17.2520    0.2830   21.5840 N.pl3 231  ARG231      0.1354
    186  NH2       16.7040    1.3810   23.5200 N.pl3 231  ARG231      0.1354
@<TRIPOS>BOND
     1    20    21    2
     2    20    19    1
     3    18    19    1
     4   156   157    1
     5   156   153    1
     6    26    27    1
     7    19    22    1
     8    17    16    2
     9   126   123    1
    10   126   127    1
    11    16    15    1
    12   123   122    1
    13   123   124    1
    14    28    29    2
    15    28    27    1
    16   138   139    2
    17   138   137    1
    18    27    30    1
    19   153   152    1
    20   153   154    1
    21    22    23    1
    22   152   146   am
    23   124   125    2
    24   137   136    1
    25   137   140    1
    26    24    23    1
    27   127   128   ar
    28   127   129   ar
    29   128   130   ar
    30    23    25    1
    31   155   154    2
    32   154   158   am
    33    30    31    1
    34    46    47    2
    35    46    45    1
    36    15    14    1
    37    41    40    2
    38   146   145    1
    39   146   147    2
    40   144   145    1
    41   142   140    1
    42    34    35    1
    43   158   159    1
    44   129   132   ar
    45   129   131   ar
    46    45    44    1
    47    45    48    1
    48    14     7   am
    49   140   141    1
    50   130   131   ar
    51   145   148    1
    52    31    32   ar
    53    31    33   ar
    54     8     7    2
    55    40    39    1
    56   132   134   ar
    57     7     6    1
    58   131   133   ar
    59   141   143    1
    60   159   160    1
    61    38    39    1
    62    38    36   am
    63     1     2    1
    64   150   149   ar
    65    43    42    1
    66    35    36    1
    67    48    49    1
    68    39    42    1
    69     5     6    1
    70     5     3   am
    71   165   164    2
    72     9     6    1
    73     9    10    1
    74   148   149    1
    75   134   135   ar
    76    12    11    2
    77    51    49   am
    78    36    37    2
    79   133   135   ar
    80    49    50    2
    81   149   151   ar
    82   162   160   am
    83   162   163    1
    84   172   171    2
    85   160   161    2
    86     2     3    1
    87     3     4    2
    88   164   163    1
    89   164   169   am
    90    11    10    1
    91    11    13   am
    92   170   171    1
    93   170   169    1
    94   170   173    1
    95   175   173    1
    96   174   173    1
    97   163   166    1
    98   166   167    1
    99   166   168    1
   100   117   116    2
   101   113   112   ar
   102   113   111   ar
   103   112   110   ar
   104   121   119    1
   105    93    91   ar
   106    93    92   ar
   107   118   120    1
   108   118   119    1
   109   118   115    1
   110    91    89   ar
   111    92    90   ar
   112   116   115    1
   113   114   115    1
   114   111   109   ar
   115   110   108   ar
   116    89    87   ar
   117    89    88   ar
   118    90    87   ar
   119    87    85   ar
   120   106   105    2
   121    88    86   ar
   122   176   177    1
   123   109   108   ar
   124   108   107    1
   125   105   104    1
   126    85    86   ar
   127    85    84    1
   128   179   178    2
   129    84    81    1
   130   177   178    1
   131   177   180    1
   132    58    56    1
   133   181   180    1
   134   181   182    1
   135   107   104    1
   136   104   103    1
   137   182   183    1
   138    57    56    1
   139    56    53    1
   140    81    82    1
   141    81    80    1
   142    82    83    2
   143   103    96   am
   144    70    69    1
   145    69    68   ar
   146    69    67   ar
   147   183   184    2
   148    68    66   ar
   149   185   184    1
   150    97    96    2
   151    96    95    1
   152    67    65   ar
   153    53    52    1
   154    53    54    1
   155    66    64   ar
   156   184   186    1
   157    65    64   ar
   158    55    54    2
   159    64    63    1
   160    63    60    1
   161    95    94    1
   162    95    98    1
   163    75    76    1
   164    75    72    1
   165    76    77    1
   166    98    99    1
   167    60    59    1
   168    60    61    1
   169    99   100    1
   170    61    62    2
   171    71    72    1
   172    73    72    1
   173    73    74    2
   174    77    78    2
   175    77    79   am
   176   100   101    1
   177   101   102    1
