@<TRIPOS>MOLECULE
tmp/3lhhA00.pdb
 114 112 0 0 0
SMALL
GASTEIGER

@<TRIPOS>ATOM
      1  N         29.2930   23.4400   50.5730 N.3     6  VAL6       -0.1245
      2  CA        29.0050   22.0180   50.4100 C.3     6  VAL6        0.1561
      3  C         29.0430   21.7180   48.9010 C.2     6  VAL6        0.2260
      4  O         28.1760   22.1780   48.1680 O.2     6  VAL6       -0.2867
      5  CB        27.6160   21.6430   50.9570 C.3     6  VAL6        0.0252
      6  CG1       27.2730   20.1920   50.6050 C.3     6  VAL6        0.0019
      7  CG2       27.5290   21.8800   52.4760 C.3     6  VAL6        0.0019
      8  N         28.3370   16.3760   47.3820 N.3    10  ASP10      -0.1225
      9  CA        27.9330   16.0910   48.7580 C.3    10  ASP10       0.1805
     10  C         26.4940   16.5180   49.0480 C.2    10  ASP10       0.2598
     11  O         26.0060   16.2950   50.1520 O.2    10  ASP10      -0.2718
     12  CB        28.8700   16.7800   49.7660 C.3    10  ASP10       0.1424
     13  CG        30.2910   16.2060   49.7580 C.2    10  ASP10       0.3668
     14  OD1       30.5770   15.2870   48.9620 O.co2  10  ASP10      -0.2456
     15  OD2       31.1260   16.6790   50.5630 O.co2  10  ASP10      -0.2456
     16  N         25.8220   17.1490   48.0810 N.am   11  ILE11      -0.1966
     17  CA        24.4520   17.6090   48.3010 C.3    11  ILE11       0.1727
     18  C         23.4420   16.4740   48.3460 C.2    11  ILE11       0.2616
     19  O         23.3660   15.6730   47.4230 O.2    11  ILE11      -0.2715
     20  CB        23.9740   18.6020   47.2200 C.3    11  ILE11       0.0290
     21  CG1       24.7750   19.9070   47.2810 C.3    11  ILE11       0.0022
     22  CG2       22.4950   18.8880   47.4030 C.3    11  ILE11       0.0023
     23  CD1       24.3090   20.9560   46.2820 C.3    11  ILE11       0.0001
     24  N         22.6440   16.4220   49.4110 N.am   12  VAL12      -0.1977
     25  CA        21.5850   15.4230   49.5200 C.3    12  VAL12       0.1596
     26  C         20.2900   16.0820   49.1030 C.2    12  VAL12       0.2287
     27  O         19.9060   17.0890   49.6910 O.2    12  VAL12      -0.2864
     28  CB        21.4470   14.9160   50.9770 C.3    12  VAL12       0.0276
     29  CG1       20.2820   13.9630   51.1000 C.3    12  VAL12       0.0022
     30  CG2       22.7470   14.2630   51.4410 C.3    12  VAL12       0.0022
     31  N         20.1470   13.2600   58.4850 N.3    30  PRO30      -0.2102
     32  CA        19.8630   14.1660   59.6120 C.3    30  PRO30       0.1504
     33  C         19.4430   15.5890   59.1710 C.2    30  PRO30       0.2576
     34  O         18.9330   16.3390   59.9970 O.2    30  PRO30      -0.2718
     35  CB        21.2110   14.2610   60.3450 C.3    30  PRO30       0.0282
     36  CG        22.2580   13.7020   59.3690 C.3    30  PRO30       0.0208
     37  CD        21.5590   13.3270   58.0820 C.3    30  PRO30       0.0893
     38  N         19.6650   15.9620   57.9140 N.am   31  HIS31      -0.1962
     39  CA        19.4550   17.3640   57.4840 C.3    31  HIS31       0.1787
     40  C         18.0470   17.9210   57.6590 C.2    31  HIS31       0.2621
     41  O         17.0750   17.2310   57.4180 O.2    31  HIS31      -0.2715
     42  CB        19.8940   17.5640   56.0360 C.3    31  HIS31       0.0785
     43  CG        21.2990   17.1260   55.7850 C.ar   31  HIS31       0.0821
     44  ND1       22.3450   17.4970   56.6080 N.ar   31  HIS31      -0.2267
     45  CD2       21.8340   16.3460   54.8150 C.ar   31  HIS31       0.1154
     46  CE1       23.4650   16.9660   56.1480 C.ar   31  HIS31       0.1986
     47  NE2       23.1830   16.2660   55.0610 N.ar   31  HIS31      -0.2212
     48  N         17.9490   19.1880   58.0570 N.am   32  SER32      -0.1936
     49  CA        16.6500   19.8290   58.2380 C.3    32  SER32       0.2055
     50  C         16.0090   20.2790   56.9360 C.2    32  SER32       0.2643
     51  O         14.7850   20.3790   56.8420 O.2    32  SER32      -0.2714
     52  CB        16.7750   21.0650   59.1660 C.3    32  SER32       0.2130
     53  OG        17.3010   20.6910   60.4180 O.3    32  SER32      -0.2179
     54  N         16.8310   20.6090   55.9480 N.am   33  ARG33      -0.1963
     55  CA        16.3120   21.1160   54.6820 C.3    33  ARG33       0.1729
     56  C         16.9650   20.4210   53.4860 C.2    33  ARG33       0.2616
     57  O         18.1400   20.0900   53.5160 O.2    33  ARG33      -0.2715
     58  CB        16.4960   22.6420   54.5820 C.3    33  ARG33       0.0348
     59  CG        16.0910   23.4120   55.8430 C.3    33  ARG33       0.0492
     60  CD        15.9110   24.9130   55.5900 C.3    33  ARG33       0.2205
     61  NE        14.5720   25.2110   55.0880 N.pl3  33  ARG33      -0.0865
     62  CZ        13.4710   25.1750   55.8350 C.cat  33  ARG33       0.5346
     63  NH1       13.5410   24.8570   57.1250 N.pl3  33  ARG33       0.1354
     64  NH2       12.2950   25.4480   55.2890 N.pl3  33  ARG33       0.1354
     65  N         16.1830   20.2050   52.4340 N.am   34  PHE34      -0.1960
     66  CA        16.6830   19.5180   51.2420 C.3    34  PHE34       0.1756
     67  C         16.3810   20.3100   49.9890 C.2    34  PHE34       0.2461
     68  O         15.2310   20.6630   49.7540 O.2    34  PHE34      -0.2730
     69  CB        16.0300   18.1450   51.1240 C.3    34  PHE34       0.0574
     70  CG        16.3930   17.2150   52.2480 C.ar   34  PHE34      -0.0200
     71  CD1       17.4600   16.3510   52.1190 C.ar   34  PHE34      -0.0042
     72  CD2       15.6820   17.2240   53.4400 C.ar   34  PHE34      -0.0042
     73  CE1       17.8050   15.4680   53.1650 C.ar   34  PHE34      -0.0003
     74  CE2       16.0270   16.3600   54.4880 C.ar   34  PHE34      -0.0003
     75  CZ        17.0900   15.4880   54.3430 C.ar   34  PHE34      -0.0000
     76  N         17.4170   20.5760   49.1740 N.am   35  PRO35      -0.2727
     77  CA        17.2110   21.0840   47.8210 C.3    35  PRO35       0.1402
     78  C         16.3570   20.0880   47.0570 C.2    35  PRO35       0.2269
     79  O         16.4860   18.8780   47.2610 O.2    35  PRO35      -0.2865
     80  CB        18.6270   21.1120   47.2340 C.3    35  PRO35       0.0296
     81  CG        19.5650   21.0330   48.4690 C.3    35  PRO35       0.0237
     82  CD        18.8190   20.2060   49.4320 C.3    35  PRO35       0.0939
     83  N         26.4270   24.3780   47.5920 N.3   105  LEU105     -0.1245
     84  CA        25.5380   25.2070   48.3840 C.3   105  LEU105      0.1561
     85  C         26.2340   25.7030   49.6310 C.2   105  LEU105      0.2260
     86  O         27.1910   25.0880   50.1100 O.2   105  LEU105     -0.2867
     87  CB        24.2390   24.4690   48.7380 C.3   105  LEU105      0.0270
     88  CG        24.2920   23.2280   49.6190 C.3   105  LEU105      0.0019
     89  CD1       24.4360   23.5720   51.0890 C.3   105  LEU105      0.0001
     90  CD2       23.0140   22.4370   49.3880 C.3   105  LEU105      0.0001
     91  N         25.3100   27.1230   53.6390 N.3   107  THR107     -0.1218
     92  CA        24.3040   27.3200   54.6720 C.3   107  THR107      0.1862
     93  C         24.6620   28.4690   55.6300 C.2   107  THR107      0.2287
     94  O         25.8270   28.7790   55.8650 O.2   107  THR107     -0.2866
     95  CB        24.0660   26.0420   55.5060 C.3   107  THR107      0.1770
     96  OG1       25.2230   25.7700   56.3060 O.3   107  THR107     -0.2211
     97  CG2       23.7760   24.8460   54.6050 C.3   107  THR107      0.0375
     98  N         24.2850   28.3130   58.7640 N.3   109  GLN109     -0.1231
     99  CA        24.9730   27.5990   59.8370 C.3   109  GLN109      0.1698
    100  C         26.4710   27.5450   59.5820 C.2   109  GLN109      0.2592
    101  O         27.2800   27.8560   60.4520 O.2   109  GLN109     -0.2718
    102  CB        24.4240   26.1760   59.9560 C.3   109  GLN109      0.0381
    103  CG        23.7440   25.8610   61.2820 C.3   109  GLN109      0.0905
    104  CD        24.5330   24.8810   62.1460 C.2   109  GLN109      0.2608
    105  OE1       24.5950   23.6810   61.8570 O.2   109  GLN109     -0.2717
    106  NE2       25.1280   25.3920   63.2220 N.am  109  GLN109     -0.0878
    107  N         26.8390   27.1240   58.3760 N.am  110  ASP110     -0.1974
    108  CA        28.2450   27.0250   58.0220 C.3   110  ASP110      0.1709
    109  C         28.9010   28.3890   57.9880 C.2   110  ASP110      0.2293
    110  O         30.0710   28.5360   58.3210 O.2   110  ASP110     -0.2864
    111  CB        28.4100   26.3180   56.6760 C.3   110  ASP110      0.1436
    112  CG        28.1840   24.8220   56.7840 C.2   110  ASP110      0.3671
    113  OD1       28.1260   24.3250   57.9280 O.co2 110  ASP110     -0.2456
    114  OD2       28.0640   24.1460   55.7350 O.co2 110  ASP110     -0.2456
@<TRIPOS>BOND
     1    23    21    1
     2    78    79    2
     3    78    77    1
     4    20    21    1
     5    20    22    1
     6    20    17    1
     7    80    77    1
     8    80    81    1
     9     8     9    1
    10    19    18    2
    11    83    84    1
    12    77    76    1
    13    16    17    1
    14    16    10   am
    15     4     3    2
    16    17    18    1
    17    18    24   am
    18    84    87    1
    19    84    85    1
    20    81    82    1
    21    87    88    1
    22     9    10    1
    23     9    12    1
    24     3     2    1
    25    14    13   ar
    26    10    11    2
    27    26    25    1
    28    26    27    2
    29    76    82    1
    30    76    67   am
    31    90    88    1
    32    24    25    1
    33    25    28    1
    34    88    89    1
    35    85    86    2
    36    68    67    2
    37    13    12    1
    38    13    15   ar
    39    67    66    1
    40     2     1    1
    41     2     5    1
    42     6     5    1
    43     5     7    1
    44    28    29    1
    45    28    30    1
    46    69    66    1
    47    69    70    1
    48    66    65    1
    49    71    70   ar
    50    71    73   ar
    51    70    72   ar
    52    65    56   am
    53    73    75   ar
    54    72    74   ar
    55    56    57    2
    56    56    55    1
    57    91    92    1
    58    75    74   ar
    59    58    55    1
    60    58    59    1
    61    97    95    1
    62    92    95    1
    63    92    93    1
    64    55    54    1
    65    45    47   ar
    66    45    43   ar
    67    47    46   ar
    68    61    60    1
    69    61    62    2
    70    64    62    1
    71    95    96    1
    72    60    59    1
    73    93    94    2
    74   114   112   ar
    75    43    42    1
    76    43    44   ar
    77    62    63    1
    78    54    50   am
    79    42    39    1
    80    46    44   ar
    81   111   112    1
    82   111   108    1
    83   112   113   ar
    84    51    50    2
    85    50    49    1
    86    41    40    2
    87    39    40    1
    88    39    38    1
    89    40    48   am
    90    38    33   am
    91   109   108    1
    92   109   110    2
    93   108   107    1
    94    48    49    1
    95    37    31    1
    96    37    36    1
    97    49    52    1
    98   107   100   am
    99    31    32    1
   100    98    99    1
   101    52    53    1
   102    33    32    1
   103    33    34    2
   104    36    35    1
   105   100    99    1
   106   100   101    2
   107    32    35    1
   108    99   102    1
   109   102   103    1
   110   103   104    1
   111   105   104    2
   112   104   106   am
