@<TRIPOS>MOLECULE
tmp/3lhjA00.pdb
 182 170 0 0 0
SMALL
GASTEIGER

@<TRIPOS>ATOM
      1  N          0.7990    9.2230   38.1840 N.3    26  VAL26      -0.1245
      2  CA         1.8970    9.2410   37.2040 C.3    26  VAL26       0.1561
      3  C          2.5210   10.6280   36.9750 C.2    26  VAL26       0.2260
      4  O          3.6750   10.7220   36.5630 O.2    26  VAL26      -0.2867
      5  CB         1.5120    8.5720   35.8440 C.3    26  VAL26       0.0252
      6  CG1        1.2030    7.0940   36.0340 C.3    26  VAL26       0.0019
      7  CG2        0.3440    9.2780   35.1850 C.3    26  VAL26       0.0019
      8  N          1.9200   14.7970   35.5260 N.3    28  SER28      -0.1202
      9  CA         1.2460   15.9360   34.8890 C.3    28  SER28       0.2020
     10  C          0.3950   15.5600   33.6820 C.2    28  SER28       0.2619
     11  O          0.6780   14.5900   32.9770 O.2    28  SER28      -0.2717
     12  CB         2.2690   16.9920   34.4610 C.3    28  SER28       0.2103
     13  OG         2.8690   17.5920   35.5890 O.3    28  SER28      -0.2182
     14  N         -0.6490   16.3490   33.4590 N.am   29  GLY29      -0.1942
     15  CA        -1.4520   16.2680   32.2490 C.3    29  GLY29       0.2014
     16  C         -1.7940   17.6710   31.7880 C.2    29  GLY29       0.2638
     17  O         -1.2460   18.6500   32.3040 O.2    29  GLY29      -0.2714
     18  N         -2.6910   17.7750   30.8130 N.am   30  ALA30      -0.1977
     19  CA        -3.1990   19.0710   30.3850 C.3    30  ALA30       0.1597
     20  C         -4.3680   19.4820   31.2800 C.2    30  ALA30       0.2287
     21  O         -5.4730   18.9350   31.1720 O.2    30  ALA30      -0.2864
     22  CB        -3.6090   19.0400   28.9190 C.3    30  ALA30       0.0319
     23  N         -2.9350   13.0050   36.5240 N.3    34  VAL34      -0.1245
     24  CA        -3.2590   11.7100   35.9180 C.3    34  VAL34       0.1561
     25  C         -2.8590   10.5300   36.8040 C.2    34  VAL34       0.2260
     26  O         -1.8060   10.5420   37.4350 O.2    34  VAL34      -0.2867
     27  CB        -2.6320   11.5660   34.4960 C.3    34  VAL34       0.0252
     28  CG1       -3.0020   10.2420   33.8560 C.3    34  VAL34       0.0019
     29  CG2       -3.0890   12.6930   33.5940 C.3    34  VAL34       0.0019
     30  N         -5.0620    5.3130   31.5200 N.3    47  ALA47      -0.1245
     31  CA        -4.7470    6.5620   32.2060 C.3    47  ALA47       0.1562
     32  C         -6.0280    7.3610   32.4360 C.2    47  ALA47       0.2260
     33  O         -6.8180    7.5690   31.5100 O.2    47  ALA47      -0.2867
     34  CB        -3.7430    7.3770   31.4070 C.3    47  ALA47       0.0290
     35  N         -7.4140   10.9940   33.7710 N.3    49  LYS49      -0.1245
     36  CA        -7.1290   12.3860   34.1160 C.3    49  LYS49       0.1561
     37  C         -8.3140   13.0040   34.8490 C.2    49  LYS49       0.2260
     38  O         -9.4340   13.0150   34.3300 O.2    49  LYS49      -0.2867
     39  CB        -6.8140   13.2000   32.8550 C.3    49  LYS49       0.0271
     40  CG        -6.6510   14.7040   33.0790 C.3    49  LYS49       0.0035
     41  CD        -6.7190   15.4900   31.7700 C.3    49  LYS49       0.0206
     42  CE        -5.3730   15.5350   31.0650 C.3    49  LYS49       0.1093
     43  NZ        -5.4450   16.2140   29.7430 N.3    49  LYS49      -0.1314
     44  N        -11.7990   20.1250   25.3940 N.3    67  GLU67      -0.1245
     45  CA       -10.9880   18.9170   25.5410 C.3    67  GLU67       0.1567
     46  C        -11.7940   17.6370   25.3570 C.2    67  GLU67       0.2260
     47  O        -11.3290   16.6960   24.7180 O.2    67  GLU67      -0.2867
     48  CB       -10.2960   18.9130   26.9050 C.3    67  GLU67       0.0388
     49  CG        -9.3620   17.7330   27.1310 C.3    67  GLU67       0.1160
     50  CD        -8.4790   17.9020   28.3520 C.2    67  GLU67       0.3649
     51  OE1       -8.8450   18.6830   29.2610 O.co2  67  GLU67      -0.2457
     52  OE2       -7.4150   17.2470   28.4020 O.co2  67  GLU67      -0.2457
     53  N        -12.9120   17.0950   21.5890 N.3    70  LEU70      -0.1231
     54  CA       -11.7790   16.6060   20.8040 C.3    70  LEU70       0.1693
     55  C        -11.6630   15.0890   20.8960 C.2    70  LEU70       0.2591
     56  O        -11.6800   14.3940   19.8830 O.2    70  LEU70      -0.2718
     57  CB       -10.4830   17.2470   21.3130 C.3    70  LEU70       0.0284
     58  CG        -9.7840   18.4200   20.6180 C.3    70  LEU70       0.0019
     59  CD1      -10.6660   19.1610   19.6500 C.3    70  LEU70       0.0001
     60  CD2       -9.2400   19.3630   21.6650 C.3    70  LEU70       0.0001
     61  N        -11.5570   14.5870   22.1230 N.am   71  LEU71      -0.1980
     62  CA       -11.3390   13.1660   22.3790 C.3    71  LEU71       0.1596
     63  C        -12.4780   12.2750   21.8740 C.2    71  LEU71       0.2287
     64  O        -12.2240   11.1990   21.3240 O.2    71  LEU71      -0.2864
     65  CB       -11.0910   12.9270   23.8710 C.3    71  LEU71       0.0297
     66  CG        -9.9010   13.6420   24.5190 C.3    71  LEU71       0.0022
     67  CD1      -10.0520   13.6820   26.0330 C.3    71  LEU71       0.0001
     68  CD2       -8.5870   12.9950   24.1300 C.3    71  LEU71       0.0001
     69  N         -4.5660    9.8830   20.7360 N.3    80  ILE80      -0.1245
     70  CA        -5.2470    9.5770   21.9900 C.3    80  ILE80       0.1561
     71  C         -6.7580    9.7540   21.8210 C.2    80  ILE80       0.2260
     72  O         -7.2310   10.8110   21.4200 O.2    80  ILE80      -0.2867
     73  CB        -4.6570   10.3640   23.2180 C.3    80  ILE80       0.0252
     74  CG1       -5.0200    9.6780   24.5390 C.3    80  ILE80       0.0019
     75  CG2       -5.0520   11.8400   23.2290 C.3    80  ILE80       0.0019
     76  CD1       -4.1350    8.4870   24.8830 C.3    80  ILE80       0.0001
     77  N        -11.6030   11.9520   32.7210 N.3   100  LEU100     -0.1245
     78  CA       -11.4410   11.4250   31.3660 C.3   100  LEU100      0.1561
     79  C        -10.5690   10.1810   31.4240 C.2   100  LEU100      0.2260
     80  O         -9.6080   10.1430   32.1910 O.2   100  LEU100     -0.2867
     81  CB       -10.7820   12.4700   30.4600 C.3   100  LEU100      0.0270
     82  CG       -11.3820   13.8740   30.3370 C.3   100  LEU100      0.0019
     83  CD1      -10.2910   14.8690   30.0050 C.3   100  LEU100      0.0001
     84  CD2      -12.4800   13.9160   29.2900 C.3   100  LEU100      0.0001
     85  N         -8.3970    7.3460   29.0590 N.3   102  THR102     -0.1203
     86  CA        -7.8140    6.9640   27.7670 C.3   102  THR102      0.1994
     87  C         -6.8100    5.8230   27.9380 C.2   102  THR102      0.2618
     88  O         -6.5490    5.3960   29.0640 O.2   102  THR102     -0.2717
     89  CB        -7.0950    8.1480   27.0900 C.3   102  THR102      0.1784
     90  OG1       -5.9840    8.5540   27.8950 O.3   102  THR102     -0.2211
     91  CG2       -8.0310    9.3360   26.8890 C.3   102  THR102      0.0376
     92  N         -6.2440    5.3410   26.8280 N.am  103  HIS103     -0.1961
     93  CA        -5.2210    4.2860   26.8610 C.3   103  HIS103      0.1787
     94  C         -3.9410    4.7020   27.6010 C.2   103  HIS103      0.2620
     95  O         -3.6680    5.8970   27.7550 O.2   103  HIS103     -0.2715
     96  CB        -4.7860    3.9000   25.4430 C.3   103  HIS103      0.0785
     97  CG        -5.6620    2.8770   24.7850 C.ar  103  HIS103      0.0821
     98  ND1       -5.9930    1.6790   25.3820 N.ar  103  HIS103     -0.2267
     99  CD2       -6.2410    2.8570   23.5610 C.ar  103  HIS103      0.1154
    100  CE1       -6.7550    0.9760   24.5640 C.ar  103  HIS103      0.1986
    101  NE2       -6.9200    1.6680   23.4520 N.ar  103  HIS103     -0.2212
    102  N         -3.1660    3.7110   28.0510 N.am  104  LEU104     -0.1963
    103  CA        -1.9640    3.9540   28.8590 C.3   104  LEU104      0.1728
    104  C         -0.6930    3.5610   28.1150 C.2   104  LEU104      0.2616
    105  O         -0.6590    2.5510   27.4030 O.2   104  LEU104     -0.2715
    106  CB        -2.0450    3.2000   30.1920 C.3   104  LEU104      0.0311
    107  CG        -0.9440    3.3830   31.2390 C.3   104  LEU104      0.0022
    108  CD1       -1.1600    4.6550   32.0300 C.3   104  LEU104      0.0001
    109  CD2       -0.8910    2.1810   32.1700 C.3   104  LEU104      0.0001
    110  N          0.3470    4.3720   28.3000 N.am  105  MET105     -0.1963
    111  CA         1.6470    4.1590   27.6730 C.3   105  MET105      0.1736
    112  C          2.7630    4.2590   28.7130 C.2   105  MET105      0.2617
    113  O          2.5370    4.7380   29.8240 O.2   105  MET105     -0.2715
    114  CB         1.8700    5.1820   26.5590 C.3   105  MET105      0.0427
    115  CG         0.6630    5.4050   25.6550 C.3   105  MET105      0.0599
    116  SD         0.2390    3.9850   24.6360 S.3   105  MET105     -0.1393
    117  CE         1.3650    4.1950   23.2620 C.3   105  MET105      0.0692
    118  N          3.9620    3.8110   28.3430 N.am  106  GLY106     -0.1940
    119  CA         5.0980    3.7360   29.2660 C.3   106  GLY106      0.2014
    120  C          5.7050    5.0760   29.6390 C.2   106  GLY106      0.2639
    121  O          5.9660    5.3400   30.8140 O.2   106  GLY106     -0.2714
    122  N          5.9450    5.9130   28.6310 N.am  107  ALA107     -0.1963
    123  CA         6.4860    7.2690   28.8110 C.3   107  ALA107      0.1728
    124  C          6.3670    8.0510   27.5000 C.2   107  ALA107      0.2616
    125  O          5.9350    7.5000   26.4870 O.2   107  ALA107     -0.2715
    126  CB         7.9460    7.2170   29.2790 C.3   107  ALA107      0.0334
    127  N          6.7270    9.3320   27.5230 N.am  108  ASP108     -0.1971
    128  CA         6.8430   10.1200   26.2920 C.3   108  ASP108      0.1709
    129  C          8.3010   10.1840   25.8470 C.2   108  ASP108      0.2293
    130  O          9.1890    9.7990   26.6020 O.2   108  ASP108     -0.2864
    131  CB         6.2440   11.5240   26.4640 C.3   108  ASP108      0.1436
    132  CG         6.6520   12.1960   27.7710 C.2   108  ASP108      0.3671
    133  OD1        7.8650   12.3580   28.0280 O.co2 108  ASP108     -0.2456
    134  OD2        5.7420   12.5850   28.5360 O.co2 108  ASP108     -0.2456
    135  N         11.4700   10.9050   28.1810 N.3   111  ASN111     -0.1240
    136  CA        12.0240    9.9610   29.1480 C.3   111  ASN111      0.1653
    137  C         12.7270    8.7530   28.5160 C.2   111  ASN111      0.2266
    138  O         13.1280    7.8310   29.2260 O.2   111  ASN111     -0.2867
    139  CB        10.9500    9.5340   30.1640 C.3   111  ASN111      0.1155
    140  CG        10.0360   10.6820   30.5920 C.2   111  ASN111      0.2627
    141  OD1        8.8250   10.5050   30.7050 O.2   111  ASN111     -0.2716
    142  ND2       10.6110   11.8520   30.8370 N.am  111  ASN111     -0.0877
    143  N          3.2980    9.9610   23.5690 N.3   153  ALA153     -0.1245
    144  CA         3.3610    8.7990   24.4550 C.3   153  ALA153      0.1562
    145  C          3.7650    7.5480   23.6920 C.2   153  ALA153      0.2260
    146  O          3.3630    7.3610   22.5440 O.2   153  ALA153     -0.2867
    147  CB         2.0440    8.5920   25.1390 C.3   153  ALA153      0.0290
    148  N         -0.7110   13.2410   22.2060 N.3   163  LEU163     -0.1231
    149  CA        -1.5030   13.8970   23.2570 C.3   163  LEU163      0.1693
    150  C         -1.5490   15.4150   23.0870 C.2   163  LEU163      0.2592
    151  O         -0.7370   15.9820   22.3590 O.2   163  LEU163     -0.2718
    152  CB        -0.9340   13.5840   24.6460 C.3   163  LEU163      0.0284
    153  CG        -0.3240   12.2320   25.0120 C.3   163  LEU163      0.0019
    154  CD1        0.0650   12.2670   26.4750 C.3   163  LEU163      0.0001
    155  CD2       -1.2700   11.0830   24.7420 C.3   163  LEU163      0.0001
    156  N         -2.5030   16.0570   23.7660 N.am  164  ASP164     -0.1960
    157  CA        -2.5770   17.5260   23.8950 C.3   164  ASP164      0.1840
    158  C         -2.7810   18.3140   22.5900 C.2   164  ASP164      0.2622
    159  O         -2.3430   19.4620   22.4830 O.2   164  ASP164     -0.2715
    160  CB        -1.3490   18.0830   24.6430 C.3   164  ASP164      0.1450
    161  CG        -1.1470   17.4530   26.0170 C.2   164  ASP164      0.3671
    162  OD1       -2.1270   16.9570   26.6160 O.co2 164  ASP164     -0.2456
    163  OD2        0.0070   17.4660   26.5020 O.co2 164  ASP164     -0.2456
    164  N         -3.4460   17.7080   21.6110 N.am  165  PHE165     -0.1974
    165  CA        -3.7420   18.3840   20.3430 C.3   165  PHE165      0.1639
    166  C         -4.9480   19.3090   20.4680 C.2   165  PHE165      0.2290
    167  O         -5.8260   19.0860   21.2980 O.2   165  PHE165     -0.2864
    168  CB        -3.9660   17.3660   19.2170 C.3   165  PHE165      0.0560
    169  CG        -4.8510   16.2230   19.6070 C.ar  165  PHE165     -0.0200
    170  CD1       -6.2320   16.3310   19.5130 C.ar  165  PHE165     -0.0042
    171  CD2       -4.3040   15.0410   20.0850 C.ar  165  PHE165     -0.0042
    172  CE1       -7.0490   15.2830   19.8870 C.ar  165  PHE165     -0.0003
    173  CE2       -5.1150   13.9920   20.4620 C.ar  165  PHE165     -0.0003
    174  CZ        -6.4910   14.1130   20.3610 C.ar  165  PHE165     -0.0000
    175  N         -5.2510   22.2250   21.6660 N.3   167  LEU167     -0.1245
    176  CA        -5.3170   23.0100   22.8930 C.3   167  LEU167      0.1561
    177  C         -4.4220   24.2420   22.8080 C.2   167  LEU167      0.2260
    178  O         -4.8490   25.3000   22.3460 O.2   167  LEU167     -0.2867
    179  CB        -4.9200   22.1550   24.0980 C.3   167  LEU167      0.0270
    180  CG        -6.0690   21.5350   24.8960 C.3   167  LEU167      0.0019
    181  CD1       -7.3740   21.6280   24.1210 C.3   167  LEU167      0.0001
    182  CD2       -5.7560   20.0910   25.2570 C.3   167  LEU167      0.0001
@<TRIPOS>BOND
     1   168   169    1
     2   168   165    1
     3   170   169   ar
     4   170   172   ar
     5   169   171   ar
     6    59    58    1
     7    56    55    2
     8   172   174   ar
     9   171   173   ar
    10   165   166    1
    11   165   164    1
    12   174   173   ar
    13   166   167    2
    14    58    57    1
    15    58    60    1
    16    69    70    1
    17    54    55    1
    18    54    57    1
    19    54    53    1
    20    55    61   am
    21    64    63    2
    22    72    71    2
    23   164   158   am
    24   175   176    1
    25    71    70    1
    26    63    62    1
    27    70    73    1
    28    61    62    1
    29   148   149    1
    30   178   177    2
    31   151   150    2
    32    62    65    1
    33   159   158    2
    34   146   145    2
    35   158   157    1
    36   177   176    1
    37   176   179    1
    38   150   149    1
    39   150   156   am
    40    73    75    1
    41    73    74    1
    42   149   152    1
    43   117   116    1
    44   101    99   ar
    45   101   100   ar
    46    99    97   ar
    47   143   144    1
    48   145   144    1
    49   156   157    1
    50    65    66    1
    51   157   160    1
    52   179   180    1
    53   181   180    1
    54    68    66    1
    55   144   147    1
    56    66    67    1
    57    74    76    1
    58   100    98   ar
    59   116   115    1
    60   160   161    1
    61   152   153    1
    62    47    46    2
    63   155   153    1
    64    97    98   ar
    65    97    96    1
    66   180   182    1
    67   153   154    1
    68    46    45    1
    69    44    45    1
    70    96    93    1
    71    45    48    1
    72   115   114    1
    73   129   128    1
    74   129   130    2
    75   161   163   ar
    76   161   162   ar
    77   128   131    1
    78   128   127    1
    79   131   132    1
    80   125   124    2
    81   114   111    1
    82    92    93    1
    83    92    87   am
    84    93    94    1
    85    91    89    1
    86    48    49    1
    87    89    86    1
    88    89    90    1
    89    49    50    1
    90   105   104    2
    91   124   127   am
    92   124   123    1
    93    94    95    2
    94    94   102   am
    95   111   110    1
    96   111   112    1
    97    86    87    1
    98    86    85    1
    99   132   133   ar
   100   132   134   ar
   101    87    88    2
   102   102   103    1
   103   104   110   am
   104   104   103    1
   105   135   136    1
   106   118   112   am
   107   118   119    1
   108    50    52   ar
   109    50    51   ar
   110   137   136    1
   111   137   138    2
   112   122   123    1
   113   122   120   am
   114   112   113    2
   115   123   126    1
   116   103   106    1
   117    22    19    1
   118   136   139    1
   119   119   120    1
   120    84    82    1
   121   120   121    2
   122    43    42    1
   123    83    82    1
   124   139   140    1
   125   106   107    1
   126    82    81    1
   127    19    18    1
   128    19    20    1
   129    81    78    1
   130   140   141    2
   131   140   142   am
   132    18    16   am
   133    42    41    1
   134    21    20    2
   135   107   108    1
   136   107   109    1
   137    78    79    1
   138    78    77    1
   139    34    31    1
   140    79    80    2
   141    33    32    2
   142    30    31    1
   143    41    40    1
   144    16    15    1
   145    16    17    2
   146    31    32    1
   147    15    14    1
   148    39    40    1
   149    39    36    1
   150    11    10    2
   151    14    10   am
   152    29    27    1
   153    10     9    1
   154    35    36    1
   155    28    27    1
   156    36    37    1
   157    38    37    2
   158    12     9    1
   159    12    13    1
   160    27    24    1
   161     9     8    1
   162     7     5    1
   163     5     6    1
   164     5     2    1
   165    24    23    1
   166    24    25    1
   167     4     3    2
   168    25    26    2
   169     3     2    1
   170     2     1    1
