@<TRIPOS>MOLECULE
tmp/3lhlA00.pdb
 84 77 0 0 0
SMALL
GASTEIGER

@<TRIPOS>ATOM
      1  N         29.2510   50.8540   26.9330 N.3     9  VAL9       -0.1231
      2  CA        29.3220   49.4750   27.3980 C.3     9  VAL9        0.1692
      3  C         28.9400   49.3940   28.8680 C.2     9  VAL9        0.2592
      4  O         29.4700   50.1370   29.6940 O.2     9  VAL9       -0.2718
      5  CB        30.7580   48.9210   27.2630 C.3     9  VAL9        0.0266
      6  CG1       30.7950   47.4680   27.6830 C.3     9  VAL9        0.0020
      7  CG2       31.2570   49.1000   25.8390 C.3     9  VAL9        0.0020
      8  N         28.0230   48.4920   29.1980 N.am   10  PHE10      -0.1962
      9  CA        27.6140   48.3350   30.5860 C.3    10  PHE10       0.1771
     10  C         27.2930   46.8780   30.8670 C.2    10  PHE10       0.2620
     11  O         26.9240   46.1200   29.9640 O.2    10  PHE10      -0.2715
     12  CB        26.4190   49.2550   30.9150 C.3    10  PHE10       0.0574
     13  CG        25.1430   48.8980   30.2040 C.ar   10  PHE10      -0.0200
     14  CD1       24.1660   48.1370   30.8420 C.ar   10  PHE10      -0.0042
     15  CD2       24.9110   49.3340   28.9020 C.ar   10  PHE10      -0.0042
     16  CE1       22.9710   47.8140   30.1960 C.ar   10  PHE10      -0.0003
     17  CE2       23.7220   49.0170   28.2430 C.ar   10  PHE10      -0.0003
     18  CZ        22.7490   48.2550   28.8930 C.ar   10  PHE10      -0.0000
     19  N         27.4670   46.4830   32.1210 N.am   11  GLY11      -0.1954
     20  CA        27.2040   45.1110   32.4980 C.3    11  GLY11       0.1869
     21  C         25.8840   44.9540   33.2130 C.2    11  GLY11       0.2309
     22  O         25.3880   45.8930   33.8380 O.2    11  GLY11      -0.2863
     23  N         30.2910   40.0670   33.5300 N.3    28  SER28      -0.1217
     24  CA        31.0010   41.3420   33.4230 C.3    28  SER28       0.1889
     25  C         32.0420   41.5840   34.5130 C.2    28  SER28       0.2288
     26  O         33.1290   42.0820   34.2290 O.2    28  SER28      -0.2866
     27  CB        30.0040   42.5110   33.3840 C.3    28  SER28       0.2089
     28  OG        29.2560   42.6050   34.5820 O.3    28  SER28      -0.2183
     29  N         35.9270   41.9940   34.0320 N.3    31  ARG31      -0.1245
     30  CA        36.5270   43.2470   34.4670 C.3    31  ARG31       0.1563
     31  C         37.9480   43.0970   35.0000 C.2    31  ARG31       0.2260
     32  O         38.8320   43.8760   34.6460 O.2    31  ARG31      -0.2867
     33  CB        35.6420   43.9280   35.5190 C.3    31  ARG31       0.0307
     34  CG        36.2260   45.2280   36.0560 C.3    31  ARG31       0.0489
     35  CD        35.1950   46.0610   36.7980 C.3    31  ARG31       0.2205
     36  NE        34.0420   46.3640   35.9510 N.pl3  31  ARG31      -0.0865
     37  CZ        32.8400   45.8170   36.1080 C.cat  31  ARG31       0.5346
     38  NH1       32.6290   44.9400   37.0850 N.pl3  31  ARG31       0.1354
     39  NH2       31.8520   46.1400   35.2880 N.pl3  31  ARG31       0.1354
     40  N         40.0110   41.9090   31.5600 N.3    34  PHE34      -0.1241
     41  CA        40.1840   42.8180   30.4400 C.3    34  PHE34       0.1605
     42  C         41.4380   43.6970   30.5540 C.2    34  PHE34       0.2264
     43  O         42.0980   43.9770   29.5520 O.2    34  PHE34      -0.2867
     44  CB        38.9390   43.6990   30.2980 C.3    34  PHE34       0.0534
     45  CG        38.7640   44.2750   28.9260 C.ar   34  PHE34      -0.0203
     46  CD1       38.4160   43.4550   27.8570 C.ar   34  PHE34      -0.0042
     47  CD2       38.9820   45.6250   28.6930 C.ar   34  PHE34      -0.0042
     48  CE1       38.2910   43.9750   26.5690 C.ar   34  PHE34      -0.0003
     49  CE2       38.8600   46.1540   27.4160 C.ar   34  PHE34      -0.0003
     50  CZ        38.5150   45.3290   26.3490 C.ar   34  PHE34      -0.0000
     51  N         32.9540   53.1860   29.5060 N.3    55  ASP55      -0.1239
     52  CA        32.7920   52.0080   30.3560 C.3    55  ASP55       0.1674
     53  C         31.8540   52.4630   31.4670 C.2    55  ASP55       0.2266
     54  O         32.2980   53.0480   32.4570 O.2    55  ASP55      -0.2867
     55  CB        34.1310   51.5750   30.9690 C.3    55  ASP55       0.1410
     56  CG        33.9790   50.4250   31.9590 C.2    55  ASP55       0.3668
     57  OD1       32.8570   50.2090   32.4600 O.co2  55  ASP55      -0.2456
     58  OD2       34.9830   49.7380   32.2510 O.co2  55  ASP55      -0.2456
     59  N         30.3310   50.6310   33.4990 N.3    57  GLY57      -0.1225
     60  CA        30.3480   49.7160   34.6220 C.3    57  GLY57       0.1811
     61  C         29.0900   48.8620   34.6840 C.2    57  GLY57       0.2280
     62  O         28.3810   48.6970   33.6880 O.2    57  GLY57      -0.2866
     63  N         26.6930   43.7550   28.3840 N.3    89  ILE89      -0.1245
     64  CA        27.4400   42.5430   28.7050 C.3    89  ILE89       0.1561
     65  C         26.6140   41.9430   29.8220 C.2    89  ILE89       0.2260
     66  O         26.8170   42.2540   30.9950 O.2    89  ILE89      -0.2867
     67  CB        28.8260   42.8440   29.2870 C.3    89  ILE89       0.0252
     68  CG1       29.6260   43.7370   28.3370 C.3    89  ILE89       0.0019
     69  CG2       29.5520   41.5390   29.5640 C.3    89  ILE89       0.0019
     70  CD1       29.7990   43.1720   26.9510 C.3    89  ILE89       0.0001
     71  N         36.2290   38.3130   26.7040 N.3   257  CYS257     -0.1235
     72  CA        36.9450   39.5770   26.6950 C.3   257  CYS257      0.1677
     73  C         37.3940   39.9290   25.2900 C.2   257  CYS257      0.2270
     74  O         37.2540   41.0710   24.8590 O.2   257  CYS257     -0.2867
     75  CB        38.1490   39.5120   27.6280 C.3   257  CYS257      0.0956
     76  SG        37.7180   39.5510   29.3870 S.3   257  CYS257     -0.0801
     77  N         34.4490   40.8290   23.1930 N.3   260  LEU260     -0.1245
     78  CA        34.0130   42.1660   23.5670 C.3   260  LEU260      0.1561
     79  C         34.8650   43.2000   22.8250 C.2   260  LEU260      0.2260
     80  O         34.3400   44.1600   22.2460 O.2   260  LEU260     -0.2867
     81  CB        34.1480   42.3600   25.0810 C.3   260  LEU260      0.0270
     82  CG        33.9640   43.7850   25.6060 C.3   260  LEU260      0.0019
     83  CD1       32.5800   44.3060   25.2530 C.3   260  LEU260      0.0001
     84  CD2       34.1760   43.7970   27.1110 C.3   260  LEU260      0.0001
@<TRIPOS>BOND
     1    80    79    2
     2    79    78    1
     3    77    78    1
     4    78    81    1
     5    74    73    2
     6    81    82    1
     7    83    82    1
     8    73    72    1
     9    82    84    1
    10     7     5    1
    11    50    48   ar
    12    50    49   ar
    13    48    46   ar
    14    72    71    1
    15    72    75    1
    16     1     2    1
    17    70    68    1
    18     5     2    1
    19     5     6    1
    20     2     3    1
    21    49    47   ar
    22    75    76    1
    23    46    45   ar
    24    17    18   ar
    25    17    15   ar
    26    68    67    1
    27    63    64    1
    28    47    45   ar
    29    64    67    1
    30    64    65    1
    31     3     8   am
    32     3     4    2
    33    18    16   ar
    34    15    13   ar
    35    45    44    1
    36     8     9    1
    37    67    69    1
    38    51    52    1
    39    43    42    2
    40    65    66    2
    41    11    10    2
    42    16    14   ar
    43    13    14   ar
    44    13    12    1
    45    44    41    1
    46    52    55    1
    47    52    53    1
    48    41    42    1
    49    41    40    1
    50     9    10    1
    51     9    12    1
    52    10    19   am
    53    55    56    1
    54    53    54    2
    55    56    58   ar
    56    56    57   ar
    57    19    20    1
    58    20    21    1
    59    21    22    2
    60    27    24    1
    61    27    28    1
    62    24    23    1
    63    24    25    1
    64    59    60    1
    65    62    61    2
    66    29    30    1
    67    26    25    2
    68    30    31    1
    69    30    33    1
    70    60    61    1
    71    32    31    2
    72    39    37    1
    73    33    34    1
    74    36    37    2
    75    36    35    1
    76    34    35    1
    77    37    38    1
