@<TRIPOS>MOLECULE
tmp/3lhoA01.pdb
 117 112 0 0 0
SMALL
GASTEIGER

@<TRIPOS>ATOM
      1  N         20.2600   16.6340   28.4840 N.3    41  ALA41      -0.1231
      2  CA        19.4640   16.0860   29.5910 C.3    41  ALA41       0.1694
      3  C         20.3920   15.3730   30.5490 C.2    41  ALA41       0.2592
      4  O         21.2130   14.5360   30.0990 O.2    41  ALA41      -0.2718
      5  CB        18.4060   15.0970   29.0660 C.3    41  ALA41       0.0304
      6  N         20.2630   15.6760   31.8390 N.am   42  LEU42      -0.1966
      7  CA        21.0060   15.0110   32.9090 C.3    42  LEU42       0.1728
      8  C         20.0430   14.4250   33.9270 C.2    42  LEU42       0.2616
      9  O         18.9010   14.8890   34.0260 O.2    42  LEU42      -0.2715
     10  CB        21.9570   16.0120   33.5870 C.3    42  LEU42       0.0311
     11  CG        22.9340   16.7880   32.7320 C.3    42  LEU42       0.0022
     12  CD1       23.6350   17.8670   33.6230 C.3    42  LEU42       0.0001
     13  CD2       24.0140   15.8770   32.0920 C.3    42  LEU42       0.0001
     14  N         20.4980   13.4210   34.6780 N.am   43  ARG43      -0.1977
     15  CA        19.6340   12.6760   35.6050 C.3    43  ARG43       0.1597
     16  C         20.3150   12.5420   36.9490 C.2    43  ARG43       0.2287
     17  O         21.5150   12.4710   37.0090 O.2    43  ARG43      -0.2864
     18  CB        19.4620   11.2690   35.0830 C.3    43  ARG43       0.0334
     19  CG        18.7070   11.2080   33.7600 C.3    43  ARG43       0.0492
     20  CD        18.5510    9.7910   33.3350 C.3    43  ARG43       0.2205
     21  NE        17.5440    9.6800   32.2910 N.pl3  43  ARG43      -0.0865
     22  CZ        17.0660    8.5470   31.7870 C.cat  43  ARG43       0.5346
     23  NH1       17.5070    7.3770   32.2100 N.pl3  43  ARG43       0.1354
     24  NH2       16.1230    8.5940   30.8460 N.pl3  43  ARG43       0.1354
     25  N          6.8920   14.8430   36.7370 N.3    72  PHE72      -0.1241
     26  CA         6.4160   13.6780   35.9590 C.3    72  PHE72       0.1605
     27  C          5.9500   12.5510   36.8880 C.2    72  PHE72       0.2264
     28  O          6.7500   11.8420   37.4770 O.2    72  PHE72      -0.2867
     29  CB         7.5340   13.2450   35.0150 C.3    72  PHE72       0.0534
     30  CG         7.9260   14.3310   34.0530 C.ar   72  PHE72      -0.0203
     31  CD1        7.1340   14.6060   32.9430 C.ar   72  PHE72      -0.0042
     32  CD2        9.0440   15.1220   34.2790 C.ar   72  PHE72      -0.0042
     33  CE1        7.4750   15.6450   32.0610 C.ar   72  PHE72      -0.0003
     34  CE2        9.4030   16.1440   33.3930 C.ar   72  PHE72      -0.0003
     35  CZ         8.6200   16.4060   32.2900 C.ar   72  PHE72      -0.0000
     36  N          6.6290    8.5330   36.1500 N.3    75  LYS75      -0.1245
     37  CA         8.0440    8.1710   36.2350 C.3    75  LYS75       0.1561
     38  C          8.6830    8.5360   37.5820 C.2    75  LYS75       0.2260
     39  O          9.8680    8.2310   37.8030 O.2    75  LYS75      -0.2867
     40  CB         8.8100    8.8390   35.0950 C.3    75  LYS75       0.0271
     41  CG         8.6660    8.1490   33.7190 C.3    75  LYS75       0.0035
     42  CD         9.2570    9.0340   32.6340 C.3    75  LYS75       0.0206
     43  CE         9.2800    8.3920   31.2520 C.3    75  LYS75       0.1093
     44  NZ         9.4140    9.4650   30.1980 N.3    75  LYS75      -0.1314
     45  N          9.3430   11.6360   38.9310 N.3    77  LEU77      -0.1245
     46  CA        10.4330   12.5750   38.6450 C.3    77  LEU77       0.1561
     47  C          9.9940   14.0090   38.8810 C.2    77  LEU77       0.2260
     48  O          8.8260   14.3520   38.6350 O.2    77  LEU77      -0.2867
     49  CB        10.8170   12.5080   37.1690 C.3    77  LEU77       0.0270
     50  CG        11.4200   11.2460   36.5450 C.3    77  LEU77       0.0019
     51  CD1       11.7780   11.4780   35.0590 C.3    77  LEU77       0.0001
     52  CD2       12.6610   10.8170   37.3420 C.3    77  LEU77       0.0001
     53  N         18.2640   20.5050   30.7190 N.3    93  PHE93      -0.1241
     54  CA        17.1690   19.8410   31.3640 C.3    93  PHE93       0.1605
     55  C         17.7630   18.8810   32.4070 C.2    93  PHE93       0.2264
     56  O         18.5930   18.0050   32.0520 O.2    93  PHE93      -0.2867
     57  CB        16.3980   19.0550   30.3280 C.3    93  PHE93       0.0534
     58  CG        15.1490   18.4320   30.8580 C.ar   93  PHE93      -0.0203
     59  CD1       13.9780   19.1730   31.0020 C.ar   93  PHE93      -0.0042
     60  CD2       15.1590   17.0710   31.2260 C.ar   93  PHE93      -0.0042
     61  CE1       12.7950   18.5750   31.5170 C.ar   93  PHE93      -0.0003
     62  CE2       14.0210   16.4570   31.7250 C.ar   93  PHE93      -0.0003
     63  CZ        12.8120   17.2160   31.8750 C.ar   93  PHE93      -0.0000
     64  N         16.6830   16.3360   35.6260 N.3    95  SER95      -0.1217
     65  CA        15.6200   15.6870   36.3950 C.3    95  SER95       0.1889
     66  C         16.2210   14.9100   37.5760 C.2    95  SER95       0.2288
     67  O         17.4440   14.6850   37.6340 O.2    95  SER95      -0.2866
     68  CB        14.7910   14.7810   35.4950 C.3    95  SER95       0.2089
     69  OG        15.5320   13.6650   35.0120 O.3    95  SER95      -0.2183
     70  N         14.8710    4.3870   34.7030 N.3   150  TYR150     -0.1241
     71  CA        15.6490    5.5930   35.0190 C.3   150  TYR150      0.1605
     72  C         16.6940    5.3310   36.0800 C.2   150  TYR150      0.2264
     73  O         17.9040    5.5990   35.8670 O.2   150  TYR150     -0.2867
     74  CB        14.6620    6.6750   35.4820 C.3   150  TYR150      0.0534
     75  CG        15.2330    8.0460   35.7620 C.ar  150  TYR150     -0.0201
     76  CD1       16.0430    8.2750   36.8970 C.ar  150  TYR150     -0.0009
     77  CD2       14.8980    9.1400   34.9470 C.ar  150  TYR150     -0.0009
     78  CE1       16.5160    9.5640   37.2050 C.ar  150  TYR150      0.0417
     79  CE2       15.4000   10.4170   35.2290 C.ar  150  TYR150      0.0417
     80  CZ        16.2290   10.6130   36.3720 C.ar  150  TYR150      0.1957
     81  OH        16.7470   11.8880   36.7090 O.3   150  TYR150     -0.2866
     82  N         22.6990   12.0970   29.4430 N.3   162  ASN162     -0.1225
     83  CA        21.7790   11.0900   28.9620 C.3   162  ASN162      0.1785
     84  C         21.5270   11.2560   27.4720 C.2   162  ASN162      0.2597
     85  O         21.4560   10.2680   26.7500 O.2   162  ASN162     -0.2718
     86  CB        20.4480   11.1390   29.7100 C.3   162  ASN162      0.1169
     87  CG        19.4060   10.1180   29.1630 C.2   162  ASN162      0.2627
     88  OD1       18.5520   10.4740   28.3660 O.2   162  ASN162     -0.2716
     89  ND2       19.5010    8.8520   29.5850 N.am  162  ASN162     -0.0877
     90  N         21.3960   12.5050   27.0210 N.am  163  HIS163     -0.1975
     91  CA        21.3760   12.7920   25.5620 C.3   163  HIS163      0.1656
     92  C         21.6700   14.2430   25.2500 C.2   163  HIS163      0.2291
     93  O         21.5090   15.1210   26.1080 O.2   163  HIS163     -0.2864
     94  CB        20.0510   12.3470   24.8950 C.3   163  HIS163      0.0771
     95  CG        18.8200   13.0070   25.4300 C.ar  163  HIS163      0.0820
     96  ND1       18.0860   12.4950   26.4790 N.ar  163  HIS163     -0.2267
     97  CD2       18.1240   14.0810   24.9790 C.ar  163  HIS163      0.1154
     98  CE1       17.0330   13.2560   26.6970 C.ar  163  HIS163      0.1986
     99  NE2       17.0350   14.2430   25.8060 N.ar  163  HIS163     -0.2212
    100  N         20.5680    7.3990   23.2130 N.3   230  PHE230     -0.1241
    101  CA        20.2020    7.8860   21.9070 C.3   230  PHE230      0.1605
    102  C         20.6580    9.3560   21.7020 C.2   230  PHE230      0.2264
    103  O         21.0570   10.0300   22.6530 O.2   230  PHE230     -0.2867
    104  CB        18.6810    7.7870   21.6900 C.3   230  PHE230      0.0534
    105  CG        17.8490    8.4450   22.7510 C.ar  230  PHE230     -0.0203
    106  CD1       17.7430    9.8350   22.8090 C.ar  230  PHE230     -0.0042
    107  CD2       17.1510    7.6890   23.6780 C.ar  230  PHE230     -0.0042
    108  CE1       16.9760   10.4640   23.7960 C.ar  230  PHE230     -0.0003
    109  CE2       16.3700    8.2890   24.6490 C.ar  230  PHE230     -0.0003
    110  CZ        16.2830    9.6980   24.7060 C.ar  230  PHE230     -0.0000
    111  N          7.7720   18.1170   26.9130 N.3   248  VAL248     -0.1245
    112  CA         6.7900   17.1500   26.4370 C.3   248  VAL248      0.1561
    113  C          5.8300   17.9570   25.5920 C.2   248  VAL248      0.2260
    114  O          5.9390   19.2020   25.5580 O.2   248  VAL248     -0.2867
    115  CB         6.0110   16.4870   27.6030 C.3   248  VAL248      0.0252
    116  CG1        6.9150   15.5780   28.4150 C.3   248  VAL248      0.0019
    117  CG2        5.3290   17.5450   28.4720 C.3   248  VAL248      0.0019
@<TRIPOS>BOND
     1   104   101    1
     2   104   105    1
     3   102   101    1
     4   102   103    2
     5   101   100    1
     6   105   106   ar
     7   105   107   ar
     8   106   108   ar
     9   107   109   ar
    10   108   110   ar
    11   109   110   ar
    12    94    95    1
    13    94    91    1
    14    97    95   ar
    15    97    99   ar
    16    92    91    1
    17    92    93    2
    18    95    96   ar
    19   114   113    2
    20    91    90    1
    21   113   112    1
    22    99    98   ar
    23   112   111    1
    24   112   115    1
    25    96    98   ar
    26    85    84    2
    27    90    84   am
    28    84    83    1
    29   115   116    1
    30   115   117    1
    31    88    87    2
    32     1     2    1
    33    83    82    1
    34    83    86    1
    35     5     2    1
    36    87    89   am
    37    87    86    1
    38     2     3    1
    39     4     3    2
    40    44    43    1
    41    57    58    1
    42    57    54    1
    43     3     6   am
    44    53    54    1
    45    24    22    1
    46    58    59   ar
    47    58    60   ar
    48    59    61   ar
    49    60    62   ar
    50    43    42    1
    51    54    55    1
    52    61    63   ar
    53    62    63   ar
    54    22    23    1
    55    22    21    2
    56     6     7    1
    57    56    55    2
    58    33    35   ar
    59    33    31   ar
    60    13    11    1
    61    35    34   ar
    62    21    20    1
    63    42    41    1
    64    11    10    1
    65    11    12    1
    66     7    10    1
    67     7     8    1
    68    31    30   ar
    69    20    19    1
    70    34    32   ar
    71    41    40    1
    72    19    18    1
    73     8     9    2
    74     8    14   am
    75    30    32   ar
    76    30    29    1
    77    14    15    1
    78    70    71    1
    79    77    79   ar
    80    77    75   ar
    81    69    68    1
    82    29    26    1
    83    71    74    1
    84    71    72    1
    85    51    50    1
    86    18    15    1
    87    40    37    1
    88    79    80   ar
    89    74    75    1
    90    68    65    1
    91    15    16    1
    92    64    65    1
    93    75    76   ar
    94    73    72    2
    95    26    25    1
    96    26    27    1
    97    36    37    1
    98    37    38    1
    99    80    81    1
   100    80    78   ar
   101    65    66    1
   102    50    49    1
   103    50    52    1
   104    27    28    2
   105    76    78   ar
   106    16    17    2
   107    49    46    1
   108    66    67    2
   109    38    39    2
   110    48    47    2
   111    46    47    1
   112    46    45    1
