@<TRIPOS>MOLECULE
tmp/3lhqA00.pdb
 117 107 0 0 0
SMALL
GASTEIGER

@<TRIPOS>ATOM
      1  N         -8.6100   25.5590   47.1650 N.3    90  LEU90      -0.1245
      2  CA        -7.3960   26.2880   46.8170 C.3    90  LEU90       0.1561
      3  C         -6.1450   25.4160   47.0820 C.2    90  LEU90       0.2260
      4  O         -5.2340   25.3270   46.2350 O.2    90  LEU90      -0.2867
      5  CB        -7.3170   27.5450   47.6940 C.3    90  LEU90       0.0270
      6  CG        -6.0820   28.3740   47.5470 C.3    90  LEU90       0.0019
      7  CD1       -5.8770   28.7350   46.0590 C.3    90  LEU90       0.0001
      8  CD2       -6.1230   29.5970   48.5240 C.3    90  LEU90       0.0001
      9  N         -5.8660   22.6330   44.3200 N.3    93  ILE93      -0.1231
     10  CA        -5.4820   23.1740   43.0190 C.3    93  ILE93       0.1692
     11  C         -3.9560   23.4690   42.9990 C.2    93  ILE93       0.2591
     12  O         -3.2220   23.1970   42.0130 O.2    93  ILE93      -0.2718
     13  CB        -6.2810   24.4130   42.6540 C.3    93  ILE93       0.0266
     14  CG1       -7.7160   24.0950   42.3410 C.3    93  ILE93       0.0019
     15  CG2       -5.7140   25.0150   41.2880 C.3    93  ILE93       0.0020
     16  CD1       -8.6470   25.3890   42.4300 C.3    93  ILE93       0.0001
     17  N         -3.4900   24.1270   44.0580 N.am   94  LEU94      -0.1980
     18  CA        -2.0970   24.5170   44.1110 C.3    94  LEU94       0.1596
     19  C         -1.1880   23.3250   44.2110 C.2    94  LEU94       0.2287
     20  O         -0.1210   23.2900   43.5440 O.2    94  LEU94      -0.2864
     21  CB        -1.8370   25.4760   45.2630 C.3    94  LEU94       0.0297
     22  CG        -2.4530   26.8540   45.1360 C.3    94  LEU94       0.0022
     23  CD1       -2.1610   27.7300   46.4070 C.3    94  LEU94       0.0001
     24  CD2       -2.0990   27.6580   43.8370 C.3    94  LEU94       0.0001
     25  N         -0.9990   21.7660   40.7450 N.3    97  ILE97      -0.1245
     26  CA        -0.1100   22.5240   39.8240 C.3    97  ILE97       0.1561
     27  C          1.3240   22.1800   40.0930 C.2    97  ILE97       0.2260
     28  O          2.1120   21.9670   39.1430 O.2    97  ILE97      -0.2867
     29  CB        -0.3220   24.0580   39.9750 C.3    97  ILE97       0.0252
     30  CG1       -1.6930   24.4010   39.4140 C.3    97  ILE97       0.0019
     31  CG2        0.8340   24.8980   39.3430 C.3    97  ILE97       0.0019
     32  CD1       -2.2830   25.8210   39.7720 C.3    97  ILE97       0.0001
     33  N          2.6250   19.7120   31.1060 N.3   107  ARG107     -0.1245
     34  CA         2.8780   20.8350   32.0150 C.3   107  ARG107      0.1563
     35  C          4.3890   21.0180   32.2410 C.2   107  ARG107      0.2260
     36  O          4.8660   22.1480   32.2360 O.2   107  ARG107     -0.2867
     37  CB         2.1480   20.6870   33.3650 C.3   107  ARG107      0.0307
     38  CG         2.3900   21.8940   34.3210 C.3   107  ARG107      0.0489
     39  CD         1.2630   22.0770   35.3770 C.3   107  ARG107      0.2205
     40  NE         0.0250   22.5130   34.7480 N.pl3 107  ARG107     -0.0865
     41  CZ        -0.2150   23.7640   34.3440 C.cat 107  ARG107      0.5346
     42  NH1        0.6840   24.7190   34.5030 N.pl3 107  ARG107      0.1354
     43  NH2       -1.3630   24.0440   33.7670 N.pl3 107  ARG107      0.1354
     44  N          6.1420   24.5110   31.0740 N.3   111  MET111     -0.1245
     45  CA         6.7510   25.3950   32.0710 C.3   111  MET111      0.1570
     46  C          8.2220   25.5270   31.7880 C.2   111  MET111      0.2261
     47  O          8.7670   26.6060   31.9270 O.2   111  MET111     -0.2867
     48  CB         6.4700   24.8750   33.5010 C.3   111  MET111      0.0387
     49  CG         5.0040   24.8720   33.8930 C.3   111  MET111      0.0595
     50  SD         4.0410   26.3310   33.3970 S.3   111  MET111     -0.1393
     51  CE         4.9020   27.5740   34.3720 C.3   111  MET111      0.0692
     52  N          9.8850   29.2550   31.1020 N.3   115  PHE115     -0.1241
     53  CA        10.9490   29.7820   31.9460 C.3   115  PHE115      0.1605
     54  C         12.3300   29.7970   31.3330 C.2   115  PHE115      0.2264
     55  O         13.0900   30.7290   31.5690 O.2   115  PHE115     -0.2867
     56  CB        11.0180   28.9720   33.2560 C.3   115  PHE115      0.0534
     57  CG         9.8520   29.1820   34.1940 C.ar  115  PHE115     -0.0203
     58  CD1        9.4180   30.4680   34.5400 C.ar  115  PHE115     -0.0042
     59  CD2        9.1830   28.0860   34.7160 C.ar  115  PHE115     -0.0042
     60  CE1        8.3450   30.6720   35.3930 C.ar  115  PHE115     -0.0003
     61  CE2        8.1150   28.2640   35.6060 C.ar  115  PHE115     -0.0003
     62  CZ         7.7070   29.5710   35.9460 C.ar  115  PHE115     -0.0000
     63  N         -5.4860   36.6940   36.6100 N.3   138  SER138     -0.1217
     64  CA        -5.1920   35.7190   37.6040 C.3   138  SER138      0.1889
     65  C         -5.1750   36.3410   39.0230 C.2   138  SER138      0.2288
     66  O         -5.7250   35.7610   39.9600 O.2   138  SER138     -0.2866
     67  CB        -3.8830   35.0240   37.2710 C.3   138  SER138      0.2089
     68  OG        -3.5840   34.0680   38.2400 O.3   138  SER138     -0.2183
     69  N         -7.4960   35.1970   42.0110 N.3   142  ILE142     -0.1245
     70  CA        -6.9180   34.7450   43.2540 C.3   142  ILE142      0.1561
     71  C         -7.4790   35.5790   44.4050 C.2   142  ILE142      0.2260
     72  O         -7.8410   35.0230   45.4380 O.2   142  ILE142     -0.2867
     73  CB        -5.3670   34.8850   43.2600 C.3   142  ILE142      0.0252
     74  CG1       -4.7530   33.9140   42.2720 C.3   142  ILE142      0.0019
     75  CG2       -4.8530   34.6310   44.7080 C.3   142  ILE142      0.0019
     76  CD1       -3.3450   34.2120   41.8850 C.3   142  ILE142      0.0001
     77  N          0.9600   34.5790   46.2120 N.3   168  MET168     -0.1230
     78  CA         0.5700   33.2250   45.7430 C.3   168  MET168      0.1702
     79  C          1.2890   32.9220   44.4380 C.2   168  MET168      0.2592
     80  O          1.9400   31.8800   44.2600 O.2   168  MET168     -0.2718
     81  CB        -0.9220   33.0750   45.5380 C.3   168  MET168      0.0401
     82  CG        -1.3310   31.6640   45.2190 C.3   168  MET168      0.0596
     83  SD        -3.0990   31.4590   44.9350 S.3   168  MET168     -0.1393
     84  CE        -3.7040   31.7150   46.6080 C.3   168  MET168      0.0692
     85  N          1.1750   33.8200   43.4850 N.am  169  ARG169     -0.1980
     86  CA         1.7440   33.5820   42.1820 C.3   169  ARG169      0.1597
     87  C          3.2710   33.4910   42.2500 C.2   169  ARG169      0.2287
     88  O          3.9030   32.6610   41.6010 O.2   169  ARG169     -0.2864
     89  CB         1.2920   34.6470   41.1940 C.3   169  ARG169      0.0334
     90  CG         1.5860   34.2800   39.7980 C.3   169  ARG169      0.0492
     91  CD         0.7540   35.1080   38.8180 C.3   169  ARG169      0.2205
     92  NE         0.9500   34.6010   37.4730 N.pl3 169  ARG169     -0.0865
     93  CZ         2.0740   34.7980   36.7930 C.cat 169  ARG169      0.5346
     94  NH1        3.0490   35.5450   37.3040 N.pl3 169  ARG169      0.1354
     95  NH2        2.2020   34.3110   35.5690 N.pl3 169  ARG169      0.1354
     96  N          4.4930   30.1530   44.0520 N.3   172  ILE172     -0.1231
     97  CA         4.2560   28.9700   43.2450 C.3   172  ILE172      0.1692
     98  C          5.0940   28.9800   41.9690 C.2   172  ILE172      0.2592
     99  O          5.7990   27.9950   41.6320 O.2   172  ILE172     -0.2718
    100  CB         2.7400   28.8450   42.9650 C.3   172  ILE172      0.0266
    101  CG1        2.0030   28.6440   44.2930 C.3   172  ILE172      0.0019
    102  CG2        2.4480   27.8090   41.9220 C.3   172  ILE172      0.0020
    103  CD1        2.2090   27.2460   44.9520 C.3   172  ILE172      0.0001
    104  N          5.1810   30.1270   41.2880 N.am  173  SER173     -0.1952
    105  CA         6.0080   30.2160   40.0940 C.3   173  SER173      0.1924
    106  C          7.4730   30.0890   40.4220 C.2   173  SER173      0.2314
    107  O          8.2330   29.4880   39.6610 O.2   173  SER173     -0.2863
    108  CB         5.6500   31.4770   39.3120 C.3   173  SER173      0.2116
    109  OG         6.1540   32.5720   39.9160 O.3   173  SER173     -0.2180
    110  N          8.2870   26.3740   40.8720 N.3   176  MET176     -0.1245
    111  CA         8.3060   25.7230   39.5770 C.3   176  MET176      0.1570
    112  C          9.5940   26.0530   38.8240 C.2   176  MET176      0.2261
    113  O         10.3090   25.1730   38.3230 O.2   176  MET176     -0.2867
    114  CB         7.1060   26.1290   38.7530 C.3   176  MET176      0.0387
    115  CG         5.8250   25.4980   39.2220 C.3   176  MET176      0.0595
    116  SD         4.4820   25.8940   38.0570 S.3   176  MET176     -0.1393
    117  CE         3.7600   27.0200   39.0930 C.3   176  MET176      0.0692
@<TRIPOS>BOND
     1    44    45    1
     2    52    53    1
     3    33    34    1
     4    54    55    2
     5    54    53    1
     6    46    47    2
     7    46    45    1
     8    53    56    1
     9    34    35    1
    10    34    37    1
    11    45    48    1
    12    36    35    2
    13    56    57    1
    14    37    38    1
    15    50    49    1
    16    50    51    1
    17    48    49    1
    18    43    41    1
    19    57    58   ar
    20    57    59   ar
    21    38    39    1
    22    41    42    1
    23    41    40    2
    24    58    60   ar
    25    59    61   ar
    26    40    39    1
    27    60    62   ar
    28    95    93    1
    29    61    62   ar
    30    63    64    1
    31    93    94    1
    32    93    92    2
    33    67    64    1
    34    67    68    1
    35    92    91    1
    36    64    65    1
    37   116   117    1
    38   116   115    1
    39   113   112    2
    40   114   115    1
    41   114   111    1
    42    91    90    1
    43   112   111    1
    44    65    66    2
    45    28    27    2
    46   108   109    1
    47   108   105    1
    48    31    29    1
    49    30    32    1
    50    30    29    1
    51   111   110    1
    52   107   106    2
    53    90    89    1
    54    26    29    1
    55    26    27    1
    56    26    25    1
    57   105   106    1
    58   105   104    1
    59    89    86    1
    60    15    13    1
    61   104    98   am
    62    88    87    2
    63    99    98    2
    64    76    74    1
    65   102   100    1
    66    98    97    1
    67    69    70    1
    68    12    11    2
    69    86    87    1
    70    86    85    1
    71    74    73    1
    72    14    16    1
    73    14    13    1
    74    13    10    1
    75   100    97    1
    76   100   101    1
    77    11    10    1
    78    11    17   am
    79    10     9    1
    80    97    96    1
    81    70    73    1
    82    70    71    1
    83    73    75    1
    84    85    79   am
    85    20    19    2
    86    24    22    1
    87    17    18    1
    88    18    19    1
    89    18    21    1
    90    80    79    2
    91   101   103    1
    92    71    72    2
    93    79    78    1
    94    83    82    1
    95    83    84    1
    96    22    21    1
    97    22    23    1
    98    82    81    1
    99    81    78    1
   100    78    77    1
   101     7     6    1
   102     4     3    2
   103     2     3    1
   104     2     1    1
   105     2     5    1
   106     6     5    1
   107     6     8    1
