@<TRIPOS>MOLECULE
tmp/3lhsA00.pdb
 140 132 0 0 0
SMALL
GASTEIGER

@<TRIPOS>ATOM
      1  N          3.9550    5.5400    8.4910 N.3    51  ARG51      -0.1245
      2  CA         4.6870    4.7860    9.4950 C.3    51  ARG51       0.1563
      3  C          5.6090    5.6870   10.3230 C.2    51  ARG51       0.2260
      4  O          6.0240    5.2900   11.3940 O.2    51  ARG51      -0.2867
      5  CB         5.5270    3.6730    8.8730 C.3    51  ARG51       0.0307
      6  CG         4.6150    2.4800    8.5180 C.3    51  ARG51       0.0489
      7  CD         5.3670    1.2610    8.4270 C.3    51  ARG51       0.2205
      8  NE         4.4740    0.1630    8.1690 N.pl3  51  ARG51      -0.0865
      9  CZ         4.9170   -1.0330    7.8790 C.cat  51  ARG51       0.5346
     10  NH1        6.2320   -1.1930    7.7430 N.pl3  51  ARG51       0.1354
     11  NH2        4.0790   -2.0080    7.6470 N.pl3  51  ARG51       0.1354
     12  N         12.8370   -0.9230    5.0210 N.3    69  ARG69      -0.1231
     13  CA        13.8360   -1.1890    6.0100 C.3    69  ARG69       0.1694
     14  C         14.5280   -2.5130    5.7470 C.2    69  ARG69       0.2591
     15  O         15.7230   -2.6630    6.0010 O.2    69  ARG69      -0.2718
     16  CB        13.2400   -1.1200    7.4120 C.3    69  ARG69       0.0321
     17  CG        12.7110    0.2750    7.7690 C.3    69  ARG69       0.0489
     18  CD        12.0210    0.2630    9.1140 C.3    69  ARG69       0.2205
     19  NE        10.7850   -0.5240    9.0600 N.pl3  69  ARG69      -0.0865
     20  CZ        10.1950   -1.0960   10.1170 C.cat  69  ARG69       0.5346
     21  NH1       10.6410   -0.8390   11.3400 N.pl3  69  ARG69       0.1354
     22  NH2        9.1390   -1.9150    9.9480 N.pl3  69  ARG69       0.1354
     23  N         13.7950   -3.5090    5.2440 N.am   70  LYS70      -0.1980
     24  CA        14.4690   -4.7870    4.9730 C.3    70  LYS70       0.1596
     25  C         15.5120   -4.6730    3.8840 C.2    70  LYS70       0.2287
     26  O         16.5880   -5.2770    4.0160 O.2    70  LYS70      -0.2864
     27  CB        13.4310   -5.8530    4.5620 C.3    70  LYS70       0.0298
     28  CG        13.9910   -7.2480    4.3520 C.3    70  LYS70       0.0038
     29  CD        12.8970   -8.2850    4.1790 C.3    70  LYS70       0.0206
     30  CE        11.8390   -7.8980    3.1480 C.3    70  LYS70       0.1093
     31  NZ        11.1040   -9.0920    2.6610 N.3    70  LYS70      -0.1314
     32  N         19.3800   -5.3490   11.0750 N.3    91  ARG91      -0.1245
     33  CA        18.8250   -5.4710    9.7320 C.3    91  ARG91       0.1563
     34  C         19.8710   -5.2900    8.6370 C.2    91  ARG91       0.2260
     35  O         19.6730   -5.8010    7.5400 O.2    91  ARG91      -0.2867
     36  CB        17.7590   -4.4110    9.4370 C.3    91  ARG91       0.0307
     37  CG        16.6000   -4.3720   10.3400 C.3    91  ARG91       0.0489
     38  CD        15.6210   -3.3860    9.7720 C.3    91  ARG91       0.2205
     39  NE        14.3280   -3.3060   10.4470 N.pl3  91  ARG91      -0.0865
     40  CZ        13.2350   -3.9950   10.1340 C.cat  91  ARG91       0.5346
     41  NH1       13.2880   -4.9170    9.1960 N.pl3  91  ARG91       0.1354
     42  NH2       12.0660   -3.7490   10.7540 N.pl3  91  ARG91       0.1354
     43  N         15.9720   -2.3430   15.8800 N.3   111  PHE111     -0.1241
     44  CA        15.1560   -3.5390   15.6610 C.3   111  PHE111      0.1605
     45  C         15.3730   -4.6110   16.6940 C.2   111  PHE111      0.2264
     46  O         14.3900   -5.1890   17.1500 O.2   111  PHE111     -0.2867
     47  CB        15.4110   -4.0300   14.2290 C.3   111  PHE111      0.0534
     48  CG        14.6080   -5.2080   13.8050 C.ar  111  PHE111     -0.0203
     49  CD1       13.2260   -5.1060   13.6240 C.ar  111  PHE111     -0.0042
     50  CD2       15.2400   -6.4190   13.5210 C.ar  111  PHE111     -0.0042
     51  CE1       12.4790   -6.1920   13.2000 C.ar  111  PHE111     -0.0003
     52  CE2       14.4710   -7.5470   13.1070 C.ar  111  PHE111     -0.0003
     53  CZ        13.0950   -7.4080   12.9420 C.ar  111  PHE111     -0.0000
     54  N          1.6290   -9.1030   19.2700 N.3   165  VAL165     -0.1231
     55  CA         0.9730   -8.9800   17.9190 C.3   165  VAL165      0.1692
     56  C          0.1450  -10.2480   17.5460 C.2   165  VAL165      0.2592
     57  O          0.2550  -11.2940   18.2050 O.2   165  VAL165     -0.2718
     58  CB         2.0170   -8.6900   16.8010 C.3   165  VAL165      0.0266
     59  CG1        2.8590   -7.4910   17.2260 C.3   165  VAL165      0.0020
     60  CG2        2.9000   -9.9270   16.5140 C.3   165  VAL165      0.0020
     61  N         -0.7350  -10.1320   16.5360 N.am  166  VAL166     -0.1966
     62  CA        -1.5290  -11.2900   16.1090 C.3   166  VAL166      0.1727
     63  C         -0.8290  -12.0970   15.0250 C.2   166  VAL166      0.2616
     64  O         -0.4470  -11.5250   14.0190 O.2   166  VAL166     -0.2715
     65  CB        -2.8980  -10.8130   15.5960 C.3   166  VAL166      0.0290
     66  CG1       -3.7680  -11.9920   15.1770 C.3   166  VAL166      0.0023
     67  CG2       -3.5160   -9.9890   16.6680 C.3   166  VAL166      0.0023
     68  N         -0.7060  -13.4130   15.2220 N.am  167  ALA167     -0.1977
     69  CA        -0.0840  -14.3030   14.2060 C.3   167  ALA167      0.1597
     70  C         -0.5550  -15.7250   14.2810 C.2   167  ALA167      0.2287
     71  O         -0.7550  -16.2560   15.3700 O.2   167  ALA167     -0.2864
     72  CB         1.4350  -14.2800   14.3340 C.3   167  ALA167      0.0319
     73  N          1.5230  -13.6490   18.8770 N.3   172  LEU172     -0.1245
     74  CA         2.9800  -13.6200   18.9220 C.3   172  LEU172      0.1561
     75  C          3.4430  -12.6060   19.9940 C.2   172  LEU172      0.2260
     76  O          3.4180  -11.3770   19.8150 O.2   172  LEU172     -0.2867
     77  CB         3.5220  -13.3390   17.5360 C.3   172  LEU172      0.0270
     78  CG         5.0100  -13.5090   17.3760 C.3   172  LEU172      0.0019
     79  CD1        5.4220  -14.9790   17.5040 C.3   172  LEU172      0.0001
     80  CD2        5.4420  -12.9680   16.0360 C.3   172  LEU172      0.0001
     81  N          5.4460  -10.5500   22.9030 N.3   174  HIS174     -0.1241
     82  CA         6.6580   -9.8300   23.2050 C.3   174  HIS174      0.1621
     83  C          7.0550  -10.0790   24.6420 C.2   174  HIS174      0.2264
     84  O          6.3620   -9.6280   25.5490 O.2   174  HIS174     -0.2867
     85  CB         6.4890   -8.3240   22.9690 C.3   174  HIS174      0.0745
     86  CG         6.3520   -7.9420   21.5360 C.ar  174  HIS174      0.0817
     87  ND1        6.8660   -6.7630   21.0510 N.ar  174  HIS174     -0.2268
     88  CD2        5.7560   -8.5570   20.4870 C.ar  174  HIS174      0.1154
     89  CE1        6.6290   -6.6860   19.7510 C.ar  174  HIS174      0.1986
     90  NE2        5.9690   -7.7670   19.3810 N.ar  174  HIS174     -0.2212
     91  N         10.2980  -13.7350   19.8580 N.3   209  TYR209     -0.1241
     92  CA         8.8930  -13.6860   20.3090 C.3   209  TYR209      0.1605
     93  C          8.3460  -15.0660   20.5440 C.2   209  TYR209      0.2264
     94  O          8.8790  -16.0650   20.0610 O.2   209  TYR209     -0.2867
     95  CB         8.0550  -12.9400   19.2910 C.3   209  TYR209      0.0534
     96  CG         8.5800  -11.5650   19.0310 C.ar  209  TYR209     -0.0201
     97  CD1        8.8860  -10.7060   20.0970 C.ar  209  TYR209     -0.0009
     98  CD2        8.7630  -11.1050   17.7340 C.ar  209  TYR209     -0.0009
     99  CE1        9.3590   -9.4240   19.8780 C.ar  209  TYR209      0.0417
    100  CE2        9.2320   -9.8190   17.4960 C.ar  209  TYR209      0.0417
    101  CZ         9.5460   -8.9970   18.5790 C.ar  209  TYR209      0.1957
    102  OH         9.9920   -7.7360   18.3950 O.3   209  TYR209     -0.2866
    103  N          0.1370   -0.6670   16.0710 N.3   264  ARG264     -0.1245
    104  CA         1.4100   -1.3940   15.8730 C.3   264  ARG264      0.1563
    105  C          2.5550   -0.5210   15.3850 C.2   264  ARG264      0.2260
    106  O          3.7130   -0.7660   15.7200 O.2   264  ARG264     -0.2867
    107  CB         1.1800   -2.5130   14.8690 C.3   264  ARG264      0.0307
    108  CG         2.4060   -3.4030   14.6070 C.3   264  ARG264      0.0489
    109  CD         1.9470   -4.5870   13.8270 C.3   264  ARG264      0.2205
    110  NE         3.1160   -5.3180   13.3850 N.pl3 264  ARG264     -0.0865
    111  CZ         3.0480   -6.2450   12.4640 C.cat 264  ARG264      0.5346
    112  NH1        1.8700   -6.5260   11.9340 N.pl3 264  ARG264      0.1354
    113  NH2        4.1370   -6.8640   12.0640 N.pl3 264  ARG264      0.1354
    114  N          5.1220   -0.8790   18.3260 N.3   268  ALA268     -0.1231
    115  CA         6.1340   -1.8940   18.0110 C.3   268  ALA268      0.1694
    116  C          7.2090   -1.3440   17.0960 C.2   268  ALA268      0.2591
    117  O          8.3810   -1.6870   17.2800 O.2   268  ALA268     -0.2718
    118  CB         5.5030   -3.1070   17.3780 C.3   268  ALA268      0.0304
    119  N          6.8610   -0.5400   16.0880 N.am  269  ARG269     -0.1980
    120  CA         7.8210   -0.1760   15.0420 C.3   269  ARG269      0.1597
    121  C          8.5600    1.0910   15.3480 C.2   269  ARG269      0.2287
    122  O          9.7050    1.2370   14.9090 O.2   269  ARG269     -0.2864
    123  CB         7.1140   -0.0650   13.6920 C.3   269  ARG269      0.0334
    124  CG         6.4590   -1.3390   13.2310 C.3   269  ARG269      0.0492
    125  CD         6.0900   -1.2260   11.7600 C.3   269  ARG269      0.2205
    126  NE         5.6420   -2.5260   11.2210 N.pl3 269  ARG269     -0.0865
    127  CZ         4.3760   -2.8720   11.0130 C.cat 269  ARG269      0.5346
    128  NH1        3.3610   -2.0420   11.3060 N.pl3 269  ARG269      0.1354
    129  NH2        4.1190   -4.0850   10.5570 N.pl3 269  ARG269      0.1354
    130  N          9.7100    2.9450   18.2470 N.3   271  ARG271     -0.1245
    131  CA        10.8600    2.8000   19.1790 C.3   271  ARG271      0.1563
    132  C         11.5960    4.1140   19.4470 C.2   271  ARG271      0.2260
    133  O         12.8120    4.1240   19.6500 O.2   271  ARG271     -0.2867
    134  CB        11.8280    1.6730   18.7480 C.3   271  ARG271      0.0307
    135  CG        11.0660    0.3540   18.7090 C.3   271  ARG271      0.0489
    136  CD        12.0430   -0.7690   18.4950 C.3   271  ARG271      0.2205
    137  NE        12.6900   -0.6670   17.2010 N.pl3 271  ARG271     -0.0865
    138  CZ        12.2310   -1.1930   16.0670 C.cat 271  ARG271      0.5346
    139  NH1       11.0750   -1.8320   16.0020 N.pl3 271  ARG271      0.1354
    140  NH2       12.9600   -1.1220   14.9620 N.pl3 271  ARG271      0.1354
@<TRIPOS>BOND
     1    31    30    1
     2    30    29    1
     3    25    26    2
     4    25    24    1
     5    29    28    1
     6    28    27    1
     7    27    24    1
     8    24    23    1
     9    12    13    1
    10    23    14   am
    11    14    15    2
    12    14    13    1
    13    13    16    1
    14    16    17    1
    15    35    34    2
    16    11     9    1
    17    10     9    1
    18    17    18    1
    19     9     8    2
    20     8     7    1
    21     7     6    1
    22     1     2    1
    23     6     5    1
    24    34    33    1
    25     5     2    1
    26    19    18    1
    27    19    20    2
    28    41    40    1
    29    36    33    1
    30    36    37    1
    31     2     3    1
    32    33    32    1
    33    38    37    1
    34    38    39    1
    35    22    20    1
    36    20    21    1
    37    40    39    2
    38    40    42    1
    39     3     4    2
    40   129   127    1
    41   127   126    2
    42   127   128    1
    43   126   125    1
    44   125   124    1
    45   112   111    1
    46   113   111    1
    47   111   110    2
    48    53    52   ar
    49    53    51   ar
    50    52    50   ar
    51    51    49   ar
    52   124   123    1
    53   110   109    1
    54    50    48   ar
    55    49    48   ar
    56   123   120    1
    57    48    47    1
    58   109   108    1
    59    64    63    2
    60    69    70    1
    61    69    72    1
    62    69    68    1
    63    47    44    1
    64    70    71    2
    65   108   107    1
    66   107   104    1
    67   122   121    2
    68   140   138    1
    69    63    68   am
    70    63    62    1
    71   120   121    1
    72   120   119    1
    73    66    65    1
    74   105   106    2
    75   105   104    1
    76    65    62    1
    77    65    67    1
    78    44    43    1
    79    44    45    1
    80   104   103    1
    81   139   138    1
    82    80    78    1
    83   138   137    2
    84   119   116   am
    85    62    61    1
    86    60    58    1
    87    61    56   am
    88    45    46    2
    89    58    59    1
    90    58    55    1
    91   116   117    2
    92   116   115    1
    93   137   136    1
    94    78    79    1
    95    78    77    1
    96   118   115    1
    97   100    98   ar
    98   100   101   ar
    99    77    74    1
   100    56    55    1
   101    56    57    2
   102    98    96   ar
   103    55    54    1
   104   115   114    1
   105   130   131    1
   106   102   101    1
   107   136   135    1
   108   101    99   ar
   109   135   134    1
   110   134   131    1
   111    73    74    1
   112    74    75    1
   113    96    95    1
   114    96    97   ar
   115   131   132    1
   116    95    92    1
   117    90    89   ar
   118    90    88   ar
   119   132   133    2
   120    89    87   ar
   121    76    75    2
   122    91    92    1
   123    99    97   ar
   124    94    93    2
   125    92    93    1
   126    88    86   ar
   127    87    86   ar
   128    86    85    1
   129    81    82    1
   130    85    82    1
   131    82    83    1
   132    83    84    2
