@<TRIPOS>MOLECULE
tmp/3liaB00.pdb
 113 109 0 0 0
SMALL
GASTEIGER

@<TRIPOS>ATOM
      1  N         51.6100   13.7100   66.7990 N.3    65  TYR65      -0.1241
      2  CA        52.8890   13.3030   67.2830 C.3    65  TYR65       0.1605
      3  C         53.8290   14.4810   67.1850 C.2    65  TYR65       0.2264
      4  O         53.4750   15.5220   66.5730 O.2    65  TYR65      -0.2867
      5  CB        53.4020   12.1180   66.4410 C.3    65  TYR65       0.0534
      6  CG        53.2580   12.3540   64.9320 C.ar   65  TYR65      -0.0201
      7  CD1       54.2840   12.8580   64.2060 C.ar   65  TYR65      -0.0009
      8  CD2       52.0820   11.9780   64.2400 C.ar   65  TYR65      -0.0009
      9  CE1       54.1900   13.0340   62.8220 C.ar   65  TYR65       0.0417
     10  CE2       51.9620   12.1810   62.8820 C.ar   65  TYR65       0.0417
     11  CZ        53.0450   12.7080   62.1800 C.ar   65  TYR65       0.1957
     12  OH        53.0220   12.8900   60.8060 O.3    65  TYR65      -0.2866
     13  N         54.5800    9.1280   69.3720 N.3    95  TYR95      -0.1241
     14  CA        53.4870    8.9780   68.4080 C.3    95  TYR95       0.1605
     15  C         52.2080    8.5860   69.1560 C.2    95  TYR95       0.2264
     16  O         52.0110    7.4060   69.5440 O.2    95  TYR95      -0.2867
     17  CB        53.9000    7.9790   67.3210 C.3    95  TYR95       0.0534
     18  CG        52.7960    7.6750   66.3360 C.ar   95  TYR95      -0.0201
     19  CD1       52.1490    8.6970   65.6490 C.ar   95  TYR95      -0.0009
     20  CD2       52.4260    6.3460   66.0760 C.ar   95  TYR95      -0.0009
     21  CE1       51.1130    8.4050   64.7210 C.ar   95  TYR95       0.0417
     22  CE2       51.3990    6.0310   65.1440 C.ar   95  TYR95       0.0417
     23  CZ        50.7440    7.0600   64.5180 C.ar   95  TYR95       0.1957
     24  OH        49.7690    6.7350   63.6240 O.3    95  TYR95      -0.2866
     25  N         57.8440    7.0950   67.2850 N.3   108  LEU108     -0.1231
     26  CA        57.8760    7.1250   65.8620 C.3   108  LEU108      0.1693
     27  C         59.0420    6.2660   65.3380 C.2   108  LEU108      0.2592
     28  O         60.0200    6.0000   66.0360 O.2   108  LEU108     -0.2718
     29  CB        58.1440    8.5840   65.4060 C.3   108  LEU108      0.0284
     30  CG        57.0850    9.6640   65.6820 C.3   108  LEU108      0.0019
     31  CD1       57.7050   11.0870   65.4340 C.3   108  LEU108      0.0001
     32  CD2       55.9240    9.3960   64.7110 C.3   108  LEU108      0.0001
     33  N         58.9690    5.8730   64.0860 N.am  109  VAL109     -0.1966
     34  CA        60.0530    5.0990   63.5150 C.3   109  VAL109      0.1727
     35  C         60.3880    5.7550   62.1840 C.2   109  VAL109      0.2616
     36  O         59.5170    6.3780   61.5760 O.2   109  VAL109     -0.2715
     37  CB        59.6540    3.5810   63.2570 C.3   109  VAL109      0.0290
     38  CG1       59.1980    2.8830   64.5560 C.3   109  VAL109      0.0023
     39  CG2       58.5050    3.4860   62.3160 C.3   109  VAL109      0.0023
     40  N         61.6000    5.5540   61.7030 N.am  110  HIS110     -0.1973
     41  CA        61.9770    5.9820   60.3590 C.3   110  HIS110      0.1656
     42  C         62.0660    7.4750   60.2660 C.2   110  HIS110      0.2291
     43  O         62.0530    8.0270   59.1450 O.2   110  HIS110     -0.2864
     44  CB        61.0220    5.4520   59.2630 C.3   110  HIS110      0.0771
     45  CG        60.9910    3.9550   59.1840 C.ar  110  HIS110      0.0820
     46  ND1       59.8390    3.2350   58.9180 N.ar  110  HIS110     -0.2267
     47  CD2       61.9690    3.0390   59.3770 C.ar  110  HIS110      0.1154
     48  CE1       60.1190    1.9450   58.9210 C.ar  110  HIS110      0.1986
     49  NE2       61.3940    1.7980   59.2340 N.ar  110  HIS110     -0.2212
     50  N         62.3610    8.7910   56.6120 N.3   114  SER114     -0.1217
     51  CA        61.1130    8.9180   55.9180 C.3   114  SER114      0.1889
     52  C         60.6300   10.3890   55.6830 C.2   114  SER114      0.2288
     53  O         60.9830   11.3370   56.4230 O.2   114  SER114     -0.2866
     54  CB        60.1140    7.9420   56.5030 C.3   114  SER114      0.2089
     55  OG        58.8490    8.3550   56.1210 O.3   114  SER114     -0.2183
     56  N         57.9030   12.1150   56.0290 N.3   116  TYR116     -0.1241
     57  CA        57.0780   12.9150   56.9150 C.3   116  TYR116      0.1605
     58  C         57.9640   13.8020   57.8350 C.2   116  TYR116      0.2264
     59  O         57.5180   14.8160   58.3560 O.2   116  TYR116     -0.2867
     60  CB        56.1880   11.9920   57.7700 C.3   116  TYR116      0.0534
     61  CG        56.9490   11.2350   58.8770 C.ar  116  TYR116     -0.0201
     62  CD1       56.9730   11.7120   60.1590 C.ar  116  TYR116     -0.0009
     63  CD2       57.6110   10.0180   58.6200 C.ar  116  TYR116     -0.0009
     64  CE1       57.5890   11.0030   61.2000 C.ar  116  TYR116      0.0417
     65  CE2       58.2530    9.3050   59.6470 C.ar  116  TYR116      0.0417
     66  CZ        58.2600    9.8020   60.9220 C.ar  116  TYR116      0.1957
     67  OH        58.9010    9.0840   61.9280 O.3   116  TYR116     -0.2866
     68  N         48.9330    6.2590   52.1410 N.3   132  TYR132     -0.1241
     69  CA        49.5400    4.9510   52.3380 C.3   132  TYR132      0.1605
     70  C         48.7560    4.1540   53.3360 C.2   132  TYR132      0.2264
     71  O         47.8520    4.6710   54.0140 O.2   132  TYR132     -0.2867
     72  CB        50.9800    5.0690   52.8630 C.3   132  TYR132      0.0534
     73  CG        51.0960    5.9050   54.1700 C.ar  132  TYR132     -0.0201
     74  CD1       51.1460    5.2740   55.4180 C.ar  132  TYR132     -0.0009
     75  CD2       51.1430    7.2850   54.1220 C.ar  132  TYR132     -0.0009
     76  CE1       51.2290    6.0050   56.5940 C.ar  132  TYR132      0.0417
     77  CE2       51.2050    8.0610   55.3190 C.ar  132  TYR132      0.0417
     78  CZ        51.3010    7.4100   56.5200 C.ar  132  TYR132      0.1957
     79  OH        51.3580    8.0910   57.7060 O.3   132  TYR132     -0.2866
     80  N         48.9680    1.8400   56.7360 N.3   134  TYR134     -0.1241
     81  CA        49.8530    1.4900   57.8330 C.3   134  TYR134      0.1605
     82  C         49.0360    0.6680   58.8310 C.2   134  TYR134      0.2264
     83  O         48.0700    1.1600   59.3740 O.2   134  TYR134     -0.2867
     84  CB        50.4400    2.7760   58.4970 C.3   134  TYR134      0.0534
     85  CG        51.1970    2.5120   59.7970 C.ar  134  TYR134     -0.0201
     86  CD1       52.5010    1.9940   59.8020 C.ar  134  TYR134     -0.0009
     87  CD2       50.5640    2.7070   61.0180 C.ar  134  TYR134     -0.0009
     88  CE1       53.1700    1.7770   60.9880 C.ar  134  TYR134      0.0417
     89  CE2       51.2560    2.5070   62.2020 C.ar  134  TYR134      0.0417
     90  CZ        52.5330    2.0410   62.1720 C.ar  134  TYR134      0.1957
     91  OH        53.1700    1.8100   63.3830 O.3   134  TYR134     -0.2866
     92  N         45.7020    6.2010   55.0590 N.3   139  MET139     -0.1245
     93  CA        45.8440    7.5500   55.6360 C.3   139  MET139      0.1570
     94  C         46.8620    8.4100   54.8950 C.2   139  MET139      0.2261
     95  O         47.5580    7.9670   53.9930 O.2   139  MET139     -0.2867
     96  CB        46.2820    7.4080   57.1190 C.3   139  MET139      0.0387
     97  CG        47.7500    6.9160   57.2350 C.3   139  MET139      0.0595
     98  SD        48.2040    6.5320   59.0000 S.3   139  MET139     -0.1393
     99  CE        47.3140    5.1290   59.2800 C.3   139  MET139      0.0692
    100  N         49.6950   11.8240   55.9910 N.3   141  SER141     -0.1217
    101  CA        50.1830   12.4800   57.1650 C.3   141  SER141      0.1889
    102  C         50.5400   13.9440   56.8350 C.2   141  SER141      0.2288
    103  O         51.1500   14.1920   55.8010 O.2   141  SER141     -0.2866
    104  CB        51.3510   11.6620   57.6500 C.3   141  SER141      0.2089
    105  OG        52.2800   12.4500   58.3750 O.3   141  SER141     -0.2183
    106  N         48.1300   12.3210   61.7890 N.3   159  ASP159     -0.1239
    107  CA        47.7990   11.2690   60.8210 C.3   159  ASP159      0.1674
    108  C         46.2830   11.2620   60.6110 C.2   159  ASP159      0.2266
    109  O         45.5210   11.3070   61.5930 O.2   159  ASP159     -0.2867
    110  CB        48.1550    9.8790   61.3940 C.3   159  ASP159      0.1410
    111  CG        49.6590    9.5140   61.2210 C.2   159  ASP159      0.3668
    112  OD1       50.3930   10.1960   60.4720 O.co2 159  ASP159     -0.2456
    113  OD2       50.0920    8.4960   61.8130 O.co2 159  ASP159     -0.2456
@<TRIPOS>BOND
     1    68    69    1
     2    69    72    1
     3    69    70    1
     4    72    73    1
     5    70    71    2
     6    95    94    2
     7    75    73   ar
     8    75    77   ar
     9    73    74   ar
    10    94    93    1
    11    92    93    1
    12    77    78   ar
    13    74    76   ar
    14    93    96    1
    15    52    51    1
    16    52    53    2
    17   103   102    2
    18    51    54    1
    19    51    50    1
    20   100   101    1
    21    56    57    1
    22    55    54    1
    23    78    76   ar
    24    78    79    1
    25    80    81    1
    26   102   101    1
    27    57    60    1
    28    57    58    1
    29    96    97    1
    30   101   104    1
    31    97    98    1
    32   104   105    1
    33    60    61    1
    34    81    84    1
    35    81    82    1
    36    58    59    2
    37    84    85    1
    38    63    61   ar
    39    63    65   ar
    40    82    83    2
    41    61    62   ar
    42    46    48   ar
    43    46    45   ar
    44    48    49   ar
    45    98    99    1
    46    43    42    2
    47    45    44    1
    48    45    47   ar
    49    49    47   ar
    50    44    41    1
    51    65    66   ar
    52    85    86   ar
    53    85    87   ar
    54    86    88   ar
    55    62    64   ar
    56    42    41    1
    57    41    40    1
    58   112   111   ar
    59   108   107    1
    60   108   109    2
    61    12    11    1
    62   107   110    1
    63   107   106    1
    64    66    64   ar
    65    66    67    1
    66    88    90   ar
    67    87    89   ar
    68   111   110    1
    69   111   113   ar
    70    36    35    2
    71    40    35   am
    72    90    89   ar
    73    90    91    1
    74    11     9   ar
    75    11    10   ar
    76    35    34    1
    77    39    37    1
    78     9     7   ar
    79    10     8   ar
    80    37    34    1
    81    37    38    1
    82    34    33    1
    83    24    23    1
    84    33    27   am
    85     7     6   ar
    86     8     6   ar
    87    23    21   ar
    88    23    22   ar
    89    32    30    1
    90    21    19   ar
    91     6     5    1
    92    22    20   ar
    93    27    26    1
    94    27    28    2
    95    29    30    1
    96    29    26    1
    97    31    30    1
    98    19    18   ar
    99    26    25    1
   100    20    18   ar
   101    18    17    1
   102     5     2    1
   103     4     3    2
   104     1     2    1
   105     3     2    1
   106    17    14    1
   107    14    15    1
   108    14    13    1
   109    15    16    2
