@<TRIPOS>MOLECULE
tmp/3lifA00.pdb
 125 116 0 0 0
SMALL
GASTEIGER

@<TRIPOS>ATOM
      1  N         26.5770  -17.3370    1.9340 N.3    67  ASP67      -0.1225
      2  CA        27.8640  -17.5100    1.3010 C.3    67  ASP67       0.1805
      3  C         27.7450  -18.5190    0.1780 C.2    67  ASP67       0.2598
      4  O         26.6960  -19.1870    0.0500 O.2    67  ASP67      -0.2718
      5  CB        28.9110  -17.9250    2.3000 C.3    67  ASP67       0.1424
      6  CG        28.5220  -19.1590    3.0410 C.2    67  ASP67       0.3668
      7  OD1       27.6920  -19.9390    2.4820 O.co2  67  ASP67      -0.2456
      8  OD2       29.0270  -19.3360    4.1800 O.co2  67  ASP67      -0.2456
      9  N         28.7790  -18.5980   -0.6580 N.am   68  VAL68      -0.1966
     10  CA        28.7540  -19.4560   -1.8560 C.3    68  VAL68       0.1727
     11  C         30.1090  -20.1440   -2.0850 C.2    68  VAL68       0.2616
     12  O         31.1990  -19.5450   -1.8920 O.2    68  VAL68      -0.2715
     13  CB        28.4590  -18.6140   -3.1220 C.3    68  VAL68       0.0290
     14  CG1       28.3510  -19.5110   -4.3470 C.3    68  VAL68       0.0023
     15  CG2       27.1980  -17.8250   -2.8960 C.3    68  VAL68       0.0023
     16  N         30.0940  -21.3870   -2.5170 N.am   69  ALA69      -0.1977
     17  CA        31.3820  -21.9470   -2.7320 C.3    69  ALA69       0.1597
     18  C         31.3360  -22.8970   -3.9020 C.2    69  ALA69       0.2287
     19  O         30.2460  -23.3340   -4.3060 O.2    69  ALA69      -0.2864
     20  CB        31.9610  -22.5840   -1.4660 C.3    69  ALA69       0.0319
     21  N         33.2030  -26.4820   -5.4240 N.3    71  LEU71      -0.1245
     22  CA        33.9290  -27.7100   -5.2460 C.3    71  LEU71       0.1561
     23  C         34.1710  -28.2910   -6.6260 C.2    71  LEU71       0.2260
     24  O         33.2070  -28.3210   -7.4680 O.2    71  LEU71      -0.2867
     25  CB        33.0700  -28.7350   -4.4990 C.3    71  LEU71       0.0270
     26  CG        32.5620  -28.4980   -3.0750 C.3    71  LEU71       0.0019
     27  CD1       31.9100  -29.7880   -2.5730 C.3    71  LEU71       0.0001
     28  CD2       33.6160  -27.9720   -2.0870 C.3    71  LEU71       0.0001
     29  N         37.3480  -28.0140   -2.1550 N.3    77  LEU77      -0.1245
     30  CA        36.8220  -26.6730   -2.2470 C.3    77  LEU77       0.1561
     31  C         37.8360  -25.8120   -2.9620 C.2    77  LEU77       0.2260
     32  O         38.9060  -25.6050   -2.4750 O.2    77  LEU77      -0.2867
     33  CB        36.5320  -26.1380   -0.8470 C.3    77  LEU77       0.0270
     34  CG        36.1170  -24.7150   -0.4160 C.3    77  LEU77       0.0019
     35  CD1       36.6660  -23.5480   -1.2690 C.3    77  LEU77       0.0001
     36  CD2       34.5900  -24.5900   -0.1490 C.3    77  LEU77       0.0001
     37  N         35.6710  -32.0110    0.6360 N.3    90  ASN90      -0.1240
     38  CA        34.2820  -32.1790    1.0980 C.3    90  ASN90       0.1653
     39  C         33.5120  -33.2520    0.3300 C.2    90  ASN90       0.2266
     40  O         32.2860  -33.3290    0.3990 O.2    90  ASN90      -0.2867
     41  CB        33.5190  -30.8530    1.0750 C.3    90  ASN90       0.1155
     42  CG        34.1270  -29.8330    2.0000 C.2    90  ASN90       0.2627
     43  OD1       34.8040  -28.9330    1.5550 O.2    90  ASN90      -0.2716
     44  ND2       33.9040  -29.9710    3.2810 N.am   90  ASN90      -0.0877
     45  N         30.4260  -35.0870    1.4150 N.3    93  ARG93      -0.1245
     46  CA        29.2140  -34.3740    1.6630 C.3    93  ARG93       0.1563
     47  C         28.1180  -34.8960    0.7120 C.2    93  ARG93       0.2260
     48  O         28.4050  -35.1670   -0.4630 O.2    93  ARG93      -0.2867
     49  CB        29.5690  -32.9370    1.4200 C.3    93  ARG93       0.0307
     50  CG        29.0100  -32.0070    2.3830 C.3    93  ARG93       0.0489
     51  CD        29.4550  -32.2530    3.7740 C.3    93  ARG93       0.2205
     52  NE        29.4150  -30.9920    4.4930 N.pl3  93  ARG93      -0.0865
     53  CZ        29.0980  -30.8590    5.7710 C.cat  93  ARG93       0.5346
     54  NH1       28.7800  -31.9320    6.4630 N.pl3  93  ARG93       0.1354
     55  NH2       29.0910  -29.6360    6.3370 N.pl3  93  ARG93       0.1354
     56  N         25.3760  -33.7520   -0.7390 N.3    95  TYR95      -0.1241
     57  CA        25.0400  -32.9890   -1.9240 C.3    95  TYR95       0.1605
     58  C         26.0920  -33.1650   -2.9900 C.2    95  TYR95       0.2264
     59  O         25.7480  -33.1950   -4.1940 O.2    95  TYR95      -0.2867
     60  CB        24.8310  -31.5300   -1.6300 C.3    95  TYR95       0.0534
     61  CG        26.0240  -30.8030   -1.0700 C.ar   95  TYR95      -0.0201
     62  CD1       26.1320  -30.6060    0.2870 C.ar   95  TYR95      -0.0009
     63  CD2       27.0240  -30.2610   -1.8990 C.ar   95  TYR95      -0.0009
     64  CE1       27.1600  -29.8970    0.8240 C.ar   95  TYR95       0.0417
     65  CE2       28.1070  -29.5350   -1.3450 C.ar   95  TYR95       0.0417
     66  CZ        28.1340  -29.3630    0.0210 C.ar   95  TYR95       0.1957
     67  OH        29.1400  -28.7070    0.6720 O.3    95  TYR95      -0.2866
     68  N         23.1920  -29.4210    8.0890 N.3   113  ILE113     -0.1245
     69  CA        24.5790  -29.8350    8.2190 C.3   113  ILE113      0.1561
     70  C         25.3680  -28.7330    8.8810 C.2   113  ILE113      0.2260
     71  O         24.9450  -27.5590    8.9790 O.2   113  ILE113     -0.2867
     72  CB        25.2440  -30.1340    6.8800 C.3   113  ILE113      0.0252
     73  CG1       25.2490  -28.8600    5.9830 C.3   113  ILE113      0.0019
     74  CG2       24.6280  -31.3920    6.2230 C.3   113  ILE113      0.0019
     75  CD1       25.5320  -29.1430    4.4310 C.3   113  ILE113      0.0001
     76  N         28.0370  -26.2620    8.7680 N.3   115  SER115     -0.1202
     77  CA        28.6870  -25.6510    7.6390 C.3   115  SER115      0.2020
     78  C         30.1880  -25.7660    7.7580 C.2   115  SER115      0.2619
     79  O         30.7650  -25.2610    8.7110 O.2   115  SER115     -0.2717
     80  CB        28.3270  -24.1670    7.5970 C.3   115  SER115      0.2103
     81  OG        29.3260  -23.3580    6.9710 O.3   115  SER115     -0.2182
     82  N         30.8220  -26.3940    6.7740 N.am  116  ARG116     -0.1965
     83  CA        32.2890  -26.3900    6.6570 C.3   116  ARG116      0.1729
     84  C         32.9090  -25.0220    6.3610 C.2   116  ARG116      0.2616
     85  O         34.1100  -24.9740    6.0980 O.2   116  ARG116     -0.2715
     86  CB        32.7520  -27.3310    5.5540 C.3   116  ARG116      0.0348
     87  CG        32.2430  -28.7660    5.6460 C.3   116  ARG116      0.0492
     88  CD        33.1400  -29.6650    6.4630 C.3   116  ARG116      0.2205
     89  NE        32.6210  -30.9940    6.7970 N.pl3 116  ARG116     -0.0865
     90  CZ        32.5770  -32.0410    5.9690 C.cat 116  ARG116      0.5346
     91  NH1       32.9660  -31.9590    4.7190 N.pl3 116  ARG116      0.1354
     92  NH2       32.1210  -33.1980    6.3830 N.pl3 116  ARG116      0.1354
     93  N         32.1430  -23.9090    6.3540 N.am  117  THR117     -0.1951
     94  CA        32.8120  -22.6110    6.2320 C.3   117  THR117      0.1897
     95  C         32.5740  -21.7730    7.4320 C.2   117  THR117      0.2313
     96  O         33.3550  -20.8900    7.7400 O.2   117  THR117     -0.2863
     97  CB        32.3940  -21.7570    5.0250 C.3   117  THR117      0.1794
     98  OG1       31.0950  -21.2700    5.2650 O.3   117  THR117     -0.2208
     99  CG2       32.4040  -22.5240    3.6890 C.3   117  THR117      0.0378
    100  N         21.3070  -25.7630    3.0600 N.3   124  VAL124     -0.1245
    101  CA        22.1660  -25.3840    1.9970 C.3   124  VAL124      0.1561
    102  C         21.5020  -25.7940    0.7130 C.2   124  VAL124      0.2260
    103  O         20.6830  -26.7400    0.6960 O.2   124  VAL124     -0.2867
    104  CB        23.5160  -26.1220    2.2070 C.3   124  VAL124      0.0252
    105  CG1       23.9220  -26.9860    1.0130 C.3   124  VAL124      0.0019
    106  CG2       24.5320  -25.1760    2.6370 C.3   124  VAL124      0.0019
    107  N         27.5390  -24.5490   -4.0810 N.3   141  VAL141     -0.1231
    108  CA        26.6890  -24.7690   -2.9250 C.3   141  VAL141      0.1692
    109  C         26.5560  -23.3910   -2.3560 C.2   141  VAL141      0.2592
    110  O         27.5640  -22.6630   -2.3250 O.2   141  VAL141     -0.2718
    111  CB        27.4820  -25.3600   -1.7030 C.3   141  VAL141      0.0266
    112  CG1       26.6140  -26.2810   -0.8450 C.3   141  VAL141      0.0020
    113  CG2       28.8320  -25.9500   -2.0910 C.3   141  VAL141      0.0020
    114  N         25.3990  -23.0560   -1.8040 N.am  142  ALA142     -0.1966
    115  CA        25.3180  -21.8220   -1.0410 C.3   142  ALA142      0.1728
    116  C         24.4460  -22.0520    0.1740 C.2   142  ALA142      0.2616
    117  O         23.5180  -22.9050    0.1560 O.2   142  ALA142     -0.2715
    118  CB        24.7920  -20.7020   -1.8790 C.3   142  ALA142      0.0334
    119  N         24.7700  -21.3380    1.2400 N.am  143  THR143     -0.1951
    120  CA        24.0670  -21.5290    2.4880 C.3   143  THR143      0.1897
    121  C         22.8140  -20.6690    2.5580 C.2   143  THR143      0.2313
    122  O         22.8580  -19.4500    2.3200 O.2   143  THR143     -0.2863
    123  CB        24.9280  -21.0830    3.6570 C.3   143  THR143      0.1794
    124  OG1       26.1260  -21.8410    3.6330 O.3   143  THR143     -0.2208
    125  CG2       24.2000  -21.3420    4.9310 C.3   143  THR143      0.0378
@<TRIPOS>BOND
     1    24    23    2
     2    23    22    1
     3    21    22    1
     4    22    25    1
     5    25    26    1
     6    14    13    1
     7    19    18    2
     8    59    58    2
     9   107   108    1
    10    18    17    1
    11    13    15    1
    12    13    10    1
    13    26    27    1
    14    26    28    1
    15    58    57    1
    16    31    32    2
    17    31    30    1
    18   108   109    1
    19   108   111    1
    20    17    16    1
    21    17    20    1
    22    16    11   am
    23   109   110    2
    24   109   114   am
    25    30    29    1
    26    30    33    1
    27   113   111    1
    28    11    12    2
    29    11    10    1
    30    57    60    1
    31    57    56    1
    32    63    65   ar
    33    63    61   ar
    34   118   115    1
    35    10     9    1
    36   114   115    1
    37   111   112    1
    38    60    61    1
    39    65    66   ar
    40    35    34    1
    41    61    62   ar
    42   115   116    1
    43    33    34    1
    44     9     3   am
    45    48    47    2
    46    34    36    1
    47    66    67    1
    48    66    64   ar
    49     4     3    2
    50   117   116    2
    51   116   119   am
    52     3     2    1
    53    62    64   ar
    54    39    40    2
    55    39    38    1
    56    37    38    1
    57   103   102    2
    58    47    46    1
    59   102   101    1
    60   105   104    1
    61    41    38    1
    62    41    42    1
    63   119   120    1
    64     2     1    1
    65     2     5    1
    66    45    46    1
    67    49    46    1
    68    49    50    1
    69    43    42    2
    70   101   104    1
    71   101   100    1
    72    42    44   am
    73   104   106    1
    74     5     6    1
    75   122   121    2
    76    50    51    1
    77     7     6   ar
    78   120   121    1
    79   120   123    1
    80     6     8   ar
    81   124   123    1
    82   123   125    1
    83    99    97    1
    84    51    52    1
    85    75    73    1
    86    52    53    2
    87    91    90    1
    88    97    98    1
    89    97    94    1
    90    86    87    1
    91    86    83    1
    92    87    88    1
    93    53    55    1
    94    53    54    1
    95    90    92    1
    96    90    89    2
    97    73    72    1
    98    85    84    2
    99    74    72    1
   100    94    93    1
   101    94    95    1
   102    93    84   am
   103    84    83    1
   104    88    89    1
   105    83    82    1
   106    82    78   am
   107    72    69    1
   108    81    80    1
   109    95    96    2
   110    80    77    1
   111    77    78    1
   112    77    76    1
   113    78    79    2
   114    68    69    1
   115    69    70    1
   116    70    71    2
