@<TRIPOS>MOLECULE
tmp/3lihA00.pdb
 186 181 0 0 0
SMALL
GASTEIGER

@<TRIPOS>ATOM
      1  N         79.3180   12.4510   61.2450 N.3    41  ASP41      -0.1239
      2  CA        78.8690   11.9060   59.9740 C.3    41  ASP41       0.1674
      3  C         77.9970   10.6690   60.0610 C.2    41  ASP41       0.2266
      4  O         78.3480    9.7000   60.7310 O.2    41  ASP41      -0.2867
      5  CB        80.0760   11.5230   59.1150 C.3    41  ASP41       0.1410
      6  CG        80.7440   12.7020   58.4690 C.2    41  ASP41       0.3668
      7  OD1       80.7260   13.8040   59.0530 O.co2  41  ASP41      -0.2456
      8  OD2       81.3100   12.5130   57.3740 O.co2  41  ASP41      -0.2456
      9  N         78.9600    8.4400   63.0610 N.3    59  LEU59      -0.1245
     10  CA        80.1280    8.6320   63.9000 C.3    59  LEU59       0.1561
     11  C         79.6090    9.2180   65.2130 C.2    59  LEU59       0.2260
     12  O         78.6260    9.9680   65.2230 O.2    59  LEU59      -0.2867
     13  CB        81.1080    9.5890   63.2260 C.3    59  LEU59       0.0270
     14  CG        81.7070    9.0930   61.8990 C.3    59  LEU59       0.0019
     15  CD1       82.7040   10.1360   61.3770 C.3    59  LEU59       0.0001
     16  CD2       82.4030    7.7330   62.0990 C.3    59  LEU59       0.0001
     17  N         86.8940    6.5640   60.6110 N.3    99  PHE99      -0.1227
     18  CA        86.0580    7.5060   59.8720 C.3    99  PHE99       0.1736
     19  C         84.9170    6.7910   59.1530 C.2    99  PHE99       0.2595
     20  O         84.7120    5.5940   59.3590 O.2    99  PHE99      -0.2718
     21  CB        86.9150    8.3330   58.8900 C.3    99  PHE99       0.0547
     22  CG        87.7540    9.3980   59.5650 C.ar   99  PHE99      -0.0202
     23  CD1       87.7120    9.5660   60.9530 C.ar   99  PHE99      -0.0042
     24  CD2       88.5730   10.2370   58.8190 C.ar   99  PHE99      -0.0042
     25  CE1       88.4720   10.5500   61.5850 C.ar   99  PHE99      -0.0003
     26  CE2       89.3410   11.2360   59.4370 C.ar   99  PHE99      -0.0003
     27  CZ        89.2910   11.3920   60.8190 C.ar   99  PHE99      -0.0000
     28  N         84.1710    7.5220   58.3290 N.am  100  ASP100     -0.1974
     29  CA        83.0170    6.9670   57.6030 C.3   100  ASP100      0.1709
     30  C         83.2940    5.6620   56.8550 C.2   100  ASP100      0.2293
     31  O         84.4410    5.3450   56.5320 O.2   100  ASP100     -0.2864
     32  CB        82.4820    7.9780   56.5930 C.3   100  ASP100      0.1436
     33  CG        82.1960    9.3270   57.2070 C.2   100  ASP100      0.3671
     34  OD1       82.8870    9.7130   58.1740 O.co2 100  ASP100     -0.2456
     35  OD2       81.2930   10.0200   56.7100 O.co2 100  ASP100     -0.2456
     36  N         96.9320   11.9170   62.3140 N.3   122  LEU122     -0.1231
     37  CA        96.1730   13.1640   62.3410 C.3   122  LEU122      0.1678
     38  C         97.2170   14.2430   62.5580 C.2   122  LEU122      0.2434
     39  O         98.2950   13.9710   63.0750 O.2   122  LEU122     -0.2733
     40  CB        95.1640   13.1900   63.4910 C.3   122  LEU122      0.0284
     41  CG        93.8730   12.3690   63.3930 C.3   122  LEU122      0.0019
     42  CD1       93.0330   12.6430   64.6420 C.3   122  LEU122      0.0001
     43  CD2       93.0700   12.7330   62.1390 C.3   122  LEU122      0.0001
     44  N         96.9120   15.4860   62.1800 N.am  123  PRO123     -0.2718
     45  CA        95.6440   15.8950   61.5760 C.3   123  PRO123      0.1535
     46  C         95.5860   15.5740   60.0840 C.2   123  PRO123      0.2598
     47  O         96.5960   15.2230   59.4790 O.2   123  PRO123     -0.2715
     48  CB        95.6230   17.3900   61.8480 C.3   123  PRO123      0.0310
     49  CG        97.0570   17.7510   61.6040 C.3   123  PRO123      0.0237
     50  CD        97.8250   16.6360   62.3100 C.3   123  PRO123      0.0939
     51  N         94.3900   15.6870   59.5140 N.am  124  ILE124     -0.1964
     52  CA        94.1720   15.4510   58.0910 C.3   124  ILE124      0.1727
     53  C         93.2770   16.5730   57.5710 C.2   124  ILE124      0.2616
     54  O         92.1600   16.7520   58.0520 O.2   124  ILE124     -0.2715
     55  CB        93.4370   14.1250   57.8290 C.3   124  ILE124      0.0290
     56  CG1       94.1540   12.9710   58.5380 C.3   124  ILE124      0.0022
     57  CG2       93.3530   13.8830   56.3240 C.3   124  ILE124      0.0023
     58  CD1       93.3950   11.6660   58.5170 C.3   124  ILE124      0.0001
     59  N         93.7630   17.3380   56.6000 N.am  125  HIS125     -0.1973
     60  CA        92.9600   18.4230   56.0460 C.3   125  HIS125      0.1656
     61  C         93.4820   18.7930   54.6780 C.2   125  HIS125      0.2291
     62  O         94.6770   18.6830   54.4130 O.2   125  HIS125     -0.2864
     63  CB        92.9920   19.6410   56.9680 C.3   125  HIS125      0.0771
     64  CG        91.9680   20.6780   56.6260 C.ar  125  HIS125      0.0820
     65  ND1       92.2320   21.7360   55.7860 N.ar  125  HIS125     -0.2267
     66  CD2       90.6680   20.7970   56.9840 C.ar  125  HIS125      0.1154
     67  CE1       91.1380   22.4640   55.6390 C.ar  125  HIS125      0.1986
     68  NE2       90.1730   21.9150   56.3540 N.ar  125  HIS125     -0.2212
     69  N         89.1340    9.2010   51.7520 N.3   171  ARG171     -0.1231
     70  CA        88.2570    8.5660   52.7250 C.3   171  ARG171      0.1694
     71  C         86.7540    8.5070   52.4110 C.2   171  ARG171      0.2591
     72  O         86.2880    9.0230   51.3950 O.2   171  ARG171     -0.2718
     73  CB        88.4430    9.2930   54.0530 C.3   171  ARG171      0.0321
     74  CG        88.2610   10.8090   53.9190 C.3   171  ARG171      0.0489
     75  CD        88.1320   11.5290   55.2670 C.3   171  ARG171      0.2205
     76  NE        87.8920   12.9560   55.0540 N.pl3 171  ARG171     -0.0865
     77  CZ        88.8560   13.8500   54.8460 C.cat 171  ARG171      0.5346
     78  NH1       90.1270   13.4690   54.8470 N.pl3 171  ARG171      0.1354
     79  NH2       88.5460   15.1170   54.5660 N.pl3 171  ARG171      0.1354
     80  N         86.0150    7.8750   53.3250 N.am  172  ALA172     -0.1980
     81  CA        84.5600    7.7110   53.2400 C.3   172  ALA172      0.1597
     82  C         84.1180    6.8550   52.0650 C.2   172  ALA172      0.2287
     83  O         83.3120    7.2820   51.2440 O.2   172  ALA172     -0.2864
     84  CB        83.8860    9.0670   53.1690 C.3   172  ALA172      0.0319
     85  N         83.9010   15.4880   49.7720 N.3   273  GLU273     -0.1231
     86  CA        83.7070   14.6140   50.9090 C.3   273  GLU273      0.1699
     87  C         82.4390   13.7830   50.8400 C.2   273  GLU273      0.2592
     88  O         81.5000   14.0990   50.1110 O.2   273  GLU273     -0.2718
     89  CB        83.6920   15.4310   52.1950 C.3   273  GLU273      0.0402
     90  CG        84.9740   16.1550   52.4710 C.3   273  GLU273      0.1161
     91  CD        85.0950   16.5840   53.9230 C.2   273  GLU273      0.3649
     92  OE1       84.3650   17.5100   54.3420 O.co2 273  GLU273     -0.2457
     93  OE2       85.9220   15.9740   54.6450 O.co2 273  GLU273     -0.2457
     94  N         82.4250   12.6470   51.5170 N.am  274  THR274     -0.1953
     95  CA        81.4340   11.6090   51.7490 C.3   274  THR274      0.1897
     96  C         80.4820   11.3760   50.5930 C.2   274  THR274      0.2313
     97  O         79.2750   11.5270   50.7350 O.2   274  THR274     -0.2863
     98  CB        80.6140   11.9470   53.0060 C.3   274  THR274      0.1794
     99  OG1       79.8210   13.1230   52.7610 O.3   274  THR274     -0.2208
    100  CG2       81.5680   12.1960   54.1980 C.3   274  THR274      0.0378
    101  N         84.3630   21.2320   50.5380 N.3   299  GLU299     -0.1245
    102  CA        84.9630   22.1280   51.5110 C.3   299  GLU299      0.1567
    103  C         85.4640   23.3870   50.8310 C.2   299  GLU299      0.2260
    104  O         86.3510   23.3270   49.9770 O.2   299  GLU299     -0.2867
    105  CB        86.1340   21.4380   52.2080 C.3   299  GLU299      0.0388
    106  CG        85.7930   20.0800   52.7790 C.3   299  GLU299      0.1160
    107  CD        86.8950   19.5500   53.6610 C.2   299  GLU299      0.3649
    108  OE1       87.4910   18.4950   53.3320 O.co2 299  GLU299     -0.2457
    109  OE2       87.1610   20.2050   54.6860 O.co2 299  GLU299     -0.2457
    110  N         93.8770   24.3690   58.2220 N.3   308  GLN308     -0.1245
    111  CA        92.9920   23.4070   58.8730 C.3   308  GLN308      0.1566
    112  C         91.5910   23.9380   59.1150 C.2   308  GLN308      0.2260
    113  O         90.8650   23.4310   59.9700 O.2   308  GLN308     -0.2867
    114  CB        93.5990   22.9090   60.1920 C.3   308  GLN308      0.0367
    115  CG        94.8660   22.1070   59.9820 C.3   308  GLN308      0.0905
    116  CD        95.3810   21.4760   61.2540 C.2   308  GLN308      0.2608
    117  OE1       94.6910   20.6720   61.8880 O.2   308  GLN308     -0.2717
    118  NE2       96.5990   21.8280   61.6330 N.am  308  GLN308     -0.0878
    119  N         87.9280   24.9980   57.1250 N.3   310  SER310     -0.1217
    120  CA        87.0860   24.9990   55.9320 C.3   310  SER310      0.1889
    121  C         85.9760   25.9710   56.2850 C.2   310  SER310      0.2288
    122  O         85.1010   25.6580   57.0840 O.2   310  SER310     -0.2866
    123  CB        86.4780   23.6170   55.6620 C.3   310  SER310      0.2089
    124  OG        87.4580   22.6880   55.2620 O.3   310  SER310     -0.2183
    125  N         80.9860   24.5540   54.1060 N.3   313  HIS313     -0.1241
    126  CA        80.6920   23.1220   53.9900 C.3   313  HIS313      0.1621
    127  C         79.3710   22.9940   53.2270 C.2   313  HIS313      0.2264
    128  O         78.2950   23.0260   53.8210 O.2   313  HIS313     -0.2867
    129  CB        80.5630   22.4620   55.3700 C.3   313  HIS313      0.0745
    130  CG        81.8270   22.4750   56.1740 C.ar  313  HIS313      0.0817
    131  ND1       82.3250   23.6170   56.7610 N.ar  313  HIS313     -0.2268
    132  CD2       82.6920   21.4810   56.4930 C.ar  313  HIS313      0.1154
    133  CE1       83.4410   23.3270   57.4080 C.ar  313  HIS313      0.1986
    134  NE2       83.6870   22.0380   57.2610 N.ar  313  HIS313     -0.2212
    135  N         75.5810   19.0030   56.1010 N.3   350  TYR350     -0.1227
    136  CA        76.7330   18.4130   55.4190 C.3   350  TYR350      0.1736
    137  C         76.8280   16.9000   55.5870 C.2   350  TYR350      0.2595
    138  O         75.9720   16.2700   56.2050 O.2   350  TYR350     -0.2718
    139  CB        77.9950   19.0360   56.0160 C.3   350  TYR350      0.0548
    140  CG        79.2560   18.8990   55.2120 C.ar  350  TYR350     -0.0200
    141  CD1       80.3430   18.1810   55.7050 C.ar  350  TYR350     -0.0009
    142  CD2       79.3910   19.5560   53.9860 C.ar  350  TYR350     -0.0009
    143  CE1       81.5420   18.1280   55.0020 C.ar  350  TYR350      0.0417
    144  CE2       80.5730   19.5070   53.2760 C.ar  350  TYR350      0.0417
    145  CZ        81.6460   18.7990   53.7840 C.ar  350  TYR350      0.1957
    146  OH        82.8320   18.8070   53.0820 O.3   350  TYR350     -0.2866
    147  N         77.7920   16.2220   54.9590 N.am  351  ALA351     -0.1980
    148  CA        78.0340   14.7850   55.0530 C.3   351  ALA351      0.1597
    149  C         76.8180   13.8590   54.9590 C.2   351  ALA351      0.2287
    150  O         76.6840   12.9130   55.7390 O.2   351  ALA351     -0.2864
    151  CB        78.8060   14.4940   56.3540 C.3   351  ALA351      0.0319
    152  N         73.5220   15.3680   57.8160 N.3   379  TRP379     -0.1241
    153  CA        74.0540   15.7420   59.1230 C.3   379  TRP379      0.1605
    154  C         73.8320   17.2210   59.3950 C.2   379  TRP379      0.2264
    155  O         73.9500   18.0560   58.4990 O.2   379  TRP379     -0.2867
    156  CB        75.5620   15.4550   59.1790 C.3   379  TRP379      0.0550
    157  CG        76.2430   15.8240   60.4730 C.ar  379  TRP379      0.0003
    158  CD1       75.7870   15.5690   61.7320 C.ar  379  TRP379      0.0946
    159  CD2       77.5650   16.3800   60.6330 C.ar  379  TRP379      0.0152
    160  NE1       76.7390   15.9170   62.6670 N.ar  379  TRP379     -0.2442
    161  CE2       77.8390   16.4160   62.0220 C.ar  379  TRP379      0.0810
    162  CE3       78.5410   16.8420   59.7410 C.ar  379  TRP379      0.0012
    163  CZ2       79.0540   16.8940   62.5410 C.ar  379  TRP379      0.0191
    164  CZ3       79.7540   17.3200   60.2570 C.ar  379  TRP379      0.0001
    165  CH2       79.9960   17.3390   61.6450 C.ar  379  TRP379      0.0015
    166  N         80.6900   22.8130   62.7510 N.3   385  TYR385     -0.1227
    167  CA        81.8970   22.0570   62.4160 C.3   385  TYR385      0.1736
    168  C         83.0460   22.3130   63.3940 C.2   385  TYR385      0.2595
    169  O         84.2210   22.3490   63.0030 O.2   385  TYR385     -0.2718
    170  CB        82.3300   22.3900   60.9800 C.3   385  TYR385      0.0548
    171  CG        81.1800   22.3090   60.0060 C.ar  385  TYR385     -0.0200
    172  CD1       80.6720   21.0790   59.5960 C.ar  385  TYR385     -0.0009
    173  CD2       80.5380   23.4610   59.5650 C.ar  385  TYR385     -0.0009
    174  CE1       79.5410   21.0030   58.7770 C.ar  385  TYR385      0.0417
    175  CE2       79.4200   23.3940   58.7510 C.ar  385  TYR385      0.0417
    176  CZ        78.9230   22.1640   58.3650 C.ar  385  TYR385      0.1957
    177  OH        77.7860   22.1020   57.5850 O.3   385  TYR385     -0.2866
    178  N         82.6890   22.4740   64.6670 N.am  386  GLU386     -0.1979
    179  CA        83.6450   22.7170   65.7450 C.3   386  GLU386      0.1602
    180  C         84.3690   24.0520   65.6220 C.2   386  GLU386      0.2287
    181  O         85.5300   24.1730   66.0060 O.2   386  GLU386     -0.2864
    182  CB        84.6670   21.5650   65.8250 C.3   386  GLU386      0.0415
    183  CG        84.0650   20.2280   66.2780 C.3   386  GLU386      0.1163
    184  CD        85.0210   19.0470   66.1030 C.2   386  GLU386      0.3649
    185  OE1       86.1720   19.1290   66.5870 O.co2 386  GLU386     -0.2457
    186  OE2       84.6190   18.0320   65.4860 O.co2 386  GLU386     -0.2457
@<TRIPOS>BOND
     1    85    86    1
     2   104   103    2
     3    88    87    2
     4   101   102    1
     5    96    97    2
     6    96    95    1
     7   103   102    1
     8    87    86    1
     9    87    94   am
    10    86    89    1
    11    83    82    2
    12    72    71    2
    13   102   105    1
    14    94    95    1
    15    95    98    1
    16    69    70    1
    17    82    81    1
    18    89    90    1
    19   105   106    1
    20    71    70    1
    21    71    80   am
    22    90    91    1
    23    70    73    1
    24    99    98    1
    25   106   107    1
    26    98   100    1
    27   146   145    1
    28    84    81    1
    29   127   128    2
    30   127   126    1
    31    81    80    1
    32   144   145   ar
    33   144   142   ar
    34   108   107   ar
    35   107   109   ar
    36   145   143   ar
    37    74    73    1
    38    74    75    1
    39    91    92   ar
    40    91    93   ar
    41   142   140   ar
    42   126   125    1
    43   126   129    1
    44    62    61    2
    45    79    77    1
    46    61    60    1
    47    77    78    1
    48    77    76    2
    49   147   148    1
    50   147   137   am
    51   149   148    1
    52   149   150    2
    53   143   141   ar
    54   148   151    1
    55    76    75    1
    56   140   141   ar
    57   140   139    1
    58   124   123    1
    59   129   130    1
    60   136   137    1
    61   136   139    1
    62   136   135    1
    63   137   138    2
    64    67    65   ar
    65    67    68   ar
    66   123   120    1
    67    65    64   ar
    68   120   121    1
    69   120   119    1
    70    60    59    1
    71    60    63    1
    72   130   132   ar
    73   130   131   ar
    74   121   122    2
    75    57    55    1
    76    68    66   ar
    77   132   134   ar
    78    31    30    2
    79    32    33    1
    80    32    29    1
    81    59    53   am
    82    64    63    1
    83    64    66   ar
    84    35    33   ar
    85   131   133   ar
    86    30    29    1
    87    33    34   ar
    88   134   133   ar
    89     8     6   ar
    90    53    54    2
    91    53    52    1
    92   177   176    1
    93    29    28    1
    94   152   153    1
    95    55    52    1
    96    55    56    1
    97    52    51    1
    98   110   111    1
    99    28    19   am
   100   176   175   ar
   101   176   174   ar
   102     6     7   ar
   103     6     5    1
   104   155   154    2
   105    58    56    1
   106   175   173   ar
   107   174   172   ar
   108    24    26   ar
   109    24    22   ar
   110   111   112    1
   111   111   114    1
   112    21    22    1
   113    21    18    1
   114   112   113    2
   115     5     2    1
   116   153   156    1
   117   153   154    1
   118    19    20    2
   119    19    18    1
   120   156   157    1
   121    26    27   ar
   122    47    46    2
   123    51    46   am
   124    22    23   ar
   125   173   171   ar
   126   172   171   ar
   127   162   164   ar
   128   162   159   ar
   129    18    17    1
   130     2     3    1
   131     2     1    1
   132   115   114    1
   133   115   116    1
   134   171   170    1
   135     3     4    2
   136    46    45    1
   137   164   165   ar
   138   157   159   ar
   139   157   158   ar
   140   159   161   ar
   141    27    25   ar
   142    23    25   ar
   143   170   167    1
   144   116   118   am
   145   116   117    2
   146    15    14    1
   147    45    48    1
   148    45    44    1
   149    49    48    1
   150    49    50    1
   151   165   163   ar
   152   158   160   ar
   153    14    16    1
   154    14    13    1
   155   161   163   ar
   156   161   160   ar
   157    43    41    1
   158    44    50    1
   159    44    38   am
   160    36    37    1
   161    37    38    1
   162    37    40    1
   163   167   166    1
   164   167   168    1
   165    38    39    2
   166   169   168    2
   167     9    10    1
   168    13    10    1
   169    41    40    1
   170    41    42    1
   171   168   178   am
   172    10    11    1
   173   178   179    1
   174    11    12    2
   175   186   184   ar
   176   180   179    1
   177   180   181    2
   178   179   182    1
   179   182   183    1
   180   184   183    1
   181   184   185   ar
