@<TRIPOS>MOLECULE
tmp/3lijA00.pdb
 140 130 0 0 0
SMALL
GASTEIGER

@<TRIPOS>ATOM
      1  N          2.6000   16.3940   28.8960 N.3    31  LEU31      -0.1231
      2  CA         1.4110   15.5530   28.7520 C.3    31  LEU31       0.1693
      3  C          1.5140   14.2420   29.5360 C.2    31  LEU31       0.2593
      4  O          0.4900   13.7130   29.9670 O.2    31  LEU31      -0.2718
      5  CB         1.1620   15.2660   27.2620 C.3    31  LEU31       0.0284
      6  CG        -0.2160   15.6180   26.7000 C.3    31  LEU31       0.0019
      7  CD1       -0.4350   17.1250   26.6390 C.3    31  LEU31       0.0001
      8  CD2       -0.3800   15.0500   25.3110 C.3    31  LEU31       0.0001
      9  N          2.7370   13.7340   29.7000 N.am   32  GLY32      -0.1942
     10  CA         3.0030   12.4870   30.4080 C.3    32  GLY32       0.2014
     11  C          4.3880   12.3730   31.0120 C.2    32  GLY32       0.2639
     12  O          5.3430   12.9770   30.5140 O.2    32  GLY32      -0.2714
     13  N          4.4960   11.5750   32.0920 N.am   33  SER33      -0.1949
     14  CA         5.7320   11.3220   32.8340 C.3    33  SER33       0.1924
     15  C          6.1530    9.8590   32.6990 C.2    33  SER33       0.2314
     16  O          7.3090    9.5190   32.9470 O.2    33  SER33      -0.2863
     17  CB         5.5520   11.6850   34.3060 C.3    33  SER33       0.2116
     18  OG         4.5000   10.9460   34.9070 O.3    33  SER33      -0.2180
     19  N          6.0900   12.4540   27.6860 N.3    36  VAL36      -0.1245
     20  CA         5.2150   12.8610   26.5810 C.3    36  VAL36       0.1561
     21  C          5.0410   14.3790   26.6770 C.2    36  VAL36       0.2260
     22  O          4.6310   14.8950   27.7190 O.2    36  VAL36      -0.2867
     23  CB         3.8650   12.0950   26.5170 C.3    36  VAL36       0.0252
     24  CG1        3.0700   12.4900   25.2720 C.3    36  VAL36       0.0019
     25  CG2        4.0850   10.5850   26.5460 C.3    36  VAL36       0.0019
     26  N          2.2760   15.4820   19.5620 N.3    49  ALA49      -0.1245
     27  CA         2.6700   14.8200   20.8060 C.3    49  ALA49       0.1562
     28  C          4.0340   14.1760   20.5870 C.2    49  ALA49       0.2260
     29  O          4.1930   13.3450   19.6900 O.2    49  ALA49      -0.2867
     30  CB         1.6380   13.7740   21.2080 C.3    49  ALA49       0.0290
     31  N          7.0780   11.9580   22.1680 N.3    51  LYS51      -0.1245
     32  CA         7.5050   11.0220   23.2040 C.3    51  LYS51       0.1561
     33  C          9.0320   11.0290   23.2280 C.2    51  LYS51       0.2260
     34  O          9.6750   10.6190   22.2560 O.2    51  LYS51      -0.2867
     35  CB         6.9380    9.6110   22.9650 C.3    51  LYS51       0.0271
     36  CG         6.9290    8.7360   24.2200 C.3    51  LYS51       0.0035
     37  CD         6.3130    7.3610   23.9720 C.3    51  LYS51       0.0206
     38  CE         4.8690    7.2770   24.4110 C.3    51  LYS51       0.1093
     39  NZ         4.3000    5.9230   24.1830 N.3    51  LYS51      -0.1314
     40  N         -2.7640    4.9030   15.7910 N.3    77  MET77      -0.1245
     41  CA        -1.9240    6.0850   15.9010 C.3    77  MET77       0.1570
     42  C         -1.0340    6.2640   14.6790 C.2    77  MET77       0.2261
     43  O         -0.6760    5.2960   13.9980 O.2    77  MET77      -0.2867
     44  CB        -1.0840    6.0580   17.1920 C.3    77  MET77       0.0387
     45  CG        -0.0560    4.9550   17.2460 C.3    77  MET77       0.0595
     46  SD         1.1400    5.2330   18.5620 S.3    77  MET77      -0.1393
     47  CE         2.2250    6.4650   17.7620 C.3    77  MET77       0.0692
     48  N          4.4740   12.2040   17.1710 N.3    93  MET93      -0.1230
     49  CA         3.1840   11.5680   16.9220 C.3    93  MET93       0.1702
     50  C          2.0750   12.5720   16.6660 C.2    93  MET93       0.2592
     51  O          2.1060   13.6820   17.2050 O.2    93  MET93      -0.2718
     52  CB         2.7840   10.6890   18.1240 C.3    93  MET93       0.0401
     53  CG         3.9080    9.8190   18.6670 C.3    93  MET93       0.0596
     54  SD         3.4920    9.0080   20.2300 S.3    93  MET93      -0.1393
     55  CE         3.5380   10.4020   21.3640 C.3    93  MET93       0.0692
     56  N          1.0720   12.1590   15.8630 N.am   94  GLU94      -0.1966
     57  CA        -0.1320   12.9350   15.5750 C.3    94  GLU94       0.1733
     58  C         -0.8530   13.0610   16.9110 C.2    94  GLU94       0.2616
     59  O         -0.9750   12.0720   17.6340 O.2    94  GLU94      -0.2715
     60  CB        -1.0140   12.1940   14.5500 C.3    94  GLU94       0.0429
     61  CG        -2.2450   12.9710   14.1120 C.3    94  GLU94       0.1163
     62  CD        -3.0780   12.3320   13.0160 C.2    94  GLU94       0.3649
     63  OE1       -3.3050   11.1010   13.0660 O.co2  94  GLU94      -0.2457
     64  OE2       -3.5350   13.0770   12.1200 O.co2  94  GLU94      -0.2457
     65  N         -1.2450   14.2850   17.2710 N.am   95  CYS95      -0.1954
     66  CA        -1.8850   14.5780   18.5490 C.3    95  CYS95       0.1843
     67  C         -3.3880   14.2810   18.5310 C.2    95  CYS95       0.2625
     68  O         -4.0890   14.7250   17.6230 O.2    95  CYS95      -0.2714
     69  CB        -1.5950   16.0190   18.9580 C.3    95  CYS95       0.0997
     70  SG        -2.0990   16.4290   20.6460 S.3    95  CYS95      -0.0797
     71  N         -3.8750   13.5250   19.5300 N.am   96  TYR96      -0.1974
     72  CA        -5.2960   13.1840   19.6770 C.3    96  TYR96       0.1639
     73  C         -5.8150   13.8460   20.9520 C.2    96  TYR96       0.2290
     74  O         -5.2780   13.5990   22.0310 O.2    96  TYR96      -0.2864
     75  CB        -5.5120   11.6520   19.6490 C.3    96  TYR96       0.0560
     76  CG        -4.8990   10.9990   18.4280 C.ar   96  TYR96      -0.0198
     77  CD1       -5.3120   11.3480   17.1440 C.ar   96  TYR96      -0.0009
     78  CD2       -3.8900   10.0470   18.5520 C.ar   96  TYR96      -0.0009
     79  CE1       -4.7250   10.7780   16.0150 C.ar   96  TYR96       0.0417
     80  CE2       -3.3120    9.4530   17.4310 C.ar   96  TYR96       0.0417
     81  CZ        -3.7270    9.8270   16.1620 C.ar   96  TYR96       0.1957
     82  OH        -3.1570    9.2560   15.0470 O.3    96  TYR96      -0.2866
     83  N         -8.4880    9.6350   26.7950 N.3   100  GLU100     -0.1196
     84  CA        -8.4320    8.1670   26.7320 C.3   100  GLU100      0.1783
     85  C         -9.8590    7.6400   26.8220 C.2   100  GLU100      0.2306
     86  O        -10.7280    8.3240   27.3760 O.2   100  GLU100     -0.2863
     87  CB        -7.6440    7.6070   27.9390 C.2   100  GLU100      0.0071
     88  CG        -6.2070    8.0830   28.0460 C.2   100  GLU100      0.0834
     89  CD        -5.4490    7.7270   29.3120 C.2   100  GLU100      0.3877
     90  OE1       -6.0280    7.0700   30.2070 O.co2 100  GLU100     -0.2406
     91  OE2       -4.2650    8.1220   29.4120 O.co2 100  GLU100     -0.2406
     92  N         -6.0940   -1.8300   26.5200 N.3   141  LYS141     -0.1245
     93  CA        -6.8450   -1.3900   27.6840 C.3   141  LYS141      0.1561
     94  C         -7.3660    0.0290   27.3830 C.2   141  LYS141      0.2260
     95  O         -6.8270    0.6960   26.4810 O.2   141  LYS141     -0.2867
     96  CB        -5.9770   -1.4360   28.9690 C.3   141  LYS141      0.0271
     97  CG        -4.6680   -0.6510   28.9310 C.3   141  LYS141      0.0035
     98  CD        -3.9500   -0.7830   30.2620 C.3   141  LYS141      0.0206
     99  CE        -2.6560   -0.0100   30.3100 C.3   141  LYS141      0.1093
    100  NZ        -1.9370   -0.2430   31.5960 N.3   141  LYS141     -0.1314
    101  N         -6.9060    2.9110   28.7010 N.3   143  GLU143     -0.1231
    102  CA        -5.8770    3.9500   28.8300 C.3   143  GLU143      0.1699
    103  C         -5.0880    4.1030   27.5130 C.2   143  GLU143      0.2592
    104  O         -4.6100    5.1970   27.2080 O.2   143  GLU143     -0.2718
    105  CB        -4.8970    3.6160   29.9800 C.3   143  GLU143      0.0402
    106  CG        -5.5200    3.5980   31.3720 C.3   143  GLU143      0.1161
    107  CD        -6.1030    2.2690   31.8280 C.2   143  GLU143      0.3649
    108  OE1       -6.7340    1.5750   30.9990 O.co2 143  GLU143     -0.2457
    109  OE2       -5.9670    1.9400   33.0300 O.co2 143  GLU143     -0.2457
    110  N         -4.9590    3.0040   26.7440 N.am  144  ASN144     -0.1974
    111  CA        -4.2360    2.9460   25.4720 C.3   144  ASN144      0.1688
    112  C         -5.1360    3.0770   24.2480 C.2   144  ASN144      0.2292
    113  O         -4.7420    2.6950   23.1410 O.2   144  ASN144     -0.2864
    114  CB        -3.3670    1.6980   25.4020 C.3   144  ASN144      0.1181
    115  CG        -2.1960    1.7490   26.3370 C.2   144  ASN144      0.2629
    116  OD1       -1.7630    2.8150   26.7790 O.2   144  ASN144     -0.2716
    117  ND2       -1.6430    0.5980   26.6420 N.am  144  ASN144     -0.0877
    118  N         -7.2080    6.1920   22.5500 N.3   146  LEU146     -0.1245
    119  CA        -7.4780    7.6320   22.5780 C.3   146  LEU146      0.1561
    120  C         -8.6080    8.0310   21.6550 C.2   146  LEU146      0.2260
    121  O         -8.8090    7.4180   20.6100 O.2   146  LEU146     -0.2867
    122  CB        -6.2240    8.4440   22.1890 C.3   146  LEU146      0.0270
    123  CG        -4.9420    8.2850   23.0230 C.3   146  LEU146      0.0019
    124  CD1       -3.9750    9.4040   22.7170 C.3   146  LEU146      0.0001
    125  CD2       -5.2280    8.2740   24.5220 C.3   146  LEU146      0.0001
    126  N         -3.0350    3.3890   20.7070 N.3   159  VAL159     -0.1231
    127  CA        -1.7710    4.0420   21.0060 C.3   159  VAL159      0.1692
    128  C         -0.9020    3.1180   21.8900 C.2   159  VAL159      0.2592
    129  O         -1.3520    2.0350   22.2560 O.2   159  VAL159     -0.2718
    130  CB        -2.1250    5.4260   21.6590 C.3   159  VAL159      0.0266
    131  CG1       -2.4510    5.3130   23.1510 C.3   159  VAL159      0.0020
    132  CG2       -1.0680    6.4820   21.3960 C.3   159  VAL159      0.0020
    133  N          0.3320    3.5460   22.2220 N.am  160  ASP160     -0.1974
    134  CA         1.3000    2.8420   23.0730 C.3   160  ASP160      0.1709
    135  C          1.6910    1.4660   22.5570 C.2   160  ASP160      0.2293
    136  O          1.1450    0.4450   22.9840 O.2   160  ASP160     -0.2864
    137  CB         0.8560    2.7940   24.5500 C.3   160  ASP160      0.1436
    138  CG         1.9980    2.7290   25.5570 C.2   160  ASP160      0.3671
    139  OD1        3.0740    2.1870   25.2090 O.co2 160  ASP160     -0.2456
    140  OD2        1.8070    3.1940   26.7000 O.co2 160  ASP160     -0.2456
@<TRIPOS>BOND
     1    64    62   ar
     2    62    63   ar
     3    62    61    1
     4    43    42    2
     5    61    60    1
     6    60    57    1
     7    42    41    1
     8    82    81    1
     9    57    56    1
    10    57    58    1
    11    40    41    1
    12    56    50   am
    13    41    44    1
    14    79    81   ar
    15    79    77   ar
    16    81    80   ar
    17    50    49    1
    18    50    51    2
    19    58    65   am
    20    58    59    2
    21    49    48    1
    22    49    52    1
    23    77    76   ar
    24    44    45    1
    25    45    46    1
    26    65    66    1
    27    80    78   ar
    28    68    67    2
    29    47    46    1
    30    52    53    1
    31    76    78   ar
    32    76    75    1
    33    67    66    1
    34    67    71   am
    35    66    69    1
    36    53    54    1
    37    69    70    1
    38    71    72    1
    39    26    27    1
    40    75    72    1
    41    72    73    1
    42    29    28    2
    43    54    55    1
    44    28    27    1
    45   121   120    2
    46   126   127    1
    47    27    30    1
    48    73    74    2
    49   127   130    1
    50   127   128    1
    51   132   130    1
    52   120   119    1
    53   130   131    1
    54   128   133   am
    55   128   129    2
    56    31    32    1
    57   122   119    1
    58   122   123    1
    59   133   134    1
    60    34    33    2
    61   118   119    1
    62   135   136    2
    63   135   134    1
    64   124   123    1
    65    35    32    1
    66    35    36    1
    67   123   125    1
    68   134   137    1
    69   113   112    2
    70    32    33    1
    71    37    36    1
    72    37    38    1
    73    39    38    1
    74   112   111    1
    75   137   138    1
    76   139   138   ar
    77    24    23    1
    78     8     6    1
    79   114   111    1
    80   114   115    1
    81   111   110    1
    82   138   140   ar
    83   115   117   am
    84   115   116    2
    85    95    94    2
    86    23    25    1
    87    23    20    1
    88    92    93    1
    89    20    21    1
    90    20    19    1
    91     7     6    1
    92    21    22    2
    93     6     5    1
    94    84    83    1
    95    84    85    1
    96    84    87    1
    97   110   103   am
    98    85    86    2
    99   104   103    2
   100     5     2    1
   101    94    93    1
   102   103   102    1
   103    93    96    1
   104    87    88    2
   105    88    89    1
   106   101   102    1
   107     2     1    1
   108     2     3    1
   109   102   105    1
   110    97    96    1
   111    97    98    1
   112    89    91   ar
   113    89    90   ar
   114     3     9   am
   115     3     4    2
   116     9    10    1
   117   105   106    1
   118    98    99    1
   119    99   100    1
   120    10    11    1
   121    12    11    2
   122   108   107   ar
   123    11    13   am
   124   106   107    1
   125   107   109   ar
   126    13    14    1
   127    15    14    1
   128    15    16    2
   129    14    17    1
   130    17    18    1
