@<TRIPOS>MOLECULE
tmp/3lilA00.pdb
 177 178 0 0 0
SMALL
GASTEIGER

@<TRIPOS>ATOM
      1  N         14.8440   29.1060   11.4390 N.3    74  GLY74      -0.1210
      2  CA        13.7200   29.9050   10.9770 C.3    74  GLY74       0.1956
      3  C         13.6520   29.9630    9.4670 C.2    74  GLY74       0.2612
      4  O         14.3880   29.2660    8.7670 O.2    74  GLY74      -0.2717
      5  N         12.7660   30.7900    8.9410 N.am   75  GLY75      -0.1942
      6  CA        12.6720   30.9210    7.4980 C.3    75  GLY75       0.2014
      7  C         12.3940   29.5960    6.8120 C.2    75  GLY75       0.2639
      8  O         11.4480   28.9000    7.1700 O.2    75  GLY75      -0.2714
      9  N         13.2160   29.2560    5.8170 N.am   76  ILE76      -0.1963
     10  CA        13.0640   28.0060    5.0730 C.3    76  ILE76       0.1727
     11  C         13.2670   26.8160    6.0030 C.2    76  ILE76       0.2616
     12  O         14.2740   26.7330    6.6780 O.2    76  ILE76      -0.2715
     13  CB        14.1390   27.9020    3.9610 C.3    76  ILE76       0.0290
     14  CG1       13.9200   28.9670    2.8810 C.3    76  ILE76       0.0022
     15  CG2       14.1420   26.5180    3.3400 C.3    76  ILE76       0.0023
     16  CD1       15.1180   29.1150    1.9600 C.3    76  ILE76       0.0001
     17  N         12.3350   25.8730    6.0380 N.am   77  LEU77      -0.1963
     18  CA        12.4930   24.7330    6.9260 C.3    77  LEU77       0.1728
     19  C         13.0700   23.5290    6.2010 C.2    77  LEU77       0.2616
     20  O         13.7640   22.7110    6.8020 O.2    77  LEU77      -0.2715
     21  CB        11.1400   24.3250    7.5070 C.3    77  LEU77       0.0311
     22  CG        10.4270   25.4560    8.2370 C.3    77  LEU77       0.0022
     23  CD1        9.0080   25.0400    8.5910 C.3    77  LEU77       0.0001
     24  CD2       11.2420   25.8350    9.4730 C.3    77  LEU77       0.0001
     25  N         12.7420   23.4140    4.9180 N.am   78  ALA78      -0.1977
     26  CA        13.1120   22.2530    4.1060 C.3    78  ALA78       0.1597
     27  C         12.8310   22.6060    2.6530 C.2    78  ALA78       0.2287
     28  O         12.1380   23.5860    2.3820 O.2    78  ALA78      -0.2864
     29  CB        12.2620   21.0460    4.5240 C.3    78  ALA78       0.0319
     30  N          5.0090   16.5380    9.7560 N.3   110  LEU110     -0.1231
     31  CA         4.2260   17.4320    8.9180 C.3   110  LEU110      0.1693
     32  C          5.1060   18.0280    7.8360 C.2   110  LEU110      0.2592
     33  O          4.6820   18.1680    6.6940 O.2   110  LEU110     -0.2718
     34  CB         3.6530   18.5760    9.7450 C.3   110  LEU110      0.0284
     35  CG         2.5320   18.1820   10.7000 C.3   110  LEU110      0.0019
     36  CD1        2.2220   19.3540   11.6100 C.3   110  LEU110      0.0001
     37  CD2        1.2930   17.7550    9.8970 C.3   110  LEU110      0.0001
     38  N          6.3290   18.3920    8.1990 N.am  111  THR111     -0.1953
     39  CA         7.2180   18.9960    7.2160 C.3   111  THR111      0.1897
     40  C          7.5060   17.9620    6.1210 C.2   111  THR111      0.2313
     41  O          7.5090   18.2810    4.9300 O.2   111  THR111     -0.2863
     42  CB         8.5310   19.4720    7.8520 C.3   111  THR111      0.1794
     43  OG1        8.2380   20.3700    8.9380 O.3   111  THR111     -0.2208
     44  CG2        9.3820   20.2000    6.8030 C.3   111  THR111      0.0378
     45  N          4.6570   17.6220    3.6190 N.3   114  HIS114     -0.1226
     46  CA         4.7520   18.7240    2.6500 C.3   114  HIS114      0.1752
     47  C          5.8430   18.4660    1.6140 C.2   114  HIS114      0.2595
     48  O          5.6350   18.6290    0.4050 O.2   114  HIS114     -0.2718
     49  CB         5.0500   20.0280    3.3970 C.3   114  HIS114      0.0759
     50  CG         5.1780   21.2280    2.5090 C.ar  114  HIS114      0.0818
     51  ND1        4.1230   22.0820    2.2590 N.ar  114  HIS114     -0.2268
     52  CD2        6.2390   21.7280    1.8300 C.ar  114  HIS114      0.1154
     53  CE1        4.5320   23.0600    1.4700 C.ar  114  HIS114      0.1986
     54  NE2        5.8070   22.8590    1.1800 N.ar  114  HIS114     -0.2212
     55  N          7.0180   18.0710    2.0860 N.am  115  GLU115     -0.1979
     56  CA         8.1690   17.9230    1.2010 C.3   115  GLU115      0.1602
     57  C          7.9780   16.7340    0.2610 C.2   115  GLU115      0.2287
     58  O          8.3330   16.8040   -0.9170 O.2   115  GLU115     -0.2864
     59  CB         9.4640   17.7720    1.9970 C.3   115  GLU115      0.0415
     60  CG         9.9150   19.0560    2.6940 C.3   115  GLU115      0.1163
     61  CD         9.9060   20.2630    1.7730 C.2   115  GLU115      0.3649
     62  OE1        9.5080   21.3630    2.2440 O.co2 115  GLU115     -0.2457
     63  OE2       10.3100   20.1150    0.6020 O.co2 115  GLU115     -0.2457
     64  N          2.9380   24.3210   -4.6030 N.3   124  HIS124     -0.1241
     65  CA         2.2160   24.9100   -3.4770 C.3   124  HIS124      0.1621
     66  C          0.7450   25.1190   -3.7690 C.2   124  HIS124      0.2264
     67  O          0.3450   25.2980   -4.9130 O.2   124  HIS124     -0.2867
     68  CB         2.8680   26.2210   -3.0300 C.3   124  HIS124      0.0745
     69  CG         4.1310   26.0110   -2.2740 C.ar  124  HIS124      0.0817
     70  ND1        5.2410   26.8200   -2.4020 N.ar  124  HIS124     -0.2268
     71  CD2        4.4800   25.0230   -1.4170 C.ar  124  HIS124      0.1154
     72  CE1        6.2050   26.3620   -1.6220 C.ar  124  HIS124      0.1986
     73  NE2        5.7630   25.2720   -1.0130 N.ar  124  HIS124     -0.2212
     74  N         -5.3370   27.6000    2.4160 N.3   128  PRO128     -0.2102
     75  CA        -4.7280   27.5210    3.7510 C.3   128  PRO128      0.1504
     76  C         -5.0020   26.2370    4.5270 C.2   128  PRO128      0.2576
     77  O         -4.3580   26.0020    5.5460 O.2   128  PRO128     -0.2718
     78  CB        -5.3650   28.7120    4.4890 C.3   128  PRO128      0.0282
     79  CG        -6.5660   29.0630    3.6710 C.3   128  PRO128      0.0208
     80  CD        -6.1240   28.8330    2.2700 C.3   128  PRO128      0.0893
     81  N         -5.9430   25.4170    4.0750 N.am  129  LYS129     -0.1966
     82  CA        -6.2150   24.1670    4.7770 C.3   129  LYS129      0.1728
     83  C         -5.3740   23.0110    4.2170 C.2   129  LYS129      0.2616
     84  O         -5.3850   21.9020    4.7520 O.2   129  LYS129     -0.2715
     85  CB        -7.7070   23.8330    4.7210 C.3   129  LYS129      0.0311
     86  CG        -8.5980   24.9360    5.3010 C.3   129  LYS129      0.0038
     87  CD       -10.0470   24.4830    5.4270 C.3   129  LYS129      0.0206
     88  CE       -10.5230   23.8320    4.1470 C.3   129  LYS129      0.1093
     89  NZ       -10.3240   24.7210    2.9740 N.3   129  LYS129     -0.1314
     90  N         -4.6380   23.2820    3.1460 N.am  130  ALA130     -0.1963
     91  CA        -3.8250   22.2400    2.5120 C.3   130  ALA130      0.1728
     92  C         -2.4220   22.0980    3.1020 C.2   130  ALA130      0.2616
     93  O         -1.7730   23.0960    3.4410 O.2   130  ALA130     -0.2715
     94  CB        -3.7520   22.4820    1.0160 C.3   130  ALA130      0.0334
     95  N         -1.9380   20.8610    3.1990 N.am  131  VAL131     -0.1977
     96  CA        -0.5770   20.6250    3.6800 C.3   131  VAL131      0.1596
     97  C          0.4520   21.2290    2.7090 C.2   131  VAL131      0.2287
     98  O          1.5830   21.5200    3.0990 O.2   131  VAL131     -0.2864
     99  CB        -0.2990   19.1250    3.9230 C.3   131  VAL131      0.0276
    100  CG1       -0.0720   18.4130    2.6070 C.3   131  VAL131      0.0022
    101  CG2        0.9110   18.9290    4.8600 C.3   131  VAL131      0.0022
    102  N          0.1410   24.1950    1.3970 N.3   133  PHE133     -0.1228
    103  CA         0.2270   25.6410    1.6240 C.3   133  PHE133      0.1721
    104  C          1.6690   25.9850    2.0000 C.2   133  PHE133      0.2437
    105  O          2.3590   25.1790    2.6300 O.2   133  PHE133     -0.2733
    106  CB        -0.7590   26.0520    2.7280 C.3   133  PHE133      0.0547
    107  CG        -1.0530   27.5380    2.7730 C.ar  133  PHE133     -0.0202
    108  CD1       -1.7980   28.1430    1.7730 C.ar  133  PHE133     -0.0042
    109  CD2       -0.5860   28.3180    3.8240 C.ar  133  PHE133     -0.0042
    110  CE1       -2.0720   29.5070    1.8130 C.ar  133  PHE133     -0.0003
    111  CE2       -0.8580   29.6740    3.8850 C.ar  133  PHE133     -0.0003
    112  CZ        -1.6020   30.2770    2.8750 C.ar  133  PHE133     -0.0000
    113  N          2.1400   27.1810    1.6170 N.am  134  PRO134     -0.2718
    114  CA         3.5620   27.4890    1.7920 C.3   134  PRO134      0.1535
    115  C          4.0530   27.5560    3.2380 C.2   134  PRO134      0.2599
    116  O          5.2080   27.2220    3.4950 O.2   134  PRO134     -0.2715
    117  CB         3.7040   28.8590    1.1240 C.3   134  PRO134      0.0310
    118  CG         2.5930   28.9010    0.1200 C.3   134  PRO134      0.0237
    119  CD         1.4530   28.1930    0.7830 C.3   134  PRO134      0.0939
    120  N          3.2110   27.9910    4.1660 N.am  135  THR135     -0.1937
    121  CA         3.6820   28.1770    5.5350 C.3   135  THR135      0.2028
    122  C          3.2930   27.0510    6.4700 C.2   135  THR135      0.2642
    123  O          2.1580   26.5800    6.4780 O.2   135  THR135     -0.2714
    124  CB         3.2260   29.5170    6.1220 C.3   135  THR135      0.1808
    125  OG1        1.8090   29.6030    6.0230 O.3   135  THR135     -0.2208
    126  CG2        3.8520   30.6640    5.3510 C.3   135  THR135      0.0379
    127  N          4.2760   26.6280    7.2520 N.am  136  TYR136     -0.1959
    128  CA         4.1090   25.6000    8.2590 C.3   136  TYR136      0.1771
    129  C          3.1690   26.0270    9.3900 C.2   136  TYR136      0.2619
    130  O          3.1980   27.1690    9.8530 O.2   136  TYR136     -0.2715
    131  CB         5.4940   25.2850    8.8360 C.3   136  TYR136      0.0574
    132  CG         5.4970   24.4220   10.0770 C.ar  136  TYR136     -0.0198
    133  CD1        5.6190   23.0420    9.9840 C.ar  136  TYR136     -0.0009
    134  CD2        5.4010   24.9920   11.3490 C.ar  136  TYR136     -0.0009
    135  CE1        5.6220   22.2440   11.1200 C.ar  136  TYR136      0.0417
    136  CE2        5.4030   24.1920   12.4950 C.ar  136  TYR136      0.0417
    137  CZ         5.5220   22.8280   12.3660 C.ar  136  TYR136      0.1957
    138  OH         5.5330   22.0300   13.4780 O.3   136  TYR136     -0.2866
    139  N          2.3470   25.0880    9.8410 N.am  137  LYS137     -0.1963
    140  CA         1.6700   25.2340   11.1190 C.3   137  LYS137      0.1728
    141  C          1.4590   23.8600   11.7420 C.2   137  LYS137      0.2616
    142  O          1.3070   22.8510   11.0370 O.2   137  LYS137     -0.2715
    143  CB         0.3680   26.0280   10.9980 C.3   137  LYS137      0.0311
    144  CG        -0.8420   25.2500   10.5830 C.3   137  LYS137      0.0038
    145  CD        -2.0950   26.1200   10.6770 C.3   137  LYS137      0.0206
    146  CE        -2.2090   26.7530   12.0580 C.3   137  LYS137      0.1093
    147  NZ        -3.5470   27.3680   12.3030 N.3   137  LYS137     -0.1314
    148  N          1.4950   23.8190   13.0650 N.am  138  TYR138     -0.1960
    149  CA         1.4090   22.5510   13.7640 C.3   138  TYR138      0.1771
    150  C         -0.0220   22.0640   13.9740 C.2   138  TYR138      0.2619
    151  O         -0.9300   22.8420   14.2760 O.2   138  TYR138     -0.2715
    152  CB         2.1060   22.6140   15.1210 C.3   138  TYR138      0.0574
    153  CG         1.9760   21.3100   15.8570 C.ar  138  TYR138     -0.0198
    154  CD1        2.8170   20.2460   15.5610 C.ar  138  TYR138     -0.0009
    155  CD2        0.9850   21.1190   16.8210 C.ar  138  TYR138     -0.0009
    156  CE1        2.6960   19.0350   16.2200 C.ar  138  TYR138      0.0417
    157  CE2        0.8570   19.9060   17.4830 C.ar  138  TYR138      0.0417
    158  CZ         1.7220   18.8720   17.1820 C.ar  138  TYR138      0.1957
    159  OH         1.6200   17.6600   17.8240 O.3   138  TYR138     -0.2866
    160  N         -0.1980   20.7600   13.8370 N.am  139  VAL139     -0.1977
    161  CA        -1.4180   20.0670   14.2450 C.3   139  VAL139      0.1596
    162  C         -1.0220   18.6520   14.6330 C.2   139  VAL139      0.2287
    163  O         -0.1320   18.0740   14.0070 O.2   139  VAL139     -0.2864
    164  CB        -2.4450   20.0110   13.1100 C.3   139  VAL139      0.0276
    165  CG1       -1.8120   19.4650   11.8320 C.3   139  VAL139      0.0022
    166  CG2       -3.6470   19.1700   13.5260 C.3   139  VAL139      0.0022
    167  N         -4.2670   15.1560   12.1580 N.3   144  PHE144     -0.1241
    168  CA        -3.9220   15.5540   10.7970 C.3   144  PHE144      0.1605
    169  C         -4.6970   14.7680    9.7290 C.2   144  PHE144      0.2264
    170  O         -4.8040   13.5500    9.8100 O.2   144  PHE144     -0.2867
    171  CB        -2.4170   15.3920   10.5430 C.3   144  PHE144      0.0534
    172  CG        -2.0200   15.6920    9.1210 C.ar  144  PHE144     -0.0203
    173  CD1       -1.9120   17.0020    8.6870 C.ar  144  PHE144     -0.0042
    174  CD2       -1.8170   14.6740    8.2100 C.ar  144  PHE144     -0.0042
    175  CE1       -1.5830   17.2920    7.3770 C.ar  144  PHE144     -0.0003
    176  CE2       -1.4800   14.9650    6.8810 C.ar  144  PHE144     -0.0003
    177  CZ        -1.3670   16.2790    6.4750 C.ar  144  PHE144     -0.0000
@<TRIPOS>BOND
     1    67    66    2
     2    64    65    1
     3    66    65    1
     4    65    68    1
     5    68    69    1
     6    70    69   ar
     7    70    72   ar
     8    69    71   ar
     9    72    73   ar
    10    71    73   ar
    11    58    57    2
    12   118   119    1
    13   118   117    1
    14    57    56    1
    15    48    47    2
    16    63    61   ar
    17   119   113    1
    18    94    91    1
    19   117   114    1
    20    54    53   ar
    21    54    52   ar
    22    56    59    1
    23    56    55    1
    24   102   103    1
    25    53    51   ar
    26    47    55   am
    27    47    46    1
    28   113   114    1
    29   113   104   am
    30   103   104    1
    31   103   106    1
    32   108   110   ar
    33   108   107   ar
    34    61    62   ar
    35    61    60    1
    36   114   115    1
    37   110   112   ar
    38    52    50   ar
    39    16    14    1
    40    59    60    1
    41   104   105    2
    42    51    50   ar
    43    80    74    1
    44    80    79    1
    45    28    27    2
    46    74    75    1
    47    50    49    1
    48    91    92    1
    49    91    90    1
    50   100    99    1
    51    46    49    1
    52    46    45    1
    53    27    26    1
    54    97    98    2
    55    97    96    1
    56   106   107    1
    57   107   109   ar
    58   112   111   ar
    59    14    13    1
    60    89    88    1
    61    92    95   am
    62    92    93    2
    63    90    83   am
    64    95    96    1
    65   115   116    2
    66   115   120   am
    67    15    13    1
    68    79    78    1
    69    96    99    1
    70    75    78    1
    71    75    76    1
    72   109   111   ar
    73    99   101    1
    74    13    10    1
    75    81    76   am
    76    81    82    1
    77    26    29    1
    78    26    25    1
    79    88    87    1
    80   120   121    1
    81    83    84    2
    82    83    82    1
    83    76    77    2
    84    85    82    1
    85    85    86    1
    86    25    19   am
    87    41    40    2
    88    10     9    1
    89    10    11    1
    90    86    87    1
    91   126   124    1
    92   121   124    1
    93   121   122    1
    94     9     7   am
    95    11    17   am
    96    11    12    2
    97   125   124    1
    98    17    18    1
    99    40    39    1
   100    19    20    2
   101    19    18    1
   102   122   123    2
   103   122   127   am
   104   177   176   ar
   105   177   175   ar
   106    33    32    2
   107    44    42    1
   108     7     8    2
   109     7     6    1
   110   176   174   ar
   111    18    21    1
   112    39    42    1
   113    39    38    1
   114   127   128    1
   115   175   173   ar
   116     6     5    1
   117    21    22    1
   118    32    38   am
   119    32    31    1
   120    42    43    1
   121   174   172   ar
   122    22    23    1
   123    22    24    1
   124   128   131    1
   125   128   129    1
   126   173   172   ar
   127     4     3    2
   128   131   132    1
   129    31    34    1
   130    31    30    1
   131     5     3   am
   132   172   171    1
   133   129   139   am
   134   129   130    2
   135     3     2    1
   136   169   170    2
   137   169   168    1
   138    34    35    1
   139   139   140    1
   140    37    35    1
   141   133   132   ar
   142   133   135   ar
   143   132   134   ar
   144   171   168    1
   145   144   145    1
   146   144   143    1
   147   145   146    1
   148    35    36    1
   149   168   167    1
   150     2     1    1
   151   143   140    1
   152   142   141    2
   153   140   141    1
   154   135   137   ar
   155   134   136   ar
   156   141   148   am
   157   165   164    1
   158   146   147    1
   159   137   136   ar
   160   137   138    1
   161   148   149    1
   162   164   166    1
   163   164   161    1
   164   149   150    1
   165   149   152    1
   166   160   150   am
   167   160   161    1
   168   150   151    2
   169   163   162    2
   170   161   162    1
   171   152   153    1
   172   154   153   ar
   173   154   156   ar
   174   153   155   ar
   175   156   158   ar
   176   155   157   ar
   177   158   157   ar
   178   158   159    1
