@<TRIPOS>MOLECULE
tmp/3limF00.pdb
 103 100 0 0 0
SMALL
GASTEIGER

@<TRIPOS>ATOM
      1  N         23.2690   38.3810   28.7620 N.3    52  ARG52      -0.1231
      2  CA        23.3250   39.0800   30.0430 C.3    52  ARG52       0.1694
      3  C         22.8430   38.1310   31.1320 C.2    52  ARG52       0.2592
      4  O         23.4370   38.0370   32.2110 O.2    52  ARG52      -0.2718
      5  CB        22.4510   40.3360   30.0060 C.3    52  ARG52       0.0321
      6  CG        22.2740   41.0120   31.3660 C.3    52  ARG52       0.0489
      7  CD        23.6020   41.4830   31.9060 C.3    52  ARG52       0.2205
      8  NE        23.4630   42.1510   33.1960 N.pl3  52  ARG52      -0.0865
      9  CZ        23.3890   41.5220   34.3650 C.cat  52  ARG52       0.5346
     10  NH1       23.4330   40.1980   34.4190 N.pl3  52  ARG52       0.1354
     11  NH2       23.2660   42.2230   35.4840 N.pl3  52  ARG52       0.1354
     12  N         21.7550   37.4260   30.8390 N.am   53  SER53      -0.1952
     13  CA        21.1960   36.4310   31.7410 C.3    53  SER53       0.1924
     14  C         20.7090   35.2450   30.9290 C.2    53  SER53       0.2314
     15  O         20.1850   35.4200   29.8320 O.2    53  SER53      -0.2863
     16  CB        20.0220   37.0140   32.5300 C.3    53  SER53       0.2116
     17  OG        20.4090   38.1850   33.2210 O.3    53  SER53      -0.2180
     18  N         18.0910   37.1230   28.8900 N.3    86  VAL86      -0.1245
     19  CA        18.2980   38.4800   28.4140 C.3    86  VAL86       0.1561
     20  C         19.5690   38.4630   27.5910 C.2    86  VAL86       0.2260
     21  O         20.6200   38.0400   28.0700 O.2    86  VAL86      -0.2867
     22  CB        18.5010   39.4460   29.6100 C.3    86  VAL86       0.0252
     23  CG1       18.6680   40.8870   29.1340 C.3    86  VAL86       0.0019
     24  CG2       17.3410   39.3350   30.6020 C.3    86  VAL86       0.0019
     25  N         14.6940   40.5830   26.0930 N.3   104  SER104     -0.1217
     26  CA        14.7720   40.5990   27.5480 C.3   104  SER104      0.1889
     27  C         13.5170   39.9820   28.1090 C.2   104  SER104      0.2288
     28  O         12.4180   40.5200   27.9460 O.2   104  SER104     -0.2866
     29  CB        14.9320   42.0240   28.0740 C.3   104  SER104      0.2089
     30  OG        15.2270   42.0090   29.4650 O.3   104  SER104     -0.2183
     31  N         12.4080   38.8860   31.7210 N.3   106  PRO106     -0.2116
     32  CA        12.8300   38.9850   33.1220 C.3   106  PRO106      0.1372
     33  C         12.2040   37.9120   33.9860 C.2   106  PRO106      0.2244
     34  O         11.2250   37.2760   33.5960 O.2   106  PRO106     -0.2868
     35  CB        12.2780   40.3450   33.5640 C.3   106  PRO106      0.0268
     36  CG        11.2830   40.7640   32.5260 C.3   106  PRO106      0.0207
     37  CD        11.2330   39.7250   31.4330 C.3   106  PRO106      0.0892
     38  N          9.5450   44.2200   36.4310 N.3   112  TYR112     -0.1241
     39  CA        10.0440   44.3010   35.0590 C.3   112  TYR112      0.1605
     40  C          9.0600   43.8070   34.0070 C.2   112  TYR112      0.2264
     41  O          8.0300   43.2160   34.3320 O.2   112  TYR112     -0.2867
     42  CB        11.3660   43.5430   34.9340 C.3   112  TYR112      0.0534
     43  CG        12.3830   43.8960   35.9990 C.ar  112  TYR112     -0.0201
     44  CD1       12.8780   45.1890   36.1160 C.ar  112  TYR112     -0.0009
     45  CD2       12.8590   42.9310   36.8740 C.ar  112  TYR112     -0.0009
     46  CE1       13.8130   45.5120   37.0860 C.ar  112  TYR112      0.0417
     47  CE2       13.7920   43.2410   37.8450 C.ar  112  TYR112      0.0417
     48  CZ        14.2660   44.5330   37.9440 C.ar  112  TYR112      0.1957
     49  OH        15.1950   44.8460   38.9040 O.3   112  TYR112     -0.2866
     50  N         28.2580   43.4560   26.6320 N.3   129  GLN129     -0.1245
     51  CA        27.5560   44.1710   27.6940 C.3   129  GLN129      0.1566
     52  C         27.2350   45.6070   27.2820 C.2   129  GLN129      0.2260
     53  O         26.1330   46.1030   27.5260 O.2   129  GLN129     -0.2867
     54  CB        28.3860   44.1480   28.9870 C.3   129  GLN129      0.0367
     55  CG        27.8290   45.0190   30.1080 C.3   129  GLN129      0.0905
     56  CD        26.5000   44.5180   30.6340 C.2   129  GLN129      0.2608
     57  OE1       26.1870   43.3300   30.5370 O.2   129  GLN129     -0.2717
     58  NE2       25.7100   45.4230   31.2030 N.am  129  GLN129     -0.0878
     59  N         24.3620   45.6910   24.9240 N.3   132  TYR132     -0.1227
     60  CA        23.1540   45.3990   25.6830 C.3   132  TYR132      0.1736
     61  C         22.6370   46.6550   26.4010 C.2   132  TYR132      0.2595
     62  O         21.4570   46.9950   26.3210 O.2   132  TYR132     -0.2718
     63  CB        23.3920   44.2620   26.6840 C.3   132  TYR132      0.0548
     64  CG        22.3680   44.2240   27.7950 C.ar  132  TYR132     -0.0200
     65  CD1       21.0550   43.8480   27.5440 C.ar  132  TYR132     -0.0009
     66  CD2       22.7100   44.5860   29.0930 C.ar  132  TYR132     -0.0009
     67  CE1       20.1110   43.8260   28.5560 C.ar  132  TYR132      0.0417
     68  CE2       21.7760   44.5700   30.1090 C.ar  132  TYR132      0.0417
     69  CZ        20.4790   44.1880   29.8350 C.ar  132  TYR132      0.1957
     70  OH        19.5450   44.1660   30.8380 O.3   132  TYR132     -0.2866
     71  N         23.5260   47.3530   27.0930 N.am  133  GLU133     -0.1979
     72  CA        23.1300   48.5860   27.7670 C.3   133  GLU133      0.1602
     73  C         22.5350   49.5880   26.7770 C.2   133  GLU133      0.2287
     74  O         21.4970   50.1980   27.0450 O.2   133  GLU133     -0.2864
     75  CB        24.3190   49.1830   28.5240 C.3   133  GLU133      0.0415
     76  CG        24.7050   48.3880   29.7720 C.3   133  GLU133      0.1163
     77  CD        26.1010   48.7240   30.2780 C.2   133  GLU133      0.3649
     78  OE1       26.6980   49.6980   29.7740 O.co2 133  GLU133     -0.2457
     79  OE2       26.6040   48.0090   31.1710 O.co2 133  GLU133     -0.2457
     80  N         19.0240   48.2850   25.6400 N.3   136  TYR136     -0.1227
     81  CA        18.0430   48.1270   26.7090 C.3   136  TYR136      0.1736
     82  C         17.7290   49.4420   27.4220 C.2   136  TYR136      0.2595
     83  O         16.5650   49.7970   27.6140 O.2   136  TYR136     -0.2718
     84  CB        18.5190   47.0860   27.7230 C.3   136  TYR136      0.0548
     85  CG        17.5010   46.8060   28.8050 C.ar  136  TYR136     -0.0200
     86  CD1       16.3900   46.0170   28.5450 C.ar  136  TYR136     -0.0009
     87  CD2       17.6350   47.3490   30.0760 C.ar  136  TYR136     -0.0009
     88  CE1       15.4470   45.7620   29.5190 C.ar  136  TYR136      0.0417
     89  CE2       16.6900   47.0970   31.0650 C.ar  136  TYR136      0.0417
     90  CZ        15.5990   46.3020   30.7750 C.ar  136  TYR136      0.1957
     91  OH        14.6530   46.0410   31.7430 O.3   136  TYR136     -0.2866
     92  N         18.7740   50.1660   27.8040 N.am  137  TYR137     -0.1976
     93  CA        18.6010   51.4160   28.5460 C.3   137  TYR137      0.1639
     94  C         18.4580   52.6750   27.6960 C.2   137  TYR137      0.2290
     95  O         17.6580   53.5540   28.0090 O.2   137  TYR137     -0.2864
     96  CB        19.7600   51.6130   29.5220 C.3   137  TYR137      0.0560
     97  CG        19.7590   50.6080   30.6360 C.ar  137  TYR137     -0.0198
     98  CD1       18.8590   50.7170   31.6870 C.ar  137  TYR137     -0.0009
     99  CD2       20.6540   49.5480   30.6400 C.ar  137  TYR137     -0.0009
    100  CE1       18.8480   49.7980   32.7080 C.ar  137  TYR137      0.0417
    101  CE2       20.6530   48.6250   31.6580 C.ar  137  TYR137      0.0417
    102  CZ        19.7470   48.7560   32.6910 C.ar  137  TYR137      0.1957
    103  OH        19.7390   47.8350   33.7090 O.3   137  TYR137     -0.2866
@<TRIPOS>BOND
     1    59    60    1
     2    80    81    1
     3    60    61    1
     4    60    63    1
     5    25    26    1
     6    62    61    2
     7    61    71   am
     8    50    51    1
     9    63    64    1
    10    81    82    1
    11    81    84    1
    12    73    74    2
    13    73    72    1
    14    71    72    1
    15    52    53    2
    16    52    51    1
    17    82    83    2
    18    82    92   am
    19    65    64   ar
    20    65    67   ar
    21    26    29    1
    22    26    27    1
    23    20    21    2
    24    20    19    1
    25    51    54    1
    26    94    95    2
    27    94    93    1
    28    84    85    1
    29    72    75    1
    30    64    66   ar
    31    92    93    1
    32    28    27    2
    33    29    30    1
    34    19    18    1
    35    19    22    1
    36    75    76    1
    37    86    85   ar
    38    86    88   ar
    39    93    96    1
    40    67    69   ar
    41     1     2    1
    42    85    87   ar
    43    54    55    1
    44    66    68   ar
    45    23    22    1
    46    88    90   ar
    47    96    97    1
    48    22    24    1
    49    76    77    1
    50    78    77   ar
    51    15    14    2
    52    69    68   ar
    53    69    70    1
    54     5     2    1
    55     5     6    1
    56     2     3    1
    57    87    89   ar
    58    55    56    1
    59    77    79   ar
    60    57    56    2
    61    56    58   am
    62    97    99   ar
    63    97    98   ar
    64    99   101   ar
    65    90    89   ar
    66    90    91    1
    67    12     3   am
    68    12    13    1
    69    14    13    1
    70     3     4    2
    71     6     7    1
    72    37    31    1
    73    37    36    1
    74   101   102   ar
    75    98   100   ar
    76    31    32    1
    77    13    16    1
    78     7     8    1
    79    36    35    1
    80    16    17    1
    81   102   100   ar
    82   102   103    1
    83    32    35    1
    84    32    33    1
    85     8     9    2
    86    34    33    2
    87    40    41    2
    88    40    39    1
    89     9    10    1
    90     9    11    1
    91    42    39    1
    92    42    43    1
    93    39    38    1
    94    43    44   ar
    95    43    45   ar
    96    44    46   ar
    97    45    47   ar
    98    46    48   ar
    99    47    48   ar
   100    48    49    1
