@<TRIPOS>MOLECULE
tmp/3linD00.pdb
 141 133 0 0 0
SMALL
GASTEIGER

@<TRIPOS>ATOM
      1  N          3.5490   23.2030   63.2640 N.3    10  ARG10      -0.1245
      2  CA         2.2030   22.8040   62.8330 C.3    10  ARG10       0.1563
      3  C          1.5400   22.0080   63.9710 C.2    10  ARG10       0.2260
      4  O          2.1810   21.1320   64.5390 O.2    10  ARG10      -0.2867
      5  CB         2.2930   22.0550   61.5090 C.3    10  ARG10       0.0307
      6  CG         3.0360   22.9160   60.4980 C.3    10  ARG10       0.0489
      7  CD         2.7730   22.5440   59.0670 C.3    10  ARG10       0.2205
      8  NE         3.1460   23.6330   58.1480 N.pl3  10  ARG10      -0.0865
      9  CZ         4.3030   23.7280   57.4790 C.cat  10  ARG10       0.5346
     10  NH1        5.2580   22.8190   57.6070 N.pl3  10  ARG10       0.1354
     11  NH2        4.5130   24.7470   56.6630 N.pl3  10  ARG10       0.1354
     12  N         -2.8460   17.2340   60.8890 N.3    30  LEU30      -0.1245
     13  CA        -2.9380   18.6480   61.2610 C.3    30  LEU30       0.1561
     14  C         -4.2830   18.9940   61.9670 C.2    30  LEU30       0.2260
     15  O         -5.3700   18.6700   61.4890 O.2    30  LEU30      -0.2867
     16  CB        -2.7710   19.5020   59.9890 C.3    30  LEU30       0.0270
     17  CG        -2.8970   21.0440   60.1170 C.3    30  LEU30       0.0019
     18  CD1       -1.7580   21.6040   61.0090 C.3    30  LEU30       0.0001
     19  CD2       -2.9120   21.7920   58.6900 C.3    30  LEU30       0.0001
     20  N         -6.9610   21.5390   62.4990 N.3    32  ASP32      -0.1239
     21  CA        -7.2350   22.6350   61.5690 C.3    32  ASP32       0.1674
     22  C         -8.6190   23.2380   61.7650 C.2    32  ASP32       0.2266
     23  O         -9.6060   22.7240   61.2170 O.2    32  ASP32      -0.2867
     24  CB        -7.0860   22.1470   60.1260 C.3    32  ASP32       0.1410
     25  CG        -7.1300   23.2660   59.1290 C.2    32  ASP32       0.3668
     26  OD1       -7.4500   24.4520   59.4980 O.co2  32  ASP32      -0.2456
     27  OD2       -6.8820   22.9760   57.9420 O.co2  32  ASP32      -0.2456
     28  N         -9.7380   25.7870   60.5880 N.3    34  GLY34      -0.1210
     29  CA       -10.2330   26.3920   59.3760 C.3    34  GLY34       0.1956
     30  C        -10.8110   25.4300   58.3520 C.2    34  GLY34       0.2612
     31  O        -11.2710   25.8710   57.3170 O.2    34  GLY34      -0.2717
     32  N        -10.7690   24.1270   58.6320 N.am   35  ALA35      -0.1965
     33  CA       -11.2570   23.1060   57.6930 C.3    35  ALA35       0.1728
     34  C        -12.6470   22.6680   58.1080 C.2    35  ALA35       0.2616
     35  O        -12.8210   22.2070   59.2150 O.2    35  ALA35      -0.2715
     36  CB       -10.2950   21.8640   57.6790 C.3    35  ALA35       0.0334
     37  N        -13.6120   22.7990   57.2140 N.am   36  ASP36      -0.1957
     38  CA       -15.0060   22.3660   57.4480 C.3    36  ASP36       0.1840
     39  C        -15.0560   20.8260   57.5570 C.2    36  ASP36       0.2621
     40  O        -15.9190   20.2640   58.2430 O.2    36  ASP36      -0.2715
     41  CB       -15.9060   22.7150   56.2460 C.3    36  ASP36       0.1450
     42  CG       -15.9860   24.2290   55.9200 C.2    36  ASP36       0.3671
     43  OD1      -15.6730   25.1180   56.7590 O.co2  36  ASP36      -0.2456
     44  OD2      -16.4170   24.5370   54.7850 O.co2  36  ASP36      -0.2456
     45  N        -14.1730   20.1400   56.8400 N.am   37  MET37      -0.1977
     46  CA       -14.2040   18.6650   56.7890 C.3    37  MET37       0.1605
     47  C        -12.8150   18.0780   56.9710 C.2    37  MET37       0.2287
     48  O        -11.8440   18.7180   56.6550 O.2    37  MET37      -0.2864
     49  CB       -14.7960   18.2160   55.4640 C.3    37  MET37       0.0413
     50  CG       -15.2210   16.7570   55.3540 C.3    37  MET37       0.0598
     51  SD       -16.4410   16.5320   53.9900 S.3    37  MET37      -0.1393
     52  CE       -17.9020   17.0050   54.9150 C.3    37  MET37       0.0692
     53  N         -9.6670   15.4850   56.2120 N.3    39  VAL39      -0.1245
     54  CA        -9.0140   15.0240   54.9630 C.3    39  VAL39       0.1561
     55  C         -8.1160   13.9010   55.3990 C.2    39  VAL39       0.2260
     56  O         -7.3450   14.0660   56.3440 O.2    39  VAL39      -0.2867
     57  CB        -8.1060   16.1370   54.3400 C.3    39  VAL39       0.0252
     58  CG1       -7.2810   15.5430   53.1510 C.3    39  VAL39       0.0019
     59  CG2       -8.9450   17.3600   53.8610 C.3    39  VAL39       0.0019
     60  N        -15.7610   18.7590   44.7120 N.3    55  SER55      -0.1202
     61  CA       -15.1890   20.0560   44.4540 C.3    55  SER55       0.2020
     62  C        -14.9430   20.7060   45.7850 C.2    55  SER55       0.2619
     63  O        -15.7780   20.6420   46.6820 O.2    55  SER55      -0.2717
     64  CB       -16.1140   20.9230   43.5850 C.3    55  SER55       0.2103
     65  OG       -15.5060   22.1760   43.3730 O.3    55  SER55      -0.2182
     66  N        -13.7750   21.3110   45.9190 N.am   56  VAL56      -0.1965
     67  CA       -13.3180   21.8110   47.2200 C.3    56  VAL56       0.1727
     68  C        -12.7310   23.2080   47.0010 C.2    56  VAL56       0.2616
     69  O        -11.9190   23.4180   46.1020 O.2    56  VAL56      -0.2715
     70  CB       -12.2420   20.8440   47.8330 C.3    56  VAL56       0.0290
     71  CG1      -11.4350   21.4930   48.9080 C.3    56  VAL56       0.0023
     72  CG2      -12.8810   19.5420   48.3310 C.3    56  VAL56       0.0023
     73  N        -13.1490   24.1540   47.8360 N.am   57  LEU57      -0.1963
     74  CA       -12.5300   25.4690   47.8490 C.3    57  LEU57       0.1728
     75  C        -11.3980   25.5040   48.8380 C.2    57  LEU57       0.2617
     76  O        -11.5790   25.1490   50.0160 O.2    57  LEU57      -0.2715
     77  CB       -13.5380   26.5370   48.2450 C.3    57  LEU57       0.0311
     78  CG       -13.0040   27.9790   48.1800 C.3    57  LEU57       0.0022
     79  CD1      -12.3720   28.3190   46.8340 C.3    57  LEU57       0.0001
     80  CD2      -14.1100   28.9460   48.4840 C.3    57  LEU57       0.0001
     81  N        -10.2280   25.9340   48.3690 N.am   58  GLY58      -0.1940
     82  CA        -9.0530   26.0510   49.2520 C.3    58  GLY58       0.2014
     83  C         -8.4700   27.4490   49.0910 C.2    58  GLY58       0.2638
     84  O         -9.1290   28.3310   48.5130 O.2    58  GLY58      -0.2714
     85  N         -7.2600   27.6590   49.6070 N.am   59  ALA59      -0.1977
     86  CA        -6.5480   28.9450   49.4520 C.3    59  ALA59       0.1597
     87  C         -6.2560   29.3170   47.9800 C.2    59  ALA59       0.2287
     88  O         -6.5920   30.4150   47.5470 O.2    59  ALA59      -0.2864
     89  CB        -5.2630   28.9550   50.2570 C.3    59  ALA59       0.0319
     90  N         -9.3160   16.2440   45.7160 N.3    67  PHE67      -0.1241
     91  CA       -10.0600   15.5490   46.7890 C.3    67  PHE67       0.1605
     92  C        -11.1760   14.7040   46.2160 C.2    67  PHE67       0.2264
     93  O        -11.7810   15.0760   45.2160 O.2    67  PHE67      -0.2867
     94  CB       -10.5630   16.5470   47.8060 C.3    67  PHE67       0.0534
     95  CG        -9.4680   17.3260   48.4400 C.ar   67  PHE67      -0.0203
     96  CD1       -9.1300   18.5680   47.9700 C.ar   67  PHE67      -0.0042
     97  CD2       -8.7140   16.7870   49.4760 C.ar   67  PHE67      -0.0042
     98  CE1       -8.0590   19.2930   48.5120 C.ar   67  PHE67      -0.0003
     99  CE2       -7.6410   17.5290   50.0350 C.ar   67  PHE67      -0.0003
    100  CZ        -7.3180   18.7880   49.5330 C.ar   67  PHE67      -0.0000
    101  N        -13.1370   13.9190   53.2500 N.3    91  LEU91      -0.1245
    102  CA       -12.3960   14.1160   52.0330 C.3    91  LEU91       0.1561
    103  C        -11.2010   13.2060   52.0100 C.2    91  LEU91       0.2260
    104  O        -10.6580   12.8340   53.0680 O.2    91  LEU91      -0.2867
    105  CB       -11.9170   15.5590   51.9750 C.3    91  LEU91       0.0270
    106  CG       -13.0970   16.5350   51.8570 C.3    91  LEU91       0.0019
    107  CD1      -12.5310   17.9440   52.0760 C.3    91  LEU91       0.0001
    108  CD2      -13.7860   16.3840   50.4480 C.3    91  LEU91       0.0001
    109  N         -2.1180   14.4010   52.3660 N.3    98  TRP98      -0.1241
    110  CA        -2.2890   15.2450   53.5430 C.3    98  TRP98       0.1605
    111  C         -3.2670   14.6260   54.5080 C.2    98  TRP98       0.2264
    112  O         -4.1430   13.8750   54.0980 O.2    98  TRP98      -0.2867
    113  CB        -2.8370   16.5940   53.1360 C.3    98  TRP98       0.0550
    114  CG        -1.8700   17.3340   52.2980 C.ar   98  TRP98       0.0003
    115  CD1       -0.5250   17.1130   52.2110 C.ar   98  TRP98       0.0946
    116  CD2       -2.1530   18.4330   51.4340 C.ar   98  TRP98       0.0152
    117  NE1        0.0480   18.0060   51.3360 N.ar   98  TRP98      -0.2442
    118  CE2       -0.9270   18.8280   50.8440 C.ar   98  TRP98       0.0810
    119  CE3       -3.3210   19.1110   51.0860 C.ar   98  TRP98       0.0012
    120  CZ2       -0.8350   19.8720   49.9300 C.ar   98  TRP98       0.0191
    121  CZ3       -3.2300   20.1430   50.1700 C.ar   98  TRP98       0.0001
    122  CH2       -1.9890   20.5200   49.6080 C.ar   98  TRP98       0.0015
    123  N         -5.7180   16.0110   57.6270 N.3   100  ILE100     -0.1245
    124  CA        -6.1850   17.1620   58.3590 C.3   100  ILE100      0.1561
    125  C         -7.4070   16.8150   59.1730 C.2   100  ILE100      0.2260
    126  O         -8.3830   16.3070   58.6510 O.2   100  ILE100     -0.2867
    127  CB        -6.5510   18.2900   57.3990 C.3   100  ILE100      0.0252
    128  CG1       -5.2840   18.7040   56.6170 C.3   100  ILE100      0.0019
    129  CG2       -7.1610   19.4410   58.2070 C.3   100  ILE100      0.0019
    130  CD1       -5.5180   19.4550   55.2990 C.3   100  ILE100      0.0001
    131  N        -13.2450   20.5480   61.5630 N.3   103  ARG103     -0.1245
    132  CA       -14.2310   20.8980   62.5920 C.3   103  ARG103      0.1563
    133  C        -15.2910   19.7970   62.8340 C.2   103  ARG103      0.2260
    134  O        -15.8130   19.6860   63.9320 O.2   103  ARG103     -0.2867
    135  CB       -14.8770   22.2730   62.2700 C.3   103  ARG103      0.0307
    136  CG       -13.8440   23.4700   62.4160 C.3   103  ARG103      0.0489
    137  CD       -14.5830   24.8300   62.5740 C.3   103  ARG103      0.2205
    138  NE       -15.5880   25.0120   61.5100 N.pl3 103  ARG103     -0.0865
    139  CZ       -15.3380   25.3660   60.2570 C.cat 103  ARG103      0.5346
    140  NH1      -14.1010   25.6390   59.8490 N.pl3 103  ARG103      0.1354
    141  NH2      -16.3520   25.4430   59.4050 N.pl3 103  ARG103      0.1354
@<TRIPOS>BOND
     1    65    64    1
     2    64    61    1
     3    61    60    1
     4    61    62    1
     5    93    92    2
     6    90    91    1
     7    62    66   am
     8    62    63    2
     9    66    67    1
    10    69    68    2
    11    92    91    1
    12    91    94    1
    13    79    78    1
    14    68    67    1
    15    68    73   am
    16    67    70    1
    17    88    87    2
    18    94    95    1
    19    70    72    1
    20    70    71    1
    21    73    74    1
    22    74    77    1
    23    74    75    1
    24    96    95   ar
    25    96    98   ar
    26    87    86    1
    27    78    77    1
    28    78    80    1
    29    81    75   am
    30    81    82    1
    31    95    97   ar
    32    98   100   ar
    33    84    83    2
    34    75    76    2
    35    83    82    1
    36    83    85   am
    37    86    85    1
    38    86    89    1
    39    97    99   ar
    40   100    99   ar
    41   122   120   ar
    42   122   121   ar
    43   120   118   ar
    44   121   119   ar
    45   108   106    1
    46   118   117   ar
    47   118   116   ar
    48   119   116   ar
    49   117   115   ar
    50   116   114   ar
    51   106   105    1
    52   106   107    1
    53   105   102    1
    54   103   102    1
    55   103   104    2
    56   102   101    1
    57   115   114   ar
    58   114   113    1
    59   109   110    1
    60   113   110    1
    61    58    57    1
    62   110   111    1
    63    59    57    1
    64    51    52    1
    65    51    50    1
    66   112   111    2
    67    57    54    1
    68    44    42   ar
    69    54    55    1
    70    54    53    1
    71   130   128    1
    72    50    49    1
    73    55    56    2
    74    49    46    1
    75    42    41    1
    76    42    43   ar
    77    41    38    1
    78   128   127    1
    79    48    47    2
    80    11     9    1
    81    46    45    1
    82    46    47    1
    83    45    39   am
    84    37    38    1
    85    37    34   am
    86    31    30    2
    87   127   129    1
    88   127   124    1
    89    38    39    1
    90     9    10    1
    91     9     8    2
    92    39    40    2
    93   123   124    1
    94    36    33    1
    95    33    34    1
    96    33    32    1
    97    27    25   ar
    98    34    35    2
    99     8     7    1
   100    30    32   am
   101    30    29    1
   102   124   125    1
   103   126   125    2
   104    19    17    1
   105     7     6    1
   106    25    26   ar
   107    25    24    1
   108    29    28    1
   109   141   139    1
   110   140   139    1
   111    16    17    1
   112    16    13    1
   113    17    18    1
   114    24    21    1
   115   139   138    2
   116     6     5    1
   117    12    13    1
   118    23    22    2
   119    13    14    1
   120    15    14    2
   121     5     2    1
   122   138   137    1
   123   131   132    1
   124    21    22    1
   125    21    20    1
   126   135   136    1
   127   135   132    1
   128   136   137    1
   129   132   133    1
   130     2     1    1
   131     2     3    1
   132   133   134    2
   133     3     4    2
