@<TRIPOS>MOLECULE
tmp/3liqB00.pdb
 124 117 0 0 0
SMALL
GASTEIGER

@<TRIPOS>ATOM
      1  N          8.9890   36.9490   16.1850 N.3    10  ARG10      -0.1245
      2  CA         9.9410   35.8680   16.4980 C.3    10  ARG10       0.1563
      3  C         10.0290   34.8990   15.3430 C.2    10  ARG10       0.2260
      4  O          9.0030   34.5480   14.7930 O.2    10  ARG10      -0.2867
      5  CB         9.5010   35.0910   17.7430 C.3    10  ARG10       0.0307
      6  CG         8.9060   35.9840   18.7950 C.3    10  ARG10       0.0489
      7  CD         9.3180   35.6210   20.1990 C.3    10  ARG10       0.2205
      8  NE         9.3130   36.8230   21.0550 N.pl3  10  ARG10      -0.0865
      9  CZ         8.2230   37.4060   21.5820 C.cat  10  ARG10       0.5346
     10  NH1        7.0010   36.9110   21.3760 N.pl3  10  ARG10       0.1354
     11  NH2        8.3550   38.4980   22.3310 N.pl3  10  ARG10       0.1354
     12  N         11.2420   28.5500   18.6570 N.3    30  LEU30      -0.1245
     13  CA        12.0510   29.7220   18.3090 C.3    30  LEU30       0.1561
     14  C         13.3770   29.3050   17.6750 C.2    30  LEU30       0.2260
     15  O         14.0850   28.4750   18.2390 O.2    30  LEU30      -0.2867
     16  CB        12.3290   30.5520   19.5770 C.3    30  LEU30       0.0270
     17  CG        13.1920   31.8260   19.4090 C.3    30  LEU30       0.0019
     18  CD1       12.4590   32.9800   18.6790 C.3    30  LEU30       0.0001
     19  CD2       13.7210   32.2960   20.7770 C.3    30  LEU30       0.0001
     20  N         17.1000   30.0850   17.0650 N.3    32  ASP32      -0.1239
     21  CA        17.9080   30.9250   17.9490 C.3    32  ASP32       0.1674
     22  C         19.4260   30.7380   17.8210 C.2    32  ASP32       0.2266
     23  O         19.9940   29.7990   18.3460 O.2    32  ASP32      -0.2867
     24  CB        17.4290   30.6900   19.3780 C.3    32  ASP32       0.1410
     25  CG        18.0390   31.6320   20.3660 C.2    32  ASP32       0.3668
     26  OD1       18.8780   32.4700   19.9790 O.co2  32  ASP32      -0.2456
     27  OD2       17.6700   31.5270   21.5590 O.co2  32  ASP32      -0.2456
     28  N         21.7690   32.4790   19.1760 N.3    34  GLY34      -0.1210
     29  CA        22.4240   32.6720   20.4910 C.3    34  GLY34       0.1956
     30  C         22.2590   31.4980   21.4600 C.2    34  GLY34       0.2612
     31  O         22.6910   31.5630   22.6210 O.2    34  GLY34      -0.2717
     32  N         21.6340   30.4090   21.0100 N.am   35  ALA35      -0.1965
     33  CA        21.4860   29.2290   21.8910 C.3    35  ALA35       0.1728
     34  C         22.5290   28.1480   21.5370 C.2    35  ALA35       0.2616
     35  O         22.5090   27.6010   20.4520 O.2    35  ALA35      -0.2715
     36  CB        20.0580   28.6800   21.8040 C.3    35  ALA35       0.0334
     37  N         23.4410   27.8490   22.4560 N.am   36  ASP36      -0.1957
     38  CA        24.4160   26.7880   22.2560 C.3    36  ASP36       0.1840
     39  C         23.7180   25.4590   22.0100 C.2    36  ASP36       0.2621
     40  O         24.2010   24.6400   21.2240 O.2    36  ASP36      -0.2715
     41  CB        25.3320   26.6210   23.4780 C.3    36  ASP36       0.1450
     42  CG        26.2020   27.8440   23.7540 C.2    36  ASP36       0.3671
     43  OD1       26.2840   28.7620   22.9160 O.co2  36  ASP36      -0.2456
     44  OD2       26.8180   27.8810   24.8370 O.co2  36  ASP36      -0.2456
     45  N         22.6030   25.2380   22.7170 N.am   37  MET37      -0.1977
     46  CA        21.9690   23.9310   22.7380 C.3    37  MET37       0.1605
     47  C         20.4710   24.0980   22.6570 C.2    37  MET37       0.2287
     48  O         19.9270   25.0600   23.1900 O.2    37  MET37      -0.2864
     49  CB        22.3830   23.1430   24.0070 C.3    37  MET37       0.0413
     50  CG        21.8010   21.7090   24.0870 C.3    37  MET37       0.0598
     51  SD        22.3230   20.7110   25.5310 S.3    37  MET37      -0.1393
     52  CE        23.9290   20.0730   25.0260 C.3    37  MET37       0.0692
     53  N         16.4680   23.5140   23.2710 N.3    39  VAL39      -0.1245
     54  CA        15.5990   23.4060   24.4650 C.3    39  VAL39       0.1561
     55  C         14.2340   22.8730   24.0480 C.2    39  VAL39       0.2260
     56  O         13.6230   23.3940   23.1150 O.2    39  VAL39      -0.2867
     57  CB        15.3770   24.7870   25.1480 C.3    39  VAL39       0.0252
     58  CG1       14.4670   24.6690   26.3430 C.3    39  VAL39       0.0019
     59  CG2       16.6960   25.4210   25.5530 C.3    39  VAL39       0.0019
     60  N         22.5500   25.9350   33.7440 N.3    56  VAL56      -0.1231
     61  CA        22.4650   26.6640   32.4760 C.3    56  VAL56       0.1692
     62  C         22.5270   28.1640   32.7240 C.2    56  VAL56       0.2592
     63  O         21.8400   28.6640   33.6110 O.2    56  VAL56      -0.2718
     64  CB        21.1170   26.3770   31.7110 C.3    56  VAL56       0.0266
     65  CG1       21.0560   27.1790   30.4270 C.3    56  VAL56       0.0020
     66  CG2       20.9380   24.8940   31.4080 C.3    56  VAL56       0.0020
     67  N         23.3200   28.8770   31.9240 N.am   57  LEU57      -0.1966
     68  CA        23.3780   30.3480   31.9910 C.3    57  LEU57       0.1728
     69  C         22.5560   31.0120   30.8740 C.2    57  LEU57       0.2617
     70  O         22.7210   30.6970   29.6950 O.2    57  LEU57      -0.2715
     71  CB        24.8290   30.8450   31.9530 C.3    57  LEU57       0.0311
     72  CG        25.0880   32.3560   31.9650 C.3    57  LEU57       0.0022
     73  CD1       24.6730   33.0130   33.2950 C.3    57  LEU57       0.0001
     74  CD2       26.5580   32.6290   31.6820 C.3    57  LEU57       0.0001
     75  N         21.6580   31.9120   31.2730 N.am   58  GLY58      -0.1940
     76  CA        20.8880   32.7200   30.3530 C.3    58  GLY58       0.2014
     77  C         20.8460   34.1630   30.8140 C.2    58  GLY58       0.2638
     78  O         21.4930   34.5170   31.7850 O.2    58  GLY58      -0.2714
     79  N         20.0530   34.9790   30.1220 N.am   59  ALA59      -0.1977
     80  CA        19.8390   36.3910   30.4520 C.3    59  ALA59       0.1597
     81  C         19.1080   36.5980   31.7820 C.2    59  ALA59       0.2287
     82  O         19.2670   37.6510   32.4360 O.2    59  ALA59      -0.2864
     83  CB        19.0780   37.0840   29.3270 C.3    59  ALA59       0.0319
     84  N         16.2490   23.7080   34.0920 N.3    67  PHE67      -0.1241
     85  CA        16.5350   22.8400   32.9450 C.3    67  PHE67       0.1605
     86  C         17.1770   21.5230   33.3670 C.2    67  PHE67       0.2264
     87  O         18.0050   21.4850   34.2920 O.2    67  PHE67      -0.2867
     88  CB        17.4720   23.5360   31.9520 C.3    67  PHE67       0.0534
     89  CG        16.9560   24.8460   31.4470 C.ar   67  PHE67      -0.0203
     90  CD1       17.2740   26.0370   32.1050 C.ar   67  PHE67      -0.0042
     91  CD2       16.1630   24.8970   30.3180 C.ar   67  PHE67      -0.0042
     92  CE1       16.7990   27.2670   31.6310 C.ar   67  PHE67      -0.0003
     93  CE2       15.6820   26.1300   29.8330 C.ar   67  PHE67      -0.0003
     94  CZ        16.0000   27.3100   30.4840 C.ar   67  PHE67      -0.0000
     95  N         18.5660   20.3030   26.0540 N.3    91  LEU91      -0.1245
     96  CA        18.0190   20.8270   27.2850 C.3    91  LEU91       0.1561
     97  C         16.5200   20.5790   27.3170 C.2    91  LEU91       0.2260
     98  O         15.8400   20.5590   26.2630 O.2    91  LEU91      -0.2867
     99  CB        18.3480   22.3330   27.4610 C.3    91  LEU91       0.0270
    100  CG        19.8330   22.6470   27.6840 C.3    91  LEU91       0.0019
    101  CD1       20.1350   24.1210   27.4970 C.3    91  LEU91       0.0001
    102  CD2       20.3240   22.1670   29.0560 C.3    91  LEU91       0.0001
    103  N          9.4480   26.0570   27.2330 N.3    98  TRP98      -0.1241
    104  CA         9.9600   26.6780   26.0180 C.3    98  TRP98       0.1605
    105  C         10.4910   25.6700   25.0100 C.2    98  TRP98       0.2264
    106  O         10.9110   24.5700   25.3680 O.2    98  TRP98      -0.2867
    107  CB        11.0630   27.6650   26.3480 C.3    98  TRP98       0.0550
    108  CG        10.5850   28.8630   27.1460 C.ar   98  TRP98       0.0003
    109  CD1        9.2910   29.2750   27.3270 C.ar   98  TRP98       0.0946
    110  CD2       11.4050   29.8190   27.8250 C.ar   98  TRP98       0.0152
    111  NE1        9.2570   30.4050   28.0930 N.ar   98  TRP98      -0.2442
    112  CE2       10.5400   30.7670   28.4130 C.ar   98  TRP98       0.0810
    113  CE3       12.7870   29.9650   27.9980 C.ar   98  TRP98       0.0012
    114  CZ2       11.0120   31.8590   29.1650 C.ar   98  TRP98       0.0191
    115  CZ3       13.2590   31.0660   28.7510 C.ar   98  TRP98       0.0001
    116  CH2       12.3690   31.9920   29.3150 C.ar   98  TRP98       0.0015
    117  N         13.1150   25.8510   21.7600 N.3   100  ILE100     -0.1245
    118  CA        14.1360   26.7050   21.1520 C.3   100  ILE100      0.1561
    119  C         15.0750   25.8340   20.3230 C.2   100  ILE100      0.2260
    120  O         15.7330   24.9720   20.8750 O.2   100  ILE100     -0.2867
    121  CB        14.9400   27.4430   22.2530 C.3   100  ILE100      0.0252
    122  CG1       13.9960   28.3200   23.1040 C.3   100  ILE100      0.0019
    123  CG2       16.1020   28.2460   21.6460 C.3   100  ILE100      0.0019
    124  CD1       14.6540   29.0110   24.2960 C.3   100  ILE100      0.0001
@<TRIPOS>BOND
     1     4     3    2
     2     3     2    1
     3     1     2    1
     4     2     5    1
     5    20    21    1
     6    14    15    2
     7    14    13    1
     8     5     6    1
     9    22    21    1
    10    22    23    2
    11    21    24    1
    12    13    12    1
    13    13    16    1
    14    18    17    1
    15     6     7    1
    16    28    29    1
    17    24    25    1
    18    17    16    1
    19    17    19    1
    20    26    25   ar
    21     7     8    1
    22   119   120    2
    23   119   118    1
    24    25    27   ar
    25    35    34    2
    26    29    30    1
    27    32    30   am
    28    32    33    1
    29     8     9    2
    30   118   117    1
    31   118   121    1
    32    40    39    2
    33    10     9    1
    34    30    31    2
    35    34    33    1
    36    34    37   am
    37     9    11    1
    38   123   121    1
    39    36    33    1
    40    39    38    1
    41    39    45   am
    42   121   122    1
    43    38    37    1
    44    38    41    1
    45    47    46    1
    46    47    48    2
    47    45    46    1
    48    46    49    1
    49    43    42   ar
    50   122   124    1
    51    56    55    2
    52    53    54    1
    53    41    42    1
    54    42    44   ar
    55    49    50    1
    56    55    54    1
    57    50    51    1
    58    54    57    1
    59   105   106    2
    60   105   104    1
    61    52    51    1
    62    57    59    1
    63    57    58    1
    64   104   107    1
    65   104   103    1
    66    95    96    1
    67    98    97    2
    68   107   108    1
    69   108   109   ar
    70   108   110   ar
    71    96    97    1
    72    96    99    1
    73   109   111   ar
    74    99   100    1
    75   101   100    1
    76   100   102    1
    77   110   113   ar
    78   110   112   ar
    79   113   115   ar
    80   111   112   ar
    81   112   114   ar
    82   115   116   ar
    83   114   116   ar
    84    83    80    1
    85    70    69    2
    86    93    91   ar
    87    93    94   ar
    88    79    80    1
    89    79    77   am
    90    91    89   ar
    91    76    77    1
    92    76    75    1
    93    65    64    1
    94    80    81    1
    95    94    92   ar
    96    77    78    2
    97    69    75   am
    98    69    68    1
    99    66    64    1
   100    89    88    1
   101    89    90   ar
   102    92    90   ar
   103    74    72    1
   104    64    61    1
   105    81    82    2
   106    67    68    1
   107    67    62   am
   108    88    85    1
   109    71    72    1
   110    71    68    1
   111    72    73    1
   112    61    62    1
   113    61    60    1
   114    62    63    2
   115    85    86    1
   116    85    84    1
   117    86    87    2
