@<TRIPOS>MOLECULE
tmp/3lirA00.pdb
 181 177 0 0 0
SMALL
GASTEIGER

@<TRIPOS>ATOM
      1  N         18.3790   29.6340   11.2140 N.3    73  LYS73      -0.1231
      2  CA        17.1180   29.3720   11.9160 C.3    73  LYS73       0.1693
      3  C         15.9830   30.2910   11.4320 C.2    73  LYS73       0.2593
      4  O         16.1790   31.4910   11.2860 O.2    73  LYS73      -0.2718
      5  CB        17.3180   29.5360   13.4220 C.3    73  LYS73       0.0285
      6  CG        16.1240   29.0750   14.2490 C.3    73  LYS73       0.0035
      7  CD        16.3130   29.3810   15.7340 C.3    73  LYS73       0.0206
      8  CE        15.1780   28.8100   16.5730 C.3    73  LYS73       0.1093
      9  NZ        15.4120   27.3850   16.9370 N.3    73  LYS73      -0.1314
     10  N         14.8040   29.7250   11.1830 N.am   74  GLY74      -0.1942
     11  CA        13.6670   30.4870   10.6790 C.3    74  GLY74       0.2014
     12  C         13.6050   30.5250    9.1620 C.2    74  GLY74       0.2639
     13  O         14.3840   29.8680    8.4900 O.2    74  GLY74      -0.2714
     14  N         12.6810   31.2910    8.6030 N.am   75  GLY75      -0.1939
     15  CA        12.6000   31.3810    7.1560 C.3    75  GLY75       0.2014
     16  C         12.3810   30.0210    6.5060 C.2    75  GLY75       0.2639
     17  O         11.4590   29.3000    6.8710 O.2    75  GLY75      -0.2714
     18  N         13.2310   29.6650    5.5450 N.am   76  ILE76      -0.1963
     19  CA        13.0930   28.3920    4.8460 C.3    76  ILE76       0.1727
     20  C         13.3070   27.2430    5.8210 C.2    76  ILE76       0.2616
     21  O         14.3390   27.1480    6.4490 O.2    76  ILE76      -0.2715
     22  CB        14.1420   28.2290    3.7280 C.3    76  ILE76       0.0290
     23  CG1       14.0220   29.3410    2.6860 C.3    76  ILE76       0.0022
     24  CG2       14.0000   26.8620    3.0620 C.3    76  ILE76       0.0023
     25  CD1       15.2790   29.5210    1.8720 C.3    76  ILE76       0.0001
     26  N         12.3570   26.3340    5.9140 N.am   77  LEU77      -0.1963
     27  CA        12.4880   25.1990    6.8210 C.3    77  LEU77       0.1728
     28  C         13.0370   23.9670    6.1060 C.2    77  LEU77       0.2616
     29  O         13.7000   23.1160    6.7130 O.2    77  LEU77      -0.2715
     30  CB        11.1080   24.8710    7.4020 C.3    77  LEU77       0.0311
     31  CG        10.4280   26.0560    8.0850 C.3    77  LEU77       0.0022
     32  CD1        9.0210   25.6770    8.5370 C.3    77  LEU77       0.0001
     33  CD2       11.2780   26.5480    9.2680 C.3    77  LEU77       0.0001
     34  N         12.7270   23.8720    4.8180 N.am   78  ALA78      -0.1977
     35  CA        13.0040   22.6790    4.0360 C.3    78  ALA78       0.1597
     36  C         12.6490   22.9710    2.5910 C.2    78  ALA78       0.2287
     37  O         11.9780   23.9560    2.3170 O.2    78  ALA78      -0.2864
     38  CB        12.1690   21.5010    4.5670 C.3    78  ALA78       0.0319
     39  N         16.9980   24.5260   11.8750 N.3    97  GLU97      -0.1245
     40  CA        15.7410   24.4510   12.6250 C.3    97  GLU97       0.1567
     41  C         15.8810   23.4440   13.7550 C.2    97  GLU97       0.2260
     42  O         16.7670   22.5960   13.7170 O.2    97  GLU97      -0.2867
     43  CB        14.5880   23.9840   11.7370 C.3    97  GLU97       0.0388
     44  CG        14.5040   24.6760   10.3850 C.3    97  GLU97       0.1160
     45  CD        14.6220   26.1710   10.4940 C.2    97  GLU97       0.3649
     46  OE1       14.1840   26.7580   11.5000 O.co2  97  GLU97      -0.2457
     47  OE2       15.1420   26.7750    9.5520 O.co2  97  GLU97      -0.2457
     48  N         10.0200   22.8470   15.1350 N.3   106  THR106     -0.1218
     49  CA         9.3570   22.5530   13.8680 C.3   106  THR106      0.1862
     50  C          9.0610   21.0630   13.8080 C.2   106  THR106      0.2287
     51  O          9.9710   20.2360   13.9220 O.2   106  THR106     -0.2866
     52  CB        10.2390   22.9620   12.6650 C.3   106  THR106      0.1770
     53  OG1       10.6790   24.3220   12.8290 O.3   106  THR106     -0.2211
     54  CG2        9.4660   22.8140   11.3430 C.3   106  THR106      0.0375
     55  N          4.9830   16.8720    9.9670 N.3   110  LEU110     -0.1231
     56  CA         4.1600   17.7700    9.1710 C.3   110  LEU110      0.1693
     57  C          4.9920   18.3480    8.0260 C.2   110  LEU110      0.2592
     58  O          4.5310   18.4560    6.9040 O.2   110  LEU110     -0.2718
     59  CB         3.6080   18.8960   10.0450 C.3   110  LEU110      0.0284
     60  CG         2.5700   18.4820   11.0910 C.3   110  LEU110      0.0019
     61  CD1        2.2230   19.6750   11.9580 C.3   110  LEU110      0.0001
     62  CD2        1.3180   17.9210   10.4050 C.3   110  LEU110      0.0001
     63  N          6.2240   18.7320    8.3280 N.am  111  THR111     -0.1953
     64  CA         7.0880   19.3120    7.3110 C.3   111  THR111      0.1897
     65  C          7.3800   18.2770    6.2130 C.2   111  THR111      0.2313
     66  O          7.4280   18.6010    5.0360 O.2   111  THR111     -0.2863
     67  CB         8.3980   19.8320    7.9390 C.3   111  THR111      0.1794
     68  OG1        8.0830   20.7910    8.9700 O.3   111  THR111     -0.2208
     69  CG2        9.3130   20.4730    6.8590 C.3   111  THR111      0.0378
     70  N          4.5230   17.8330    3.7090 N.3   114  HIS114     -0.1226
     71  CA         4.5570   18.9000    2.7250 C.3   114  HIS114      0.1752
     72  C          5.6640   18.6550    1.6970 C.2   114  HIS114      0.2595
     73  O          5.4210   18.7380    0.4920 O.2   114  HIS114     -0.2718
     74  CB         4.7500   20.2450    3.4380 C.3   114  HIS114      0.0759
     75  CG         4.8430   21.4190    2.5180 C.ar  114  HIS114      0.0818
     76  ND1        3.7530   22.2090    2.2050 N.ar  114  HIS114     -0.2268
     77  CD2        5.9000   21.9670    1.8710 C.ar  114  HIS114      0.1154
     78  CE1        4.1300   23.1790    1.4000 C.ar  114  HIS114      0.1986
     79  NE2        5.4330   23.0690    1.1910 N.ar  114  HIS114     -0.2212
     80  N          6.8740   18.3660    2.1680 N.am  115  GLU115     -0.1979
     81  CA         7.9980   18.1910    1.2460 C.3   115  GLU115      0.1602
     82  C          7.8060   16.9640    0.3480 C.2   115  GLU115      0.2287
     83  O          8.1020   17.0170   -0.8380 O.2   115  GLU115     -0.2864
     84  CB         9.3290   18.0960    2.0060 C.3   115  GLU115      0.0415
     85  CG         9.6740   19.3700    2.7750 C.3   115  GLU115      0.1163
     86  CD         9.6500   20.6100    1.8850 C.2   115  GLU115      0.3649
     87  OE1        9.3460   21.7010    2.3950 O.co2 115  GLU115     -0.2457
     88  OE2        9.9530   20.4910    0.6800 O.co2 115  GLU115     -0.2457
     89  N          2.0970   24.3100   -4.7260 N.3   124  HIS124     -0.1241
     90  CA         1.4350   24.8510   -3.5520 C.3   124  HIS124      0.1621
     91  C         -0.0720   25.0000   -3.7340 C.2   124  HIS124      0.2264
     92  O         -0.5620   25.1190   -4.8510 O.2   124  HIS124     -0.2867
     93  CB         2.0580   26.1900   -3.1660 C.3   124  HIS124      0.0745
     94  CG         3.4000   26.0570   -2.5140 C.ar  124  HIS124      0.0817
     95  ND1        4.3880   27.0050   -2.6370 N.ar  124  HIS124     -0.2268
     96  CD2        3.9070   25.0710   -1.7360 C.ar  124  HIS124      0.1154
     97  CE1        5.4510   26.6190   -1.9470 C.ar  124  HIS124      0.1986
     98  NE2        5.1830   25.4480   -1.3940 N.ar  124  HIS124     -0.2212
     99  N         -5.7870   27.4530    2.9130 N.3   128  PRO128     -0.2116
    100  CA        -5.0400   27.6160    4.1620 C.3   128  PRO128      0.1372
    101  C         -5.0550   26.3490    4.9970 C.2   128  PRO128      0.2244
    102  O         -4.2380   26.2060    5.9060 O.2   128  PRO128     -0.2868
    103  CB        -5.8160   28.7210    4.8900 C.3   128  PRO128      0.0268
    104  CG        -6.4910   29.4790    3.8050 C.3   128  PRO128      0.0207
    105  CD        -6.8740   28.4420    2.7940 C.3   128  PRO128      0.0892
    106  N         -4.8190   23.3080    3.5850 N.3   130  ALA130     -0.1231
    107  CA        -4.1120   22.2720    2.8400 C.3   130  ALA130      0.1694
    108  C         -2.6810   22.1020    3.3480 C.2   130  ALA130      0.2591
    109  O         -2.0170   23.0790    3.6750 O.2   130  ALA130     -0.2718
    110  CB        -4.1110   22.5830    1.3590 C.3   130  ALA130      0.0304
    111  N         -2.1960   20.8640    3.3910 N.am  131  VAL131     -0.1980
    112  CA        -0.8230   20.6320    3.8370 C.3   131  VAL131      0.1595
    113  C          0.1500   21.2670    2.8310 C.2   131  VAL131      0.2287
    114  O          1.2870   21.6140    3.1760 O.2   131  VAL131     -0.2864
    115  CB        -0.5310   19.1170    4.1030 C.3   131  VAL131      0.0276
    116  CG1       -0.3140   18.3480    2.8050 C.3   131  VAL131      0.0022
    117  CG2        0.6910   18.9520    5.0080 C.3   131  VAL131      0.0022
    118  N         -0.2180   24.1700    1.5140 N.3   133  PHE133     -0.1228
    119  CA        -0.1770   25.6280    1.6780 C.3   133  PHE133      0.1721
    120  C          1.2900   25.9740    1.9580 C.2   133  PHE133      0.2437
    121  O          2.0020   25.1960    2.6060 O.2   133  PHE133     -0.2733
    122  CB        -1.0940   26.0670    2.8240 C.3   133  PHE133      0.0547
    123  CG        -1.3400   27.5620    2.8780 C.ar  133  PHE133     -0.0202
    124  CD1       -2.2190   28.1740    1.9890 C.ar  133  PHE133     -0.0042
    125  CD2       -0.6750   28.3520    3.8090 C.ar  133  PHE133     -0.0042
    126  CE1       -2.4430   29.5650    2.0330 C.ar  133  PHE133     -0.0003
    127  CE2       -0.8890   29.7510    3.8610 C.ar  133  PHE133     -0.0003
    128  CZ        -1.7720   30.3480    2.9690 C.ar  133  PHE133     -0.0000
    129  N          1.7620   27.1240    1.4490 N.am  134  PRO134     -0.2718
    130  CA         3.2030   27.4380    1.4690 C.3   134  PRO134      0.1535
    131  C          3.8430   27.6290    2.8530 C.2   134  PRO134      0.2599
    132  O          5.0470   27.4490    2.9760 O.2   134  PRO134     -0.2715
    133  CB         3.2950   28.7510    0.6710 C.3   134  PRO134      0.0310
    134  CG         1.9970   28.8350   -0.1120 C.3   134  PRO134      0.0237
    135  CD         0.9710   28.1610    0.7580 C.3   134  PRO134      0.0939
    136  N          3.0720   28.0000    3.8670 N.am  135  THR135     -0.1937
    137  CA         3.6580   28.2920    5.1670 C.3   135  THR135      0.2028
    138  C          3.3510   27.2390    6.2330 C.2   135  THR135      0.2642
    139  O          2.2530   26.7060    6.3090 O.2   135  THR135     -0.2714
    140  CB         3.2720   29.7000    5.6630 C.3   135  THR135      0.1808
    141  OG1        1.8500   29.8530    5.6060 O.3   135  THR135     -0.2208
    142  CG2        3.9200   30.7600    4.7800 C.3   135  THR135      0.0379
    143  N          4.3530   26.9470    7.0490 N.am  136  TYR136     -0.1959
    144  CA         4.2330   25.9580    8.1040 C.3   136  TYR136      0.1771
    145  C          3.2950   26.4130    9.2320 C.2   136  TYR136      0.2619
    146  O          3.3490   27.5650    9.6840 O.2   136  TYR136     -0.2715
    147  CB         5.6050   25.6890    8.7030 C.3   136  TYR136      0.0574
    148  CG         5.5660   24.8260    9.9570 C.ar  136  TYR136     -0.0198
    149  CD1        5.5660   23.4350    9.8740 C.ar  136  TYR136     -0.0009
    150  CD2        5.5350   25.4070   11.2210 C.ar  136  TYR136     -0.0009
    151  CE1        5.5370   22.6510   11.0190 C.ar  136  TYR136      0.0417
    152  CE2        5.4980   24.6290   12.3730 C.ar  136  TYR136      0.0417
    153  CZ         5.5000   23.2540   12.2690 C.ar  136  TYR136      0.1957
    154  OH         5.4640   22.4880   13.4230 O.3   136  TYR136     -0.2866
    155  N          2.4610   25.4810    9.6840 N.am  137  LYS137     -0.1977
    156  CA         1.5390   25.7100   10.7910 C.3   137  LYS137      0.1596
    157  C          1.4050   24.4060   11.5770 C.2   137  LYS137      0.2287
    158  O          1.0520   23.3700   11.0170 O.2   137  LYS137     -0.2864
    159  CB         0.1740   26.1350   10.2550 C.3   137  LYS137      0.0298
    160  CG        -0.6670   26.9630   11.2130 C.3   137  LYS137      0.0038
    161  CD        -2.1550   26.6700   11.0240 C.3   137  LYS137      0.0206
    162  CE        -2.5020   26.4390    9.5630 C.3   137  LYS137      0.1093
    163  NZ        -3.8570   25.8390    9.4020 N.3   137  LYS137     -0.1314
    164  N         -0.2940   21.6380   13.4570 N.3   139  VAL139     -0.1245
    165  CA        -1.6230   21.1590   13.7780 C.3   139  VAL139      0.1561
    166  C         -1.4850   19.8830   14.5450 C.2   139  VAL139      0.2260
    167  O         -0.5050   19.1450   14.3880 O.2   139  VAL139     -0.2867
    168  CB        -2.5280   20.9020   12.5460 C.3   139  VAL139      0.0252
    169  CG1       -2.9650   22.2100   11.9330 C.3   139  VAL139      0.0019
    170  CG2       -1.8460   19.9870   11.5180 C.3   139  VAL139      0.0019
    171  N         -4.3810   14.9610   12.4140 N.3   144  PHE144     -0.1241
    172  CA        -3.9950   15.4230   11.0860 C.3   144  PHE144      0.1605
    173  C         -4.7100   14.6760    9.9450 C.2   144  PHE144      0.2264
    174  O         -4.8110   13.4500    9.9440 O.2   144  PHE144     -0.2867
    175  CB        -2.4790   15.3370   10.8910 C.3   144  PHE144      0.0534
    176  CG        -2.0480   15.6450    9.4860 C.ar  144  PHE144     -0.0203
    177  CD1       -1.8650   16.9550    9.0790 C.ar  144  PHE144     -0.0042
    178  CD2       -1.8860   14.6270    8.5570 C.ar  144  PHE144     -0.0042
    179  CE1       -1.4920   17.2570    7.7800 C.ar  144  PHE144     -0.0003
    180  CE2       -1.5110   14.9220    7.2480 C.ar  144  PHE144     -0.0003
    181  CZ        -1.3180   16.2420    6.8620 C.ar  144  PHE144     -0.0000
@<TRIPOS>BOND
     1    92    91    2
     2    89    90    1
     3    91    90    1
     4    90    93    1
     5    93    94    1
     6    95    94   ar
     7    95    97   ar
     8    94    96   ar
     9    97    98   ar
    10    96    98   ar
    11    83    82    2
    12   134   133    1
    13   134   135    1
    14    82    81    1
    15    73    72    2
    16   133   130    1
    17    88    86   ar
    18   135   129    1
    19    79    78   ar
    20    79    77   ar
    21    81    84    1
    22    81    80    1
    23   110   107    1
    24    78    76   ar
    25   129   130    1
    26   129   120   am
    27   130   131    1
    28   118   119    1
    29   119   120    1
    30   119   122    1
    31    72    80   am
    32    72    71    1
    33    77    75   ar
    34    25    23    1
    35    86    87   ar
    36    86    85    1
    37   120   121    2
    38   124   126   ar
    39   124   123   ar
    40    84    85    1
    41   126   128   ar
    42    76    75   ar
    43    37    36    2
    44    75    74    1
    45    36    35    1
    46    23    22    1
    47    71    74    1
    48    71    70    1
    49   105    99    1
    50   105   104    1
    51   116   115    1
    52   122   123    1
    53   113   114    2
    54   113   112    1
    55   107   108    1
    56   107   106    1
    57   131   132    2
    58   131   136   am
    59   123   125   ar
    60    99   100    1
    61   128   127   ar
    62    24    22    1
    63   108   111   am
    64   108   109    2
    65   111   112    1
    66    22    19    1
    67   104   103    1
    68   125   127   ar
    69   112   115    1
    70   136   137    1
    71    35    38    1
    72    35    34    1
    73   115   117    1
    74   100   103    1
    75   100   101    1
    76   142   140    1
    77    34    28   am
    78    19    18    1
    79    19    20    1
    80   101   102    2
    81    66    65    2
    82   137   140    1
    83   137   138    1
    84    18    16   am
    85   141   140    1
    86    20    26   am
    87    20    21    2
    88    26    27    1
    89    28    29    2
    90    28    27    1
    91    65    64    1
    92   138   139    2
    93   138   143   am
    94    16    17    2
    95    16    15    1
    96    27    30    1
    97    69    67    1
    98   181   180   ar
    99   181   179   ar
   100    58    57    2
   101   143   144    1
   102    15    14    1
   103   180   178   ar
   104    64    67    1
   105    64    63    1
   106    30    31    1
   107   179   177   ar
   108    67    68    1
   109    57    63   am
   110    57    56    1
   111    31    32    1
   112    31    33    1
   113   144   147    1
   114   144   145    1
   115    13    12    2
   116   178   176   ar
   117    14    12   am
   118   147   148    1
   119   177   176   ar
   120    12    11    1
   121    56    55    1
   122    56    59    1
   123   145   146    2
   124   145   155   am
   125   163   162    1
   126   176   175    1
   127    47    45   ar
   128   162   161    1
   129   155   156    1
   130   149   148   ar
   131   149   151   ar
   132   174   173    2
   133   173   172    1
   134   148   150   ar
   135    59    60    1
   136   159   156    1
   137   159   160    1
   138    44    45    1
   139    44    43    1
   140    62    60    1
   141    45    46   ar
   142    11    10    1
   143   156   157    1
   144   175   172    1
   145   158   157    2
   146   151   153   ar
   147   161   160    1
   148   172   171    1
   149    60    61    1
   150    10     3   am
   151     1     2    1
   152   150   152   ar
   153     4     3    2
   154    54    52    1
   155     3     2    1
   156   170   168    1
   157    43    40    1
   158    39    40    1
   159     2     5    1
   160   169   168    1
   161   153   152   ar
   162   153   154    1
   163   168   165    1
   164    40    41    1
   165    52    53    1
   166    52    49    1
   167     5     6    1
   168   164   165    1
   169    42    41    2
   170   165   166    1
   171    50    49    1
   172    50    51    2
   173    49    48    1
   174     6     7    1
   175   167   166    2
   176     7     8    1
   177     8     9    1
