@<TRIPOS>MOLECULE
tmp/3liwA00.pdb
 218 216 0 0 0
SMALL
GASTEIGER

@<TRIPOS>ATOM
      1  N         14.6160   24.7090   14.0440 N.3    42  HIS42      -0.1241
      2  CA        16.0720   24.7400   14.0160 C.3    42  HIS42       0.1621
      3  C         16.6980   23.4080   14.3980 C.2    42  HIS42       0.2264
      4  O         17.8490   23.1390   14.0510 O.2    42  HIS42      -0.2867
      5  CB        16.6170   25.8750   14.8940 C.3    42  HIS42       0.0745
      6  CG        16.7380   25.5410   16.3470 C.ar   42  HIS42       0.0817
      7  ND1       15.7780   25.8890   17.2740 N.ar   42  HIS42      -0.2268
      8  CD2       17.7540   24.9880   17.0510 C.ar   42  HIS42       0.1154
      9  CE1       16.2020   25.5750   18.4850 C.ar   42  HIS42       0.1986
     10  NE2       17.3990   25.0280   18.3780 N.ar   42  HIS42      -0.2212
     11  N         17.0580   30.9940    9.8920 N.3    82  LYS82      -0.1231
     12  CA        18.2560   30.5410   10.5870 C.3    82  LYS82       0.1693
     13  C         18.9510   31.7120   11.2750 C.2    82  LYS82       0.2592
     14  O         19.6070   31.5460   12.3050 O.2    82  LYS82      -0.2718
     15  CB        19.2210   29.8930    9.5890 C.3    82  LYS82       0.0285
     16  CG        18.5880   28.8100    8.7170 C.3    82  LYS82       0.0035
     17  CD        19.5490   28.2910    7.6440 C.3    82  LYS82       0.0206
     18  CE        20.6850   27.4530    8.2250 C.3    82  LYS82       0.1093
     19  NZ        21.6350   28.2450    9.0540 N.3    82  LYS82      -0.1314
     20  N         18.7890   32.8970   10.6980 N.am   83  GLU83      -0.1966
     21  CA        19.4080   34.1130   11.2110 C.3    83  GLU83       0.1733
     22  C         18.9690   34.4770   12.6200 C.2    83  GLU83       0.2617
     23  O         19.7790   34.5240   13.5400 O.2    83  GLU83      -0.2715
     24  CB        19.0980   35.2930   10.2820 C.3    83  GLU83       0.0429
     25  CG        19.1350   34.9620    8.7930 C.3    83  GLU83       0.1163
     26  CD        20.4290   34.2940    8.3720 C.2    83  GLU83       0.3649
     27  OE1       21.5090   34.8210    8.7160 O.co2  83  GLU83      -0.2457
     28  OE2       20.3630   33.2460    7.6910 O.co2  83  GLU83      -0.2457
     29  N         17.6770   34.7370   12.7800 N.am   84  THR84      -0.1937
     30  CA        17.1180   35.1420   14.0670 C.3    84  THR84       0.2028
     31  C         16.3800   34.0570   14.8430 C.2    84  THR84       0.2642
     32  O         16.0850   34.2410   16.0210 O.2    84  THR84      -0.2714
     33  CB        16.1280   36.2870   13.8770 C.3    84  THR84       0.1808
     34  OG1       15.0530   35.8340   13.0460 O.3    84  THR84      -0.2208
     35  CG2       16.8050   37.4840   13.2120 C.3    84  THR84       0.0379
     36  N         16.0710   32.9460   14.1820 N.am   85  TYR85      -0.1973
     37  CA        15.3280   31.8480   14.8020 C.3    85  TYR85       0.1639
     38  C         13.8490   32.2050   14.9210 C.2    85  TYR85       0.2290
     39  O         13.1400   31.6780   15.7780 O.2    85  TYR85      -0.2864
     40  CB        15.8920   31.5110   16.1880 C.3    85  TYR85       0.0560
     41  CG        16.9180   30.4050   16.1850 C.ar   85  TYR85      -0.0198
     42  CD1       17.7920   30.2350   15.1130 C.ar   85  TYR85      -0.0009
     43  CD2       17.0420   29.5500   17.2740 C.ar   85  TYR85      -0.0009
     44  CE1       18.7660   29.2430   15.1290 C.ar   85  TYR85       0.0417
     45  CE2       18.0150   28.5540   17.3010 C.ar   85  TYR85       0.0417
     46  CZ        18.8730   28.4090   16.2270 C.ar   85  TYR85       0.1957
     47  OH        19.8430   27.4310   16.2630 O.3    85  TYR85      -0.2866
     48  N         21.2930   20.2220   28.7270 N.3   132  ARG132     -0.1245
     49  CA        22.3520   20.5210   29.6840 C.3   132  ARG132      0.1563
     50  C         21.8570   21.0250   31.0350 C.2   132  ARG132      0.2260
     51  O         20.9050   21.8090   31.1150 O.2   132  ARG132     -0.2867
     52  CB        23.3130   21.5500   29.0950 C.3   132  ARG132      0.0307
     53  CG        23.9450   21.1300   27.7900 C.3   132  ARG132      0.0489
     54  CD        24.9570   22.1620   27.3500 C.3   132  ARG132      0.2205
     55  NE        25.5710   21.8110   26.0790 N.pl3 132  ARG132     -0.0865
     56  CZ        26.5600   22.4980   25.5220 C.cat 132  ARG132      0.5346
     57  NH1       27.0450   23.5690   26.1300 N.pl3 132  ARG132      0.1354
     58  NH2       27.0570   22.1210   24.3540 N.pl3 132  ARG132      0.1354
     59  N         25.4340   25.4570   31.5090 N.3   135  GLU135     -0.1231
     60  CA        25.8100   25.9740   30.2040 C.3   135  GLU135      0.1699
     61  C         26.9080   25.1700   29.5160 C.2   135  GLU135      0.2592
     62  O         26.7670   24.7990   28.3480 O.2   135  GLU135     -0.2718
     63  CB        26.2270   27.4430   30.3170 C.3   135  GLU135      0.0402
     64  CG        26.2300   28.1700   28.9880 C.3   135  GLU135      0.1161
     65  CD        26.4170   29.6690   29.1240 C.2   135  GLU135      0.3649
     66  OE1       25.6670   30.3050   29.8930 O.co2 135  GLU135     -0.2457
     67  OE2       27.3110   30.2160   28.4460 O.co2 135  GLU135     -0.2457
     68  N         27.9920   24.8810   30.2320 N.am  136  LYS136     -0.1980
     69  CA        29.0940   24.1310   29.6400 C.3   136  LYS136      0.1596
     70  C         29.0180   22.6130   29.7720 C.2   136  LYS136      0.2287
     71  O         29.6440   21.8910   28.9870 O.2   136  LYS136     -0.2864
     72  CB        30.4290   24.6220   30.2080 C.3   136  LYS136      0.0298
     73  CG        30.7990   26.0220   29.7500 C.3   136  LYS136      0.0038
     74  CD        32.2410   26.3800   30.0860 C.3   136  LYS136      0.0206
     75  CE        32.6270   27.7070   29.4380 C.3   136  LYS136      0.1093
     76  NZ        34.0650   28.0670   29.6650 N.3   136  LYS136     -0.1314
     77  N         19.2230   40.4880   21.1270 N.3   162  PHE162     -0.1241
     78  CA        18.6160   40.1310   19.8530 C.3   162  PHE162      0.1605
     79  C         17.1360   40.4940   19.8700 C.2   162  PHE162      0.2264
     80  O         16.4940   40.4840   20.9200 O.2   162  PHE162     -0.2867
     81  CB        18.8030   38.6380   19.6060 C.3   162  PHE162      0.0534
     82  CG        20.2340   38.1970   19.6840 C.ar  162  PHE162     -0.0203
     83  CD1       21.0600   38.2700   18.5690 C.ar  162  PHE162     -0.0042
     84  CD2       20.7740   37.7620   20.8910 C.ar  162  PHE162     -0.0042
     85  CE1       22.4070   37.9200   18.6540 C.ar  162  PHE162     -0.0003
     86  CE2       22.1230   37.4090   20.9870 C.ar  162  PHE162     -0.0003
     87  CZ        22.9380   37.4900   19.8650 C.ar  162  PHE162     -0.0000
     88  N         16.8420   27.7720   34.2020 N.3   179  ASP179     -0.1225
     89  CA        16.4990   28.1110   32.8270 C.3   179  ASP179      0.1805
     90  C         16.6390   26.8520   31.9850 C.2   179  ASP179      0.2598
     91  O         17.1750   25.8460   32.4500 O.2   179  ASP179     -0.2718
     92  CB        17.4700   29.1980   32.3470 C.3   179  ASP179      0.1424
     93  CG        17.1680   29.7070   30.9490 C.2   179  ASP179      0.3668
     94  OD1       16.0100   29.5970   30.4950 O.co2 179  ASP179     -0.2456
     95  OD2       18.1020   30.2440   30.3070 O.co2 179  ASP179     -0.2456
     96  N         16.1140   26.8800   30.7670 N.am  180  ALA180     -0.1966
     97  CA        16.2580   25.7410   29.8800 C.3   180  ALA180      0.1728
     98  C         17.6440   25.9580   29.2830 C.2   180  ALA180      0.2616
     99  O         18.2640   26.9970   29.5250 O.2   180  ALA180     -0.2715
    100  CB        15.2020   25.7710   28.7920 C.3   180  ALA180      0.0334
    101  N         18.1360   24.9990   28.5130 N.am  181  CYS181     -0.1954
    102  CA        19.4520   25.1510   27.9160 C.3   181  CYS181      0.1843
    103  C         19.5970   24.2910   26.6620 C.2   181  CYS181      0.2625
    104  O         18.6280   23.6700   26.2160 O.2   181  CYS181     -0.2714
    105  CB        20.5240   24.7850   28.9490 C.3   181  CYS181      0.0997
    106  SG        22.2050   25.3360   28.5200 S.3   181  CYS181     -0.0797
    107  N         20.7980   24.2720   26.0890 N.am  182  GLN182     -0.1977
    108  CA        21.0750   23.4810   24.8900 C.3   182  GLN182      0.1601
    109  C         20.5940   22.0470   25.0920 C.2   182  GLN182      0.2287
    110  O         20.8970   21.4150   26.1060 O.2   182  GLN182     -0.2864
    111  CB        22.5780   23.4690   24.6100 C.3   182  GLN182      0.0394
    112  CG        23.0170   22.7860   23.3080 C.3   182  GLN182      0.0908
    113  CD        22.6270   23.5700   22.0620 C.2   182  GLN182      0.2608
    114  OE1       22.5670   24.7960   22.0840 O.2   182  GLN182     -0.2717
    115  NE2       22.3780   22.8640   20.9640 N.am  182  GLN182     -0.0878
    116  N         15.9220   22.3890   23.4880 N.3   185  SER185     -0.1217
    117  CA        15.3720   22.9810   22.2770 C.3   185  SER185      0.1889
    118  C         14.3190   22.0990   21.6110 C.2   185  SER185      0.2288
    119  O         14.5310   20.9040   21.4180 O.2   185  SER185     -0.2866
    120  CB        16.5060   23.2500   21.2860 C.3   185  SER185      0.2089
    121  OG        17.6420   23.7790   21.9520 O.3   185  SER185     -0.2183
    122  N         10.7270   25.3480   23.3780 N.3   203  VAL203     -0.1231
    123  CA        12.0540   25.8270   23.7720 C.3   203  VAL203      0.1692
    124  C         12.7710   26.2310   22.4960 C.2   203  VAL203      0.2593
    125  O         13.0570   25.3840   21.6500 O.2   203  VAL203     -0.2718
    126  CB        12.8980   24.7210   24.4770 C.3   203  VAL203      0.0266
    127  CG1       14.3000   25.2480   24.7830 C.3   203  VAL203      0.0020
    128  CG2       12.2340   24.2860   25.7660 C.3   203  VAL203      0.0020
    129  N         13.0690   27.5190   22.3580 N.am  204  SER204     -0.1938
    130  CA        13.7350   28.0020   21.1530 C.3   204  SER204      0.2055
    131  C         15.2130   28.3720   21.3320 C.2   204  SER204      0.2643
    132  O         16.0910   27.7240   20.7680 O.2   204  SER204     -0.2714
    133  CB        12.9630   29.1990   20.5790 C.3   204  SER204      0.2130
    134  OG        13.4380   29.5520   19.2890 O.3   204  SER204     -0.2179
    135  N         15.4980   29.4120   22.1050 N.am  205  TRP205     -0.1959
    136  CA        16.8850   29.8160   22.2950 C.3   205  TRP205      0.1771
    137  C         17.0920   30.7260   23.4950 C.2   205  TRP205      0.2620
    138  O         16.1730   30.9940   24.2650 O.2   205  TRP205     -0.2715
    139  CB        17.4030   30.5390   21.0490 C.3   205  TRP205      0.0590
    140  CG        16.6040   31.7690   20.7060 C.ar  205  TRP205      0.0006
    141  CD1       15.4650   31.8230   19.9600 C.ar  205  TRP205      0.0946
    142  CD2       16.8560   33.1150   21.1520 C.ar  205  TRP205      0.0152
    143  NE1       14.9900   33.1150   19.9130 N.ar  205  TRP205     -0.2442
    144  CE2       15.8240   33.9260   20.6360 C.ar  205  TRP205      0.0810
    145  CE3       17.8560   33.7090   21.9390 C.ar  205  TRP205      0.0012
    146  CZ2       15.7570   35.3080   20.8810 C.ar  205  TRP205      0.0191
    147  CZ3       17.7910   35.0870   22.1840 C.ar  205  TRP205      0.0001
    148  CH2       16.7490   35.8680   21.6550 C.ar  205  TRP205      0.0015
    149  N         18.3260   31.1970   23.6350 N.am  206  GLY206     -0.1940
    150  CA        18.6740   32.0900   24.7210 C.3   206  GLY206      0.2014
    151  C         20.1480   32.4200   24.6330 C.2   206  GLY206      0.2639
    152  O         20.9170   31.6570   24.0520 O.2   206  GLY206     -0.2714
    153  N         20.5400   33.5640   25.1780 N.am  207  GLU207     -0.1963
    154  CA        21.9450   33.9520   25.1780 C.3   207  GLU207      0.1733
    155  C         22.5860   33.1860   26.3380 C.2   207  GLU207      0.2617
    156  O         22.5010   33.5920   27.5020 O.2   207  GLU207     -0.2715
    157  CB        22.0780   35.4600   25.3850 C.3   207  GLU207      0.0429
    158  CG        21.4250   36.2890   24.2910 C.3   207  GLU207      0.1163
    159  CD        21.4300   37.7730   24.6110 C.2   207  GLU207      0.3649
    160  OE1       22.5250   38.3210   24.8630 O.co2 207  GLU207     -0.2457
    161  OE2       20.3430   38.3910   24.6120 O.co2 207  GLU207     -0.2457
    162  N         23.2140   32.0650   26.0120 N.am  208  GLY208     -0.1940
    163  CA        23.8270   31.2520   27.0380 C.3   208  GLY208      0.2014
    164  C         22.7220   30.5530   27.7990 C.2   208  GLY208      0.2639
    165  O         21.6580   30.2860   27.2420 O.2   208  GLY208     -0.2714
    166  N         22.9550   30.2640   29.0720 N.am  209  CYS209     -0.1967
    167  CA        21.9440   29.5900   29.8690 C.3   209  CYS209      0.1712
    168  C         21.9500   30.0710   31.3180 C.2   209  CYS209      0.2296
    169  O         23.0020   30.1750   31.9420 O.2   209  CYS209     -0.2864
    170  CB        22.1640   28.0730   29.8160 C.3   209  CYS209      0.0983
    171  SG        21.9800   27.3180   28.1630 S.3   209  CYS209     -0.0798
    172  N         21.7930   32.8170   32.5050 N.3   211  ARG211     -0.1245
    173  CA        22.6250   34.0020   32.6860 C.3   211  ARG211      0.1563
    174  C         21.9100   35.1380   33.4040 C.2   211  ARG211      0.2260
    175  O         20.6980   35.3220   33.2570 O.2   211  ARG211     -0.2867
    176  CB        23.1220   34.5120   31.3360 C.3   211  ARG211      0.0307
    177  CG        24.1220   33.5970   30.6830 C.3   211  ARG211      0.0489
    178  CD        24.7270   34.2170   29.4450 C.3   211  ARG211      0.2205
    179  NE        25.7430   33.3380   28.8780 N.pl3 211  ARG211     -0.0865
    180  CZ        26.3070   33.5040   27.6870 C.cat 211  ARG211      0.5346
    181  NH1       25.9580   34.5300   26.9180 N.pl3 211  ARG211      0.1354
    182  NH2       27.2150   32.6340   27.2620 N.pl3 211  ARG211      0.1354
    183  N         16.9110   35.9100   29.8360 N.3   215  TYR215     -0.1227
    184  CA        15.7770   35.0000   29.9730 C.3   215  TYR215      0.1736
    185  C         15.7990   33.9390   28.8690 C.2   215  TYR215      0.2596
    186  O         16.5380   34.0660   27.8920 O.2   215  TYR215     -0.2718
    187  CB        14.4710   35.7940   29.8780 C.3   215  TYR215      0.0548
    188  CG        14.3210   36.8820   30.9210 C.ar  215  TYR215     -0.0200
    189  CD1       14.0130   36.5670   32.2460 C.ar  215  TYR215     -0.0009
    190  CD2       14.4900   38.2280   30.5850 C.ar  215  TYR215     -0.0009
    191  CE1       13.8720   37.5630   33.2120 C.ar  215  TYR215      0.0417
    192  CE2       14.3530   39.2350   31.5480 C.ar  215  TYR215      0.0417
    193  CZ        14.0410   38.8920   32.8580 C.ar  215  TYR215      0.1957
    194  OH        13.8820   39.8690   33.8140 O.3   215  TYR215     -0.2866
    195  N         14.9930   32.8930   29.0240 N.am  216  GLY216     -0.1942
    196  CA        14.9290   31.8690   27.9970 C.3   216  GLY216      0.2014
    197  C         13.9150   32.3340   26.9690 C.2   216  GLY216      0.2639
    198  O         12.8980   32.9000   27.3430 O.2   216  GLY216     -0.2714
    199  N         14.1810   32.1200   25.6850 N.am  217  ILE217     -0.1963
    200  CA        13.2430   32.5470   24.6440 C.3   217  ILE217      0.1727
    201  C         12.4930   31.3480   24.0660 C.2   217  ILE217      0.2616
    202  O         13.0950   30.3330   23.7130 O.2   217  ILE217     -0.2715
    203  CB        13.9690   33.2830   23.4970 C.3   217  ILE217      0.0290
    204  CG1       15.0180   34.2400   24.0770 C.3   217  ILE217      0.0022
    205  CG2       12.9600   34.0480   22.6470 C.3   217  ILE217      0.0023
    206  CD1       14.4630   35.2720   25.0540 C.3   217  ILE217      0.0001
    207  N         11.1760   31.4790   23.9720 N.am  218  TYR218     -0.1974
    208  CA        10.3320   30.4070   23.4710 C.3   218  TYR218      0.1639
    209  C          9.4870   30.8690   22.2890 C.2   218  TYR218      0.2290
    210  O          9.0710   32.0250   22.2380 O.2   218  TYR218     -0.2864
    211  CB         9.3960   29.9190   24.5840 C.3   218  TYR218      0.0560
    212  CG        10.0890   29.4490   25.8440 C.ar  218  TYR218     -0.0198
    213  CD1       10.6830   30.3540   26.7250 C.ar  218  TYR218     -0.0009
    214  CD2       10.1690   28.0930   26.1440 C.ar  218  TYR218     -0.0009
    215  CE1       11.3440   29.9080   27.8740 C.ar  218  TYR218      0.0417
    216  CE2       10.8200   27.6410   27.2780 C.ar  218  TYR218      0.0417
    217  CZ        11.4060   28.5470   28.1420 C.ar  218  TYR218      0.1957
    218  OH        12.0480   28.0820   29.2710 O.3   218  TYR218     -0.2866
@<TRIPOS>BOND
     1    17    18    1
     2    17    16    1
     3    28    26   ar
     4    18    19    1
     5    26    27   ar
     6    26    25    1
     7    16    15    1
     8    25    24    1
     9    15    12    1
    10    11    12    1
    11    24    21    1
    12    12    13    1
    13    20    21    1
    14    20    13   am
    15    21    22    1
    16    13    14    2
    17    22    29   am
    18    22    23    2
    19    29    30    1
    20    34    33    1
    21    35    33    1
    22    33    30    1
    23     2     1    1
    24     2     3    1
    25     2     5    1
    26     4     3    2
    27    30    31    1
    28    36    37    1
    29    36    31   am
    30    37    38    1
    31    37    40    1
    32    31    32    2
    33     5     6    1
    34    38    39    2
    35    42    44   ar
    36    42    41   ar
    37    44    46   ar
    38    41    40    1
    39    41    43   ar
    40    46    47    1
    41    46    45   ar
    42     6     8   ar
    43     6     7   ar
    44     8    10   ar
    45     7     9   ar
    46    43    45   ar
    47    10     9   ar
    48    83    85   ar
    49    83    82   ar
    50    85    87   ar
    51   134   133    1
    52    81    82    1
    53    81    78    1
    54    82    84   ar
    55    78    79    1
    56    78    77    1
    57    87    86   ar
    58    79    80    2
    59   143   141   ar
    60   143   144   ar
    61   141   140   ar
    62   133   130    1
    63   144   146   ar
    64   144   142   ar
    65   140   139    1
    66   140   142   ar
    67   132   131    2
    68   146   148   ar
    69    84    86   ar
    70   115   113   am
    71   139   136    1
    72   142   145   ar
    73   130   131    1
    74   130   129    1
    75   120   121    1
    76   120   117    1
    77   131   135   am
    78   119   118    2
    79   118   117    1
    80   125   124    2
    81   148   147   ar
    82   145   147   ar
    83   113   114    2
    84   113   112    1
    85   135   136    1
    86   210   209    2
    87   117   116    1
    88   209   208    1
    89   136   137    1
    90   129   124   am
    91   124   123    1
    92   205   203    1
    93   112   111    1
    94   122   123    1
    95   208   207    1
    96   208   211    1
    97   137   149   am
    98   137   138    2
    99   203   204    1
   100   203   200    1
   101   149   150    1
   102   202   201    2
   103   123   126    1
   104   207   201   am
   105   152   151    2
   106   201   200    1
   107   204   206    1
   108   158   159    1
   109   158   157    1
   110    58    56    1
   111   126   127    1
   112   126   128    1
   113   211   212    1
   114   111   108    1
   115   159   161   ar
   116   159   160   ar
   117   151   150    1
   118   151   153   am
   119   200   199    1
   120   108   109    1
   121   108   107    1
   122   109   110    2
   123   153   154    1
   124   154   157    1
   125   154   155    1
   126    56    55    2
   127    56    57    1
   128   199   197   am
   129   212   214   ar
   130   212   213   ar
   131   162   155   am
   132   162   163    1
   133    55    54    1
   134   107   103   am
   135   214   216   ar
   136   104   103    2
   137   155   156    2
   138   103   102    1
   139   213   215   ar
   140   181   180    1
   141   197   198    2
   142   197   196    1
   143   163   164    1
   144   165   164    2
   145   182   180    1
   146   216   217   ar
   147    54    53    1
   148   180   179    2
   149    53    52    1
   150   164   166   am
   151   215   217   ar
   152   186   185    2
   153   102   101    1
   154   102   105    1
   155   196   195    1
   156   217   218    1
   157   171   106    1
   158   171   170    1
   159    62    61    2
   160    67    65   ar
   161   101    98   am
   162   106   105    1
   163    48    49    1
   164   100    97    1
   165   185   195   am
   166   185   184    1
   167   179   178    1
   168    71    70    2
   169    64    65    1
   170    64    63    1
   171   166   167    1
   172    52    49    1
   173    65    66   ar
   174    98    99    2
   175    98    97    1
   176    75    76    1
   177    75    74    1
   178   178   177    1
   179    61    60    1
   180    61    68   am
   181    69    70    1
   182    69    72    1
   183    69    68    1
   184    49    50    1
   185    73    74    1
   186    73    72    1
   187   170   167    1
   188   183   184    1
   189   167   168    1
   190   187   184    1
   191   187   188    1
   192    97    96    1
   193    60    63    1
   194    60    59    1
   195    95    93   ar
   196    94    93   ar
   197   190   188   ar
   198   190   192   ar
   199   177   176    1
   200    96    90   am
   201   188   189   ar
   202    93    92    1
   203    50    51    2
   204   168   169    2
   205   176   173    1
   206   192   193   ar
   207    90    91    2
   208    90    89    1
   209   189   191   ar
   210    92    89    1
   211   172   173    1
   212   173   174    1
   213    89    88    1
   214   193   191   ar
   215   193   194    1
   216   175   174    2
