@<TRIPOS>MOLECULE
tmp/3lixA00.pdb
 132 124 0 0 0
SMALL
GASTEIGER

@<TRIPOS>ATOM
      1  N         30.4330   30.1290   18.2150 N.3    10  ARG10      -0.1245
      2  CA        29.3660   31.1410   18.2050 C.3    10  ARG10       0.1563
      3  C         29.4840   32.0810   17.0130 C.2    10  ARG10       0.2260
      4  O         30.6000   32.4600   16.6310 O.2    10  ARG10      -0.2867
      5  CB        29.3470   31.9350   19.5190 C.3    10  ARG10       0.0307
      6  CG        29.3490   31.0330   20.7710 C.3    10  ARG10       0.0489
      7  CD        28.8960   31.7460   22.0360 C.3    10  ARG10       0.2205
      8  NE        28.5010   30.7810   23.0620 N.pl3  10  ARG10      -0.0865
      9  CZ        29.2160   30.4800   24.1460 C.cat  10  ARG10       0.5346
     10  NH1       28.7650   29.5850   25.0170 N.pl3  10  ARG10       0.1354
     11  NH2       30.3750   31.0810   24.3770 N.pl3  10  ARG10       0.1354
     12  N         27.3600   38.9980   19.3450 N.3    30  LEU30      -0.1245
     13  CA        26.8790   37.6600   18.9850 C.3    30  LEU30       0.1561
     14  C         25.6460   37.8390   18.1390 C.2    30  LEU30       0.2260
     15  O         24.7390   38.5940   18.4950 O.2    30  LEU30      -0.2867
     16  CB        26.5380   36.8330   20.2320 C.3    30  LEU30       0.0270
     17  CG        25.6560   35.5670   20.1490 C.3    30  LEU30       0.0019
     18  CD1       26.4470   34.3810   19.6240 C.3    30  LEU30       0.0001
     19  CD2       25.0670   35.2060   21.5130 C.3    30  LEU30       0.0001
     20  N         22.2460   37.0460   16.9110 N.3    32  ASP32      -0.1239
     21  CA        21.2410   36.2900   17.6430 C.3    32  ASP32       0.1674
     22  C         19.7980   36.4050   17.1460 C.2    32  ASP32       0.2266
     23  O         19.1070   37.3840   17.4230 O.2    32  ASP32      -0.2867
     24  CB        21.3320   36.6710   19.1180 C.3    32  ASP32       0.1410
     25  CG        20.4800   35.8160   19.9960 C.2    32  ASP32       0.3668
     26  OD1       19.8250   34.8830   19.5040 O.co2  32  ASP32      -0.2456
     27  OD2       20.4620   36.0820   21.2000 O.co2  32  ASP32      -0.2456
     28  N         17.3080   34.7630   18.3140 N.3    34  GLY34      -0.1210
     29  CA        16.3650   34.5170   19.4060 C.3    34  GLY34       0.1956
     30  C         16.0290   35.8130   20.0980 C.2    34  GLY34       0.2612
     31  O         15.0490   35.8940   20.8340 O.2    34  GLY34      -0.2717
     32  N         16.8470   36.8290   19.8330 N.am   35  ALA35      -0.1965
     33  CA        16.8550   38.0610   20.6000 C.3    35  ALA35       0.1728
     34  C         16.0400   39.1370   19.9040 C.2    35  ALA35       0.2616
     35  O         16.4080   39.5620   18.8050 O.2    35  ALA35      -0.2715
     36  CB        18.3030   38.5400   20.8170 C.3    35  ALA35       0.0334
     37  N         14.9400   39.5630   20.5460 N.am   36  ASP36      -0.1957
     38  CA        14.0590   40.6500   20.0600 C.3    36  ASP36       0.1840
     39  C         14.7750   41.9820   19.9530 C.2    36  ASP36       0.2621
     40  O         14.4250   42.8120   19.1220 O.2    36  ASP36      -0.2715
     41  CB        12.9020   40.8970   21.0430 C.3    36  ASP36       0.1450
     42  CG        12.0750   39.6550   21.3270 C.2    36  ASP36       0.3671
     43  OD1       11.6390   38.9770   20.3600 O.co2  36  ASP36      -0.2456
     44  OD2       11.8440   39.3750   22.5350 O.co2  36  ASP36      -0.2456
     45  N         15.7510   42.1900   20.8360 N.am   37  MET37      -0.1977
     46  CA        16.2960   43.5080   21.1130 C.3    37  MET37       0.1605
     47  C         17.7880   43.4080   21.2780 C.2    37  MET37       0.2287
     48  O         18.2980   42.4390   21.8430 O.2    37  MET37      -0.2864
     49  CB        15.6930   44.0510   22.4020 C.3    37  MET37       0.0413
     50  CG        15.4980   45.5480   22.3780 C.3    37  MET37       0.0598
     51  SD        14.5810   46.2000   23.7820 S.3    37  MET37      -0.1393
     52  CE        13.2620   44.9950   24.0150 C.3    37  MET37       0.0692
     53  N         21.5210   44.0630   22.5940 N.3    39  VAL39      -0.1245
     54  CA        22.0360   44.2100   23.9560 C.3    39  VAL39       0.1561
     55  C         23.4620   44.7470   23.9170 C.2    39  VAL39       0.2260
     56  O         24.3650   44.0970   23.3670 O.2    39  VAL39      -0.2867
     57  CB        21.9990   42.8760   24.7290 C.3    39  VAL39       0.0252
     58  CG1       22.4340   43.0920   26.1590 C.3    39  VAL39       0.0019
     59  CG2       20.6190   42.3230   24.7340 C.3    39  VAL39       0.0019
     60  N         13.4730   41.6730   32.3280 N.3    56  VAL56      -0.1231
     61  CA        13.8120   40.8160   31.1870 C.3    56  VAL56       0.1692
     62  C         13.5980   39.3400   31.5470 C.2    56  VAL56       0.2592
     63  O         14.0930   38.8750   32.5850 O.2    56  VAL56      -0.2718
     64  CB        15.2880   41.0280   30.7590 C.3    56  VAL56       0.0266
     65  CG1       15.6480   40.1340   29.5910 C.3    56  VAL56       0.0020
     66  CG2       15.5330   42.4780   30.3930 C.3    56  VAL56       0.0020
     67  N         12.8560   38.6230   30.6940 N.am   57  LEU57      -0.1966
     68  CA        12.6720   37.1670   30.8030 C.3    57  LEU57       0.1728
     69  C         13.5700   36.4170   29.8000 C.2    57  LEU57       0.2617
     70  O         13.2840   36.3650   28.6030 O.2    57  LEU57      -0.2715
     71  CB        11.1840   36.8040   30.6000 C.3    57  LEU57       0.0311
     72  CG        10.4580   35.5210   31.1190 C.3    57  LEU57       0.0022
     73  CD1        9.7960   34.6640   30.0160 C.3    57  LEU57       0.0001
     74  CD2       11.2740   34.6260   32.0840 C.3    57  LEU57       0.0001
     75  N         14.6730   35.8610   30.2840 N.am   58  GLY58      -0.1940
     76  CA        15.5330   35.0170   29.4590 C.3    58  GLY58       0.2014
     77  C         15.5060   33.5790   29.9470 C.2    58  GLY58       0.2638
     78  O         14.6780   33.2370   30.7730 O.2    58  GLY58      -0.2714
     79  N         16.4100   32.7390   29.4400 N.am   59  ALA59      -0.1977
     80  CA        16.4980   31.3420   29.8650 C.3    59  ALA59       0.1597
     81  C         16.8020   31.1870   31.3630 C.2    59  ALA59       0.2287
     82  O         16.2820   30.2770   32.0210 O.2    59  ALA59      -0.2864
     83  CB        17.5220   30.6090   29.0400 C.3    59  ALA59       0.0319
     84  N         19.4770   44.1030   33.4840 N.3    67  PHE67      -0.1241
     85  CA        19.5590   44.9180   32.2770 C.3    67  PHE67       0.1605
     86  C         18.9140   46.2870   32.4930 C.2    67  PHE67       0.2264
     87  O         17.9590   46.4190   33.2520 O.2    67  PHE67      -0.2867
     88  CB        18.8660   44.2250   31.1130 C.3    67  PHE67       0.0534
     89  CG        19.5080   42.9320   30.6860 C.ar   67  PHE67      -0.0203
     90  CD1       20.6430   42.9280   29.8850 C.ar   67  PHE67      -0.0042
     91  CD2       18.9540   41.7100   31.0470 C.ar   67  PHE67      -0.0042
     92  CE1       21.2340   41.7140   29.4600 C.ar   67  PHE67      -0.0003
     93  CE2       19.5450   40.4920   30.6290 C.ar   67  PHE67      -0.0003
     94  CZ        20.6840   40.5040   29.8330 C.ar   67  PHE67      -0.0000
     95  N         18.8580   47.1430   25.0710 N.3    91  LEU91      -0.1245
     96  CA        19.1170   46.7120   26.4190 C.3    91  LEU91       0.1561
     97  C         20.5710   46.9130   26.7040 C.2    91  LEU91       0.2260
     98  O         21.4110   46.8590   25.8010 O.2    91  LEU91      -0.2867
     99  CB        18.7290   45.2450   26.6150 C.3    91  LEU91       0.0270
    100  CG        17.2300   44.9260   26.5540 C.3    91  LEU91       0.0019
    101  CD1       17.0230   43.4510   26.4570 C.3    91  LEU91       0.0001
    102  CD2       16.4740   45.4580   27.7480 C.3    91  LEU91       0.0001
    103  N         27.6870   41.7680   32.8750 N.3    96  ASN96      -0.1240
    104  CA        28.5300   41.0150   31.9780 C.3    96  ASN96       0.1653
    105  C         29.1400   42.0640   31.0250 C.2    96  ASN96       0.2266
    106  O         29.1670   43.2410   31.3970 O.2    96  ASN96      -0.2867
    107  CB        27.6570   39.9490   31.3190 C.3    96  ASN96       0.1155
    108  CG        28.2030   39.4760   30.0270 C.2    96  ASN96       0.2627
    109  OD1       29.3000   38.9150   29.9790 O.2    96  ASN96      -0.2716
    110  ND2       27.4470   39.6990   28.9450 N.am   96  ASN96      -0.0877
    111  N         29.6480   41.6010   26.8880 N.3    98  TRP98      -0.1241
    112  CA        29.6340   41.4920   25.4240 C.3    98  TRP98       0.1605
    113  C         28.2200   41.8010   24.8890 C.2    98  TRP98       0.2264
    114  O         27.2240   41.8130   25.6510 O.2    98  TRP98      -0.2867
    115  CB        30.2030   40.1420   24.9240 C.3    98  TRP98       0.0550
    116  CG        29.1810   39.0390   24.8480 C.ar   98  TRP98       0.0003
    117  CD1       28.3600   38.7490   23.7900 C.ar   98  TRP98       0.0946
    118  CD2       28.8580   38.0930   25.8740 C.ar   98  TRP98       0.0152
    119  NE1       27.5430   37.6850   24.0950 N.ar   98  TRP98      -0.2442
    120  CE2       27.8270   37.2610   25.3660 C.ar   98  TRP98       0.0810
    121  CE3       29.3450   37.8590   27.1670 C.ar   98  TRP98       0.0012
    122  CZ2       27.2720   36.2190   26.1070 C.ar   98  TRP98       0.0191
    123  CZ3       28.7890   36.8190   27.9090 C.ar   98  TRP98       0.0001
    124  CH2       27.7590   36.0140   27.3750 C.ar   98  TRP98       0.0015
    125  N         24.8870   41.5750   22.1290 N.3   100  ILE100     -0.1245
    126  CA        24.0680   40.6570   21.3550 C.3   100  ILE100      0.1561
    127  C         23.3850   41.4550   20.2400 C.2   100  ILE100      0.2260
    128  O         22.5810   42.3480   20.5260 O.2   100  ILE100     -0.2867
    129  CB        23.0120   39.9510   22.2500 C.3   100  ILE100      0.0252
    130  CG1       23.6610   38.8300   23.0590 C.3   100  ILE100      0.0019
    131  CG2       21.9050   39.3230   21.4180 C.3   100  ILE100      0.0019
    132  CD1       22.9980   38.5880   24.3960 C.3   100  ILE100      0.0001
@<TRIPOS>BOND
     1     4     3    2
     2    20    21    1
     3     3     2    1
     4    22    23    2
     5    22    21    1
     6    21    24    1
     7    14    15    2
     8    14    13    1
     9     2     1    1
    10     2     5    1
    11    28    29    1
    12    35    34    2
    13    13    12    1
    14    13    16    1
    15    24    25    1
    16    40    39    2
    17    29    30    1
    18    26    25   ar
    19     5     6    1
    20    18    17    1
    21    32    30   am
    22    32    33    1
    23    34    37   am
    24    34    33    1
    25    39    38    1
    26    39    45   am
    27    25    27   ar
    28    38    37    1
    29    38    41    1
    30    30    31    2
    31    17    16    1
    32    17    19    1
    33   127   128    2
    34   127   126    1
    35    43    42   ar
    36    33    36    1
    37     6     7    1
    38    45    46    1
    39    41    42    1
    40    46    47    1
    41    46    49    1
    42    47    48    2
    43    42    44   ar
    44   126   125    1
    45   126   129    1
    46   131   129    1
    47     7     8    1
    48   129   130    1
    49    50    49    1
    50    50    51    1
    51    53    54    1
    52   130   132    1
    53     8     9    2
    54    56    55    2
    55    51    52    1
    56   117   119   ar
    57   117   116   ar
    58    55    54    1
    59    54    57    1
    60   119   120   ar
    61     9    11    1
    62     9    10    1
    63    57    59    1
    64    57    58    1
    65   116   115    1
    66   116   118   ar
    67   113   112    1
    68   113   114    2
    69   115   112    1
    70    95    96    1
    71   120   118   ar
    72   120   122   ar
    73   112   111    1
    74    98    97    2
    75   118   121   ar
    76   122   124   ar
    77    96    99    1
    78    96    97    1
    79   101   100    1
    80   100    99    1
    81   100   102    1
    82   121   123   ar
    83   124   123   ar
    84    70    69    2
    85   110   108   am
    86    83    80    1
    87    79    80    1
    88    79    77   am
    89    76    77    1
    90    76    75    1
    91    92    94   ar
    92    92    90   ar
    93    65    64    1
    94    69    75   am
    95    69    68    1
    96    94    93   ar
    97    80    81    1
    98    90    89   ar
    99    77    78    2
   100   109   108    2
   101    73    72    1
   102   108   107    1
   103    66    64    1
   104    71    68    1
   105    71    72    1
   106    93    91   ar
   107    89    91   ar
   108    89    88    1
   109    67    68    1
   110    67    62   am
   111    64    61    1
   112   105   106    2
   113   105   104    1
   114    88    85    1
   115    72    74    1
   116    61    62    1
   117    61    60    1
   118   107   104    1
   119    81    82    2
   120    62    63    2
   121   104   103    1
   122    85    86    1
   123    85    84    1
   124    86    87    2
