@<TRIPOS>MOLECULE
tmp/3liyH00.pdb
 162 153 0 0 0
SMALL
GASTEIGER

@<TRIPOS>ATOM
      1  N         94.4540   25.1370   63.2590 N.3    10  ARG10      -0.1245
      2  CA        94.0310   23.7700   62.9540 C.3    10  ARG10       0.1563
      3  C         94.4460   22.7900   64.0360 C.2    10  ARG10       0.2260
      4  O         95.5520   22.9040   64.5870 O.2    10  ARG10      -0.2867
      5  CB        94.5510   23.3450   61.5770 C.3    10  ARG10       0.0307
      6  CG        93.8670   24.1730   60.5000 C.3    10  ARG10       0.0489
      7  CD        94.2260   23.7830   59.0900 C.3    10  ARG10       0.2205
      8  NE        93.6530   24.7510   58.1570 N.pl3  10  ARG10      -0.0865
      9  CZ        94.3630   25.4670   57.2950 C.cat  10  ARG10       0.5346
     10  NH1       95.6840   25.3040   57.2260 N.pl3  10  ARG10       0.1354
     11  NH2       93.7550   26.3350   56.4910 N.pl3  10  ARG10       0.1354
     12  N         96.3760   16.5050   60.8080 N.3    30  LEU30      -0.1245
     13  CA        95.1280   17.2020   61.1760 C.3    30  LEU30       0.1561
     14  C         94.1370   16.2360   61.8220 C.2    30  LEU30       0.2260
     15  O         93.8610   15.1630   61.2950 O.2    30  LEU30      -0.2867
     16  CB        94.5000   17.8240   59.9180 C.3    30  LEU30       0.0270
     17  CG        93.1060   18.4700   60.0770 C.3    30  LEU30       0.0019
     18  CD1       93.2270   19.7070   60.9160 C.3    30  LEU30       0.0001
     19  CD2       92.5670   18.8480   58.6830 C.3    30  LEU30       0.0001
     20  N         90.6480   15.1670   62.3100 N.3    32  ASP32      -0.1239
     21  CA        89.4930   15.4940   61.4540 C.3    32  ASP32       0.1674
     22  C         88.3310   14.5490   61.6790 C.2    32  ASP32       0.2266
     23  O         88.3070   13.4300   61.1440 O.2    32  ASP32      -0.2867
     24  CB        89.9340   15.4480   59.9820 C.3    32  ASP32       0.1410
     25  CG        88.8910   15.9810   59.0340 C.2    32  ASP32       0.3668
     26  OD1       87.8250   16.4040   59.4870 O.co2  32  ASP32      -0.2456
     27  OD2       89.1590   16.0150   57.8140 O.co2  32  ASP32      -0.2456
     28  N         85.5600   14.9370   60.4030 N.3    34  GLY34      -0.1210
     29  CA        84.8830   14.7910   59.1110 C.3    34  GLY34       0.1956
     30  C         85.5810   13.9020   58.0980 C.2    34  GLY34       0.2612
     31  O         85.1610   13.8430   56.9340 O.2    34  GLY34      -0.2717
     32  N         86.6270   13.1860   58.5160 N.am   35  ALA35      -0.1965
     33  CA        87.2730   12.2240   57.6080 C.3    35  ALA35       0.1728
     34  C         86.8570   10.8120   58.0250 C.2    35  ALA35       0.2616
     35  O         87.1110   10.3840   59.1640 O.2    35  ALA35      -0.2715
     36  CB        88.8320   12.3740   57.6460 C.3    35  ALA35       0.0334
     37  N         86.2430   10.0850   57.0890 N.am   36  ASP36      -0.1957
     38  CA        85.8840    8.6800   57.2900 C.3    36  ASP36       0.1840
     39  C         87.1390    7.8110   57.5070 C.2    36  ASP36       0.2621
     40  O         87.0800    6.8060   58.2120 O.2    36  ASP36      -0.2715
     41  CB        85.2180    8.1310   56.0370 C.3    36  ASP36       0.1450
     42  CG        83.8250    8.6820   55.7940 C.2    36  ASP36       0.3671
     43  OD1       83.2200    9.3200   56.6910 O.co2  36  ASP36      -0.2456
     44  OD2       83.3250    8.4340   54.6790 O.co2  36  ASP36      -0.2456
     45  N         88.2330    8.1770   56.8340 N.am   37  MET37      -0.1977
     46  CA        89.4430    7.3780   56.8220 C.3    37  MET37       0.1605
     47  C         90.6700    8.2980   56.9400 C.2    37  MET37       0.2287
     48  O         90.6280    9.4560   56.5360 O.2    37  MET37      -0.2864
     49  CB        89.4750    6.5550   55.5160 C.3    37  MET37       0.0413
     50  CG        90.6030    5.5810   55.3560 C.3    37  MET37       0.0598
     51  SD        90.2550    4.5200   53.9090 S.3    37  MET37      -0.1393
     52  CE        88.5230    4.4820   53.7830 C.3    37  MET37       0.0692
     53  N         94.4110    9.8410   56.1330 N.3    39  VAL39      -0.1245
     54  CA        95.1390   10.1420   54.8800 C.3    39  VAL39       0.1561
     55  C         96.5990   10.3860   55.2840 C.2    39  VAL39       0.2260
     56  O         96.8830   11.1200   56.2510 O.2    39  VAL39      -0.2867
     57  CB        94.5820   11.4310   54.2030 C.3    39  VAL39       0.0252
     58  CG1       95.4090   11.8490   52.9430 C.3    39  VAL39       0.0019
     59  CG2       93.0710   11.2080   53.7950 C.3    39  VAL39       0.0019
     60  N         91.5490    4.4600   44.0300 N.3    54  THR54      -0.1203
     61  CA        90.3280    4.6090   44.7970 C.3    54  THR54       0.1994
     62  C         89.6960    5.9620   44.5070 C.2    54  THR54       0.2619
     63  O         90.3150    6.8050   43.8580 O.2    54  THR54      -0.2717
     64  CB        90.5660    4.3920   46.3170 C.3    54  THR54       0.1784
     65  OG1       89.3020    4.2300   46.9630 O.3    54  THR54      -0.2211
     66  CG2       91.2880    5.6210   46.9630 C.3    54  THR54       0.0376
     67  N         88.4270    6.1230   44.8680 N.am   55  SER55      -0.1937
     68  CA        87.7530    7.4070   44.7440 C.3    55  SER55       0.2055
     69  C         87.5530    7.9440   46.1430 C.2    55  SER55       0.2643
     70  O         87.3970    7.1670   47.0880 O.2    55  SER55      -0.2714
     71  CB        86.3730    7.2540   44.1040 C.3    55  SER55       0.2130
     72  OG        86.4970    6.7090   42.8070 O.3    55  SER55      -0.2179
     73  N         87.5640    9.2610   46.2570 N.am   56  VAL56      -0.1963
     74  CA        87.3260    9.9200   47.5220 C.3    56  VAL56       0.1727
     75  C         86.4170   11.1180   47.2620 C.2    56  VAL56       0.2616
     76  O         86.5260   11.7960   46.2350 O.2    56  VAL56      -0.2715
     77  CB        88.6460   10.4180   48.1590 C.3    56  VAL56       0.0290
     78  CG1       88.3370   11.2670   49.3990 C.3    56  VAL56       0.0023
     79  CG2       89.5550    9.2270   48.5240 C.3    56  VAL56       0.0023
     80  N         85.4450   11.3000   48.1440 N.am   57  LEU57      -0.1963
     81  CA        84.5110   12.4070   48.0420 C.3    57  LEU57       0.1728
     82  C         85.0130   13.4990   48.9830 C.2    57  LEU57       0.2617
     83  O         85.1310   13.2730   50.1880 O.2    57  LEU57      -0.2715
     84  CB        83.1230   11.9200   48.5080 C.3    57  LEU57       0.0311
     85  CG        81.8020   12.3620   47.8540 C.3    57  LEU57       0.0022
     86  CD1       80.6330   12.2580   48.8590 C.3    57  LEU57       0.0001
     87  CD2       81.8380   13.7380   47.1800 C.3    57  LEU57       0.0001
     88  N         85.2290   14.6980   48.4500 N.am   58  GLY58      -0.1940
     89  CA        85.5740   15.8380   49.2900 C.3    58  GLY58       0.2014
     90  C         84.7860   17.0690   48.9000 C.2    58  GLY58       0.2638
     91  O         83.7850   16.9630   48.1930 O.2    58  GLY58      -0.2714
     92  N         85.2580   18.2360   49.3250 N.am   59  ALA59      -0.1977
     93  CA        84.4850   19.4780   49.1920 C.3    59  ALA59       0.1597
     94  C         84.0110   19.7160   47.7530 C.2    59  ALA59       0.2287
     95  O         82.8100   19.8980   47.5090 O.2    59  ALA59      -0.2864
     96  CB        85.2900   20.6570   49.6840 C.3    59  ALA59       0.0319
     97  N         83.8390   14.3020   43.7460 N.3    62  GLN62      -0.1245
     98  CA        84.5800   13.0480   43.7850 C.3    62  GLN62       0.1566
     99  C         85.9230   13.2080   43.0610 C.2    62  GLN62       0.2260
    100  O         85.9860   13.7520   41.9510 O.2    62  GLN62      -0.2867
    101  CB        83.7550   11.9280   43.1390 C.3    62  GLN62       0.0367
    102  CG        84.3240   10.5240   43.3450 C.3    62  GLN62       0.0905
    103  CD        83.2900    9.5220   43.8640 C.2    62  GLN62       0.2608
    104  OE1       83.1930    8.4040   43.3640 O.2    62  GLN62      -0.2717
    105  NE2       82.5410    9.9130   44.8970 N.am   62  GLN62      -0.0878
    106  N         94.0320   10.2720   45.5030 N.3    67  PHE67      -0.1241
    107  CA        94.2590    9.3230   46.6110 C.3    67  PHE67       0.1605
    108  C         94.3890    7.9000   46.1400 C.2    67  PHE67       0.2264
    109  O         93.7410    7.5000   45.1650 O.2    67  PHE67      -0.2867
    110  CB        93.1450    9.3960   47.6780 C.3    67  PHE67       0.0534
    111  CG        92.9430   10.7510   48.2460 C.ar   67  PHE67      -0.0203
    112  CD1       91.9860   11.6080   47.7000 C.ar   67  PHE67      -0.0042
    113  CD2       93.6720   11.1780   49.3600 C.ar   67  PHE67      -0.0042
    114  CE1       91.8210   12.9020   48.1830 C.ar   67  PHE67      -0.0003
    115  CE2       93.5410   12.5110   49.8300 C.ar   67  PHE67      -0.0003
    116  CZ        92.5500   13.3390   49.2860 C.ar   67  PHE67      -0.0000
    117  N         94.8410    3.7540   47.9460 N.3    69  LEU69      -0.1245
    118  CA        94.7090    2.9670   49.1690 C.3    69  LEU69       0.1561
    119  C         95.9610    2.1130   49.3910 C.2    69  LEU69       0.2260
    120  O         96.4850    1.5140   48.4430 O.2    69  LEU69      -0.2867
    121  CB        93.4720    2.0510   49.1070 C.3    69  LEU69       0.0270
    122  CG        92.0710    2.6220   49.3800 C.3    69  LEU69       0.0019
    123  CD1       91.0080    1.5980   48.9720 C.3    69  LEU69       0.0001
    124  CD2       91.8830    3.0070   50.8480 C.3    69  LEU69       0.0001
    125  N         94.1310    5.9740   53.2810 N.3    91  LEU91      -0.1245
    126  CA        94.2440    6.7050   52.0340 C.3    91  LEU91       0.1561
    127  C         95.6430    7.3010   51.9780 C.2    91  LEU91       0.2260
    128  O         96.2430    7.6040   52.9990 O.2    91  LEU91      -0.2867
    129  CB        93.2030    7.8390   52.0040 C.3    91  LEU91       0.0270
    130  CG        91.7430    7.3490   51.9090 C.3    91  LEU91       0.0019
    131  CD1       90.7880    8.5790   52.1890 C.3    91  LEU91       0.0001
    132  CD2       91.5090    6.7530   50.4940 C.3    91  LEU91       0.0001
    133  N         99.6880   16.8890   50.0490 N.3    97  ASN97      -0.1225
    134  CA        99.1310   18.0520   50.7260 C.3    97  ASN97       0.1785
    135  C         98.6190   17.7160   52.1170 C.2    97  ASN97       0.2597
    136  O         98.5040   18.5980   52.9670 O.2    97  ASN97      -0.2718
    137  CB        97.9650   18.6430   49.9130 C.3    97  ASN97       0.1169
    138  CG        98.3550   19.0040   48.4930 C.2    97  ASN97       0.2627
    139  OD1       97.5640   18.8370   47.5610 O.2    97  ASN97      -0.2716
    140  ND2       99.5450   19.5660   48.3290 N.am   97  ASN97      -0.0877
    141  N         98.2610   16.4530   52.3370 N.am   98  TRP98      -0.1976
    142  CA        97.4140   16.1030   53.4680 C.3    98  TRP98       0.1640
    143  C         97.9980   14.9660   54.3240 C.2    98  TRP98       0.2290
    144  O         98.4500   13.9130   53.8180 O.2    98  TRP98      -0.2864
    145  CB        95.9830   15.7700   53.0030 C.3    98  TRP98       0.0576
    146  CG        95.0380   16.9640   52.9250 C.ar   98  TRP98       0.0006
    147  CD1       95.3580   18.2860   53.0930 C.ar   98  TRP98       0.0946
    148  CD2       93.6270   16.9300   52.6430 C.ar   98  TRP98       0.0152
    149  NE1       94.2350   19.0660   52.9620 N.ar   98  TRP98      -0.2442
    150  CE2       93.1570   18.2580   52.7030 C.ar   98  TRP98       0.0810
    151  CE3       92.7100   15.8990   52.3930 C.ar   98  TRP98       0.0012
    152  CZ2       91.8230   18.5890   52.4770 C.ar   98  TRP98       0.0191
    153  CZ3       91.3810   16.2270   52.2070 C.ar   98  TRP98       0.0001
    154  CH2       90.9500   17.5620   52.2450 C.ar   98  TRP98       0.0015
    155  N         96.0580   13.4250   57.7000 N.3   100  ILE100     -0.1245
    156  CA        94.7900   13.6150   58.4030 C.3   100  ILE100      0.1561
    157  C         94.5190   12.3650   59.2080 C.2   100  ILE100      0.2260
    158  O         94.4810   11.2750   58.6410 O.2   100  ILE100     -0.2867
    159  CB        93.6690   13.7950   57.3650 C.3   100  ILE100      0.0252
    160  CG1       93.9200   15.0780   56.5510 C.3   100  ILE100      0.0019
    161  CG2       92.2980   13.8240   58.0570 C.3   100  ILE100      0.0019
    162  CD1       92.7550   15.4810   55.6720 C.3   100  ILE100      0.0001
@<TRIPOS>BOND
     1   100    99    2
     2    72    71    1
     3    99    98    1
     4   101   102    1
     5   101    98    1
     6   102   103    1
     7   104   103    2
     8    97    98    1
     9    63    62    2
    10   103   105   am
    11    60    61    1
    12    71    68    1
    13    62    61    1
    14    62    67   am
    15    68    67    1
    16    68    69    1
    17    61    64    1
    18   109   108    2
    19   106   107    1
    20   108   107    1
    21    69    73   am
    22    69    70    2
    23    76    75    2
    24    73    74    1
    25    64    66    1
    26    64    65    1
    27   107   110    1
    28    87    85    1
    29    75    74    1
    30    75    80   am
    31    95    94    2
    32    74    77    1
    33   139   138    2
    34   110   111    1
    35   112   114   ar
    36   112   111   ar
    37    94    93    1
    38    85    84    1
    39    85    86    1
    40   117   118    1
    41    81    80    1
    42    81    84    1
    43    81    82    1
    44    77    79    1
    45    77    78    1
    46   114   116   ar
    47    91    90    2
    48   111   113   ar
    49   140   138   am
    50   120   119    2
    51    88    82   am
    52    88    89    1
    53   138   137    1
    54    90    89    1
    55    90    92   am
    56   123   122    1
    57    82    83    2
    58   121   118    1
    59   121   122    1
    60   118   119    1
    61    93    92    1
    62    93    96    1
    63   116   115   ar
    64   113   115   ar
    65   122   124    1
    66   137   134    1
    67   133   134    1
    68   132   130    1
    69   134   135    1
    70   130   129    1
    71   130   131    1
    72   127   126    1
    73   127   128    2
    74   129   126    1
    75   126   125    1
    76   135   141   am
    77   135   136    2
    78   153   154   ar
    79   153   151   ar
    80   154   152   ar
    81   141   142    1
    82   151   148   ar
    83   152   150   ar
    84   148   150   ar
    85   148   146   ar
    86   150   149   ar
    87   146   145    1
    88   146   147   ar
    89    58    57    1
    90   149   147   ar
    91   145   142    1
    92   142   143    1
    93    52    51    1
    94    59    57    1
    95   144   143    2
    96    51    50    1
    97    57    54    1
    98    44    42   ar
    99    54    55    1
   100    54    53    1
   101    55    56    2
   102    50    49    1
   103    49    46    1
   104   162   160    1
   105    42    41    1
   106    42    43   ar
   107    41    38    1
   108    11     9    1
   109    48    47    2
   110   160   159    1
   111    46    45    1
   112    46    47    1
   113    45    39   am
   114    31    30    2
   115    37    38    1
   116    37    34   am
   117    10     9    1
   118    38    39    1
   119     9     8    2
   120   159   161    1
   121   159   156    1
   122    39    40    2
   123    33    36    1
   124    33    34    1
   125    33    32    1
   126   155   156    1
   127    27    25   ar
   128    34    35    2
   129    30    32   am
   130    30    29    1
   131     8     7    1
   132   156   157    1
   133   158   157    2
   134    19    17    1
   135    25    26   ar
   136    25    24    1
   137     7     6    1
   138    29    28    1
   139    16    17    1
   140    16    13    1
   141    24    21    1
   142    17    18    1
   143     6     5    1
   144    12    13    1
   145    23    22    2
   146    13    14    1
   147    15    14    2
   148    21    22    1
   149    21    20    1
   150     5     2    1
   151     2     1    1
   152     2     3    1
   153     3     4    2
