@<TRIPOS>MOLECULE
tmp/3lj3A00.pdb
 200 188 0 0 0
SMALL
GASTEIGER

@<TRIPOS>ATOM
      1  N         48.1560   16.0690   40.7220 N.3   555  MET555     -0.1230
      2  CA        47.5920   17.0830   39.8420 C.3   555  MET555      0.1702
      3  C         46.6800   18.0590   40.5740 C.2   555  MET555      0.2592
      4  O         45.9150   17.6740   41.4600 O.2   555  MET555     -0.2718
      5  CB        46.8240   16.4160   38.7010 C.3   555  MET555      0.0401
      6  CG        47.7050   15.6820   37.7050 C.3   555  MET555      0.0596
      7  SD        46.7440   14.7530   36.4940 S.3   555  MET555     -0.1393
      8  CE        45.4290   15.9180   36.1350 C.3   555  MET555      0.0692
      9  N         46.7720   19.3290   40.1970 N.am  556  ALA556     -0.1980
     10  CA        45.8630   20.3420   40.7090 C.3   556  ALA556      0.1597
     11  C         44.6240   20.3830   39.8260 C.2   556  ALA556      0.2287
     12  O         44.7100   20.6610   38.6280 O.2   556  ALA556     -0.2864
     13  CB        46.5410   21.7020   40.7490 C.3   556  ALA556      0.0319
     14  N         43.7020   13.7890   41.2630 N.3   561  PRO561     -0.2116
     15  CA        44.2080   12.5560   40.6570 C.3   561  PRO561      0.1372
     16  C         45.6880   12.3570   40.9470 C.2   561  PRO561      0.2244
     17  O         46.4340   13.3320   41.0140 O.2   561  PRO561     -0.2868
     18  CB        44.0080   12.7970   39.1540 C.3   561  PRO561      0.0268
     19  CG        43.1080   13.9960   39.0510 C.3   561  PRO561      0.0207
     20  CD        43.4190   14.8150   40.2510 C.3   561  PRO561      0.0892
     21  N         49.3050   11.3870   39.7810 N.3   563  TRP563     -0.1241
     22  CA        50.1560   11.2280   38.6090 C.3   563  TRP563      0.1605
     23  C         51.3500   10.3670   38.9940 C.2   563  TRP563      0.2264
     24  O         52.2760   10.8380   39.6480 O.2   563  TRP563     -0.2867
     25  CB        50.6300   12.5890   38.1030 C.3   563  TRP563      0.0550
     26  CG        51.5380   12.5230   36.9080 C.ar  563  TRP563      0.0003
     27  CD1       52.5150   11.5990   36.6650 C.ar  563  TRP563      0.0946
     28  CD2       51.5690   13.4360   35.8030 C.ar  563  TRP563      0.0152
     29  NE1       53.1420   11.8730   35.4730 N.ar  563  TRP563     -0.2442
     30  CE2       52.5800   12.9950   34.9250 C.ar  563  TRP563      0.0810
     31  CE3       50.8370   14.5790   35.4680 C.ar  563  TRP563      0.0012
     32  CZ2       52.8770   13.6580   33.7370 C.ar  563  TRP563      0.0191
     33  CZ3       51.1360   15.2370   34.2880 C.ar  563  TRP563      0.0001
     34  CH2       52.1450   14.7740   33.4360 C.ar  563  TRP563      0.0015
     35  N         47.8700    7.7060   35.4490 N.3   582  ILE582     -0.1245
     36  CA        47.0380    8.5770   36.2640 C.3   582  ILE582      0.1561
     37  C         46.0220    7.7440   37.0370 C.2   582  ILE582      0.2260
     38  O         45.4140    6.8280   36.4920 O.2   582  ILE582     -0.2867
     39  CB        46.3000    9.6110   35.4020 C.3   582  ILE582      0.0252
     40  CG1       47.3010   10.5740   34.7650 C.3   582  ILE582      0.0019
     41  CG2       45.2930   10.3760   36.2360 C.3   582  ILE582      0.0019
     42  CD1       46.6770   11.6060   33.8600 C.3   582  ILE582      0.0001
     43  N         42.6670    8.3230   39.0870 N.3   584  LYS584     -0.1245
     44  CA        41.6570    9.3290   39.3980 C.3   584  LYS584      0.1561
     45  C         40.4860    8.7570   40.1850 C.2   584  LYS584      0.2260
     46  O         40.1220    7.5950   40.0160 O.2   584  LYS584     -0.2867
     47  CB        41.1380    9.9780   38.1110 C.3   584  LYS584      0.0271
     48  CG        40.3750   11.2800   38.3270 C.3   584  LYS584      0.0035
     49  CD        39.6340   11.7040   37.0640 C.3   584  LYS584      0.0206
     50  CE        39.1890   13.1610   37.1260 C.3   584  LYS584      0.1093
     51  NZ        40.3100   14.1050   36.8420 N.3   584  LYS584     -0.1314
     52  N         35.0120   10.3720   39.5830 N.3   587  ASP587     -0.1239
     53  CA        34.3770   10.3340   38.2730 C.3   587  ASP587      0.1674
     54  C         34.1790    8.8890   37.8270 C.2   587  ASP587      0.2266
     55  O         35.0420    8.0380   38.0470 O.2   587  ASP587     -0.2867
     56  CB        35.2170   11.0980   37.2470 C.3   587  ASP587      0.1410
     57  CG        34.4760   11.4520   35.9790 C.2   587  ASP587      0.3668
     58  OD1       33.2880   11.2110   35.8340 O.co2 587  ASP587     -0.2456
     59  OD2       35.0640   12.1190   35.1230 O.co2 587  ASP587     -0.2456
     60  N         34.5670    6.4580   35.2830 N.3   589  LEU589     -0.1245
     61  CA        35.3770    6.3460   34.0720 C.3   589  LEU589      0.1561
     62  C         34.7610    5.4470   33.0010 C.2   589  LEU589      0.2260
     63  O         35.2600    5.3810   31.8800 O.2   589  LEU589     -0.2867
     64  CB        36.7860    5.8560   34.4130 C.3   589  LEU589      0.0270
     65  CG        37.6810    6.8570   35.1440 C.3   589  LEU589      0.0019
     66  CD1       38.9890    6.2070   35.5550 C.3   589  LEU589      0.0001
     67  CD2       37.9380    8.0730   34.2690 C.3   589  LEU589      0.0001
     68  N         33.9310    7.1210   29.7830 N.3   592  ASP592     -0.1239
     69  CA        35.1400    7.3940   29.0200 C.3   592  ASP592      0.1674
     70  C         35.6070    6.1570   28.2570 C.2   592  ASP592      0.2266
     71  O         36.0530    6.2610   27.1120 O.2   592  ASP592     -0.2867
     72  CB        36.2490    7.9100   29.9390 C.3   592  ASP592      0.1410
     73  CG        35.9260    9.2710   30.5320 C.2   592  ASP592      0.3668
     74  OD1       36.0840    9.4460   31.7600 O.co2 592  ASP592     -0.2456
     75  OD2       35.5160   10.1690   29.7680 O.co2 592  ASP592     -0.2456
     76  N         43.8430    6.9650   24.1090 N.3   618  TYR618     -0.1241
     77  CA        44.7370    6.5660   25.1870 C.3   618  TYR618      0.1605
     78  C         44.0840    5.5110   26.0810 C.2   618  TYR618      0.2264
     79  O         42.8610    5.3680   26.1010 O.2   618  TYR618     -0.2867
     80  CB        45.1340    7.7940   26.0130 C.3   618  TYR618      0.0534
     81  CG        43.9460    8.6110   26.4770 C.ar  618  TYR618     -0.0201
     82  CD1       43.3780    8.4020   27.7230 C.ar  618  TYR618     -0.0009
     83  CD2       43.3830    9.5790   25.6580 C.ar  618  TYR618     -0.0009
     84  CE1       42.2880    9.1400   28.1440 C.ar  618  TYR618      0.0417
     85  CE2       42.2940   10.3190   26.0700 C.ar  618  TYR618      0.0417
     86  CZ        41.7520   10.0960   27.3130 C.ar  618  TYR618      0.1957
     87  OH        40.6660   10.8320   27.7310 O.3   618  TYR618     -0.2866
     88  N         42.5010    3.6850   29.1920 N.3   620  CYS620     -0.1235
     89  CA        41.6260    4.1580   30.2560 C.3   620  CYS620      0.1677
     90  C         40.7160    3.0350   30.7260 C.2   620  CYS620      0.2270
     91  O         39.9070    2.5210   29.9540 O.2   620  CYS620     -0.2867
     92  CB        40.7960    5.3400   29.7660 C.3   620  CYS620      0.0956
     93  SG        39.4690    5.8230   30.8820 S.3   620  CYS620     -0.0801
     94  N         44.1920    6.0470   34.0060 N.3   630  ILE630     -0.1231
     95  CA        44.2640    6.6120   32.6650 C.3   630  ILE630      0.1692
     96  C         45.7130    6.6960   32.1990 C.2   630  ILE630      0.2592
     97  O         46.5870    7.1060   32.9560 O.2   630  ILE630     -0.2718
     98  CB        43.6560    8.0190   32.6400 C.3   630  ILE630      0.0266
     99  CG1       42.2320    7.9850   33.2040 C.3   630  ILE630      0.0019
    100  CG2       43.6950    8.5860   31.2310 C.3   630  ILE630      0.0020
    101  CD1       41.6900    9.3390   33.5990 C.3   630  ILE630      0.0001
    102  N         45.9640    6.2990   30.9560 N.am  631  GLU631     -0.1966
    103  CA        47.3120    6.3410   30.3950 C.3   631  GLU631      0.1733
    104  C         47.8240    7.7760   30.3110 C.2   631  GLU631      0.2616
    105  O         47.0680    8.6940   30.0000 O.2   631  GLU631     -0.2715
    106  CB        47.3360    5.7090   28.9980 C.3   631  GLU631      0.0429
    107  CG        48.7130    5.7120   28.3360 C.3   631  GLU631      0.1163
    108  CD        48.6640    5.4010   26.8470 C.2   631  GLU631      0.3649
    109  OE1       49.6330    5.7490   26.1360 O.co2 631  GLU631     -0.2457
    110  OE2       47.6620    4.8190   26.3790 O.co2 631  GLU631     -0.2457
    111  N         49.1090    7.9650   30.5940 N.am  632  ILE632     -0.1963
    112  CA        49.7420    9.2670   30.4180 C.3   632  ILE632      0.1727
    113  C         50.4950    9.3330   29.0940 C.2   632  ILE632      0.2616
    114  O         51.4420    8.5770   28.8720 O.2   632  ILE632     -0.2715
    115  CB        50.7200    9.5800   31.5580 C.3   632  ILE632      0.0290
    116  CG1       49.9550    9.8280   32.8550 C.3   632  ILE632      0.0022
    117  CG2       51.5760   10.7880   31.2050 C.3   632  ILE632      0.0023
    118  CD1       50.8450   10.1500   34.0250 C.3   632  ILE632      0.0001
    119  N         50.0710   10.2370   28.2180 N.am  633  VAL633     -0.1977
    120  CA        50.7140   10.3880   26.9180 C.3   633  VAL633      0.1596
    121  C         51.9500   11.2740   27.0170 C.2   633  VAL633      0.2287
    122  O         51.8470   12.4720   27.2880 O.2   633  VAL633     -0.2864
    123  CB        49.7580   10.9910   25.8780 C.3   633  VAL633      0.0276
    124  CG1       50.4630   11.1250   24.5390 C.3   633  VAL633      0.0022
    125  CG2       48.5110   10.1340   25.7440 C.3   633  VAL633      0.0022
    126  N         53.1350   15.6390   26.0720 N.3   636  ALA636     -0.1245
    127  CA        51.8120   16.1830   25.7950 C.3   636  ALA636      0.1562
    128  C         51.4680   17.3050   26.7660 C.2   636  ALA636      0.2260
    129  O         51.7630   17.2240   27.9590 O.2   636  ALA636     -0.2867
    130  CB        50.7570   15.0820   25.8560 C.3   636  ALA636      0.0290
    131  N         48.2270   20.3470   27.6650 N.3   638  THR638     -0.1218
    132  CA        46.8820   20.8200   27.3970 C.3   638  THR638      0.1862
    133  C         46.9490   22.0600   26.5130 C.2   638  THR638      0.2287
    134  O         47.9120   22.8240   26.5760 O.2   638  THR638     -0.2866
    135  CB        46.1360   21.1290   28.7050 C.3   638  THR638      0.1770
    136  OG1       45.5780   19.9170   29.2310 O.3   638  THR638     -0.2211
    137  CG2       45.0200   22.1220   28.4640 C.3   638  THR638      0.0375
    138  N         47.1140   25.1280   28.8740 N.3   641  LYS641     -0.1245
    139  CA        48.3940   25.3970   29.5230 C.3   641  LYS641      0.1561
    140  C         49.3620   26.0780   28.5570 C.2   641  LYS641      0.2260
    141  O         50.3120   26.7420   28.9760 O.2   641  LYS641     -0.2867
    142  CB        49.0090   24.1100   30.0800 C.3   641  LYS641      0.0271
    143  CG        48.0630   23.3410   30.9640 C.3   641  LYS641      0.0035
    144  CD        48.0340   23.8970   32.3520 C.3   641  LYS641      0.0206
    145  CE        47.1680   23.1020   33.3190 C.3   641  LYS641      0.1093
    146  NZ        45.7790   22.9390   32.9100 N.3   641  LYS641     -0.1314
    147  N         41.1000   23.2330   28.3200 N.3   700  ASP700     -0.1239
    148  CA        41.8540   22.3240   29.1840 C.3   700  ASP700      0.1674
    149  C         41.5160   20.8420   28.9850 C.2   700  ASP700      0.2266
    150  O         42.2060   19.9670   29.5110 O.2   700  ASP700     -0.2867
    151  CB        41.7270   22.7220   30.6640 C.3   700  ASP700      0.1410
    152  CG        40.2970   22.6880   31.1580 C.2   700  ASP700      0.3668
    153  OD1       39.3840   22.6560   30.3110 O.co2 700  ASP700     -0.2456
    154  OD2       40.0820   22.6950   32.3910 O.co2 700  ASP700     -0.2456
    155  N         44.2220   18.2460   24.3290 N.3   703  MET703     -0.1245
    156  CA        45.6690   18.1760   24.4700 C.3   703  MET703      0.1570
    157  C         46.3620   18.0630   23.1190 C.2   703  MET703      0.2261
    158  O         45.7180   17.8640   22.0890 O.2   703  MET703     -0.2867
    159  CB        46.0700   16.9910   25.3610 C.3   703  MET703      0.0387
    160  CG        45.5580   17.0720   26.7970 C.3   703  MET703      0.0595
    161  SD        46.3200   15.8370   27.8790 S.3   703  MET703     -0.1393
    162  CE        48.0080   16.4220   27.9510 C.3   703  MET703      0.0692
    163  N         44.3530   15.5630   20.5730 N.3   711  PHE711     -0.1241
    164  CA        43.4310   14.5780   21.1350 C.3   711  PHE711      0.1605
    165  C         42.6630   15.1090   22.3430 C.2   711  PHE711      0.2264
    166  O         43.2230   15.7990   23.1920 O.2   711  PHE711     -0.2867
    167  CB        44.1550   13.2750   21.4880 C.3   711  PHE711      0.0534
    168  CG        45.2140   13.4260   22.5410 C.ar  711  PHE711     -0.0203
    169  CD1       44.9960   12.9730   23.8290 C.ar  711  PHE711     -0.0042
    170  CD2       46.4360   14.0010   22.2380 C.ar  711  PHE711     -0.0042
    171  CE1       45.9740   13.0990   24.8020 C.ar  711  PHE711     -0.0003
    172  CE2       47.4170   14.1310   23.2060 C.ar  711  PHE711     -0.0003
    173  CZ        47.1850   13.6790   24.4910 C.ar  711  PHE711     -0.0000
    174  N         40.3330   14.7540   25.8800 N.3   713  ILE713     -0.1231
    175  CA        40.3900   13.9550   27.0960 C.3   713  ILE713      0.1692
    176  C         39.1650   14.2080   27.9660 C.2   713  ILE713      0.2592
    177  O         38.3690   15.0960   27.6820 O.2   713  ILE713     -0.2718
    178  CB        41.6330   14.2930   27.9360 C.3   713  ILE713      0.0266
    179  CG1       41.5300   15.7200   28.4800 C.3   713  ILE713      0.0019
    180  CG2       42.8990   14.1180   27.1170 C.3   713  ILE713      0.0020
    181  CD1       42.5690   16.0540   29.5280 C.3   713  ILE713      0.0001
    182  N         39.0300   13.4220   29.0300 N.am  714  ASP714     -0.1960
    183  CA        37.9810   13.6240   30.0290 C.3   714  ASP714      0.1840
    184  C         36.5930   13.8250   29.4280 C.2   714  ASP714      0.2622
    185  O         36.0620   14.9330   29.4260 O.2   714  ASP714     -0.2715
    186  CB        38.3360   14.8050   30.9390 C.3   714  ASP714      0.1450
    187  CG        37.3880   14.9440   32.1180 C.2   714  ASP714      0.3671
    188  OD1       36.4180   14.1620   32.2080 O.co2 714  ASP714     -0.2456
    189  OD2       37.6180   15.8390   32.9600 O.co2 714  ASP714     -0.2456
    190  N         36.0060   12.7470   28.9240 N.am  715  PHE715     -0.1974
    191  CA        34.6470   12.8010   28.4030 C.3   715  PHE715      0.1639
    192  C         33.6750   12.6530   29.5610 C.2   715  PHE715      0.2290
    193  O         32.6880   11.9270   29.4710 O.2   715  PHE715     -0.2864
    194  CB        34.4260   11.7000   27.3690 C.3   715  PHE715      0.0560
    195  CG        35.5170   11.6170   26.3410 C.ar  715  PHE715     -0.0200
    196  CD1       36.6130   10.7950   26.5400 C.ar  715  PHE715     -0.0042
    197  CD2       35.4550   12.3740   25.1820 C.ar  715  PHE715     -0.0042
    198  CE1       37.6220   10.7200   25.5960 C.ar  715  PHE715     -0.0003
    199  CE2       36.4610   12.3030   24.2350 C.ar  715  PHE715     -0.0003
    200  CZ        37.5460   11.4750   24.4430 C.ar  715  PHE715     -0.0000
@<TRIPOS>BOND
     1   163   164    1
     2   164   167    1
     3   164   165    1
     4   167   168    1
     5   158   157    2
     6   170   168   ar
     7   170   172   ar
     8   165   166    2
     9   168   169   ar
    10   157   156    1
    11   172   173   ar
    12   169   171   ar
    13    76    77    1
    14   199   200   ar
    15   199   197   ar
    16   155   156    1
    17   200   198   ar
    18   156   159    1
    19   173   171   ar
    20   124   123    1
    21   197   195   ar
    22    77    80    1
    23    77    78    1
    24   159   160    1
    25   198   196   ar
    26    83    85   ar
    27    83    81   ar
    28   125   123    1
    29   127   130    1
    30   127   126    1
    31   127   128    1
    32   123   120    1
    33   174   175    1
    34    80    81    1
    35    85    86   ar
    36    78    79    2
    37   109   108   ar
    38   195   196   ar
    39   195   194    1
    40   110   108   ar
    41    81    82   ar
    42   133   134    2
    43   133   132    1
    44   128   129    2
    45   160   161    1
    46   108   107    1
    47   120   121    1
    48   120   119    1
    49   121   122    2
    50   175   178    1
    51   175   176    1
    52    71    70    2
    53   180   178    1
    54    86    87    1
    55    86    84   ar
    56   194   191    1
    57   132   131    1
    58   132   135    1
    59   177   176    2
    60    82    84   ar
    61   161   162    1
    62   178   179    1
    63   176   182   am
    64   119   113   am
    65    70    69    1
    66   147   148    1
    67   107   106    1
    68   191   190    1
    69   191   192    1
    70   137   135    1
    71   179   181    1
    72   140   141    2
    73   140   139    1
    74   135   136    1
    75   114   113    2
    76   138   139    1
    77   190   184   am
    78   149   148    1
    79   149   150    2
    80   106   103    1
    81    69    68    1
    82    69    72    1
    83   182   183    1
    84   113   112    1
    85   148   151    1
    86    88    89    1
    87   185   184    2
    88   184   183    1
    89   193   192    2
    90   139   142    1
    91    92    89    1
    92    92    93    1
    93    75    73   ar
    94    72    73    1
    95    91    90    2
    96   105   104    2
    97   183   186    1
    98   142   143    1
    99    89    90    1
   100   153   152   ar
   101   104   103    1
   102   104   111   am
   103   103   102    1
   104   112   111    1
   105   112   115    1
   106    73    74   ar
   107   151   152    1
   108   186   187    1
   109   102    96   am
   110   143   144    1
   111   152   154   ar
   112   117   115    1
   113   100    98    1
   114   115   116    1
   115    63    62    2
   116   187   188   ar
   117   187   189   ar
   118    96    95    1
   119    96    97    2
   120   144   145    1
   121    98    95    1
   122    98    99    1
   123    95    94    1
   124   116   118    1
   125   146   145    1
   126    62    61    1
   127    99   101    1
   128    34    32   ar
   129    34    33   ar
   130    32    30   ar
   131    42    40    1
   132    61    64    1
   133    61    60    1
   134    67    65    1
   135    33    31   ar
   136    64    65    1
   137    40    39    1
   138    30    29   ar
   139    30    28   ar
   140    59    57   ar
   141    65    66    1
   142    39    41    1
   143    39    36    1
   144    35    36    1
   145    31    28   ar
   146    29    27   ar
   147    28    26   ar
   148    58    57   ar
   149    57    56    1
   150     8     7    1
   151    36    37    1
   152    38    37    2
   153     7     6    1
   154    27    26   ar
   155    51    50    1
   156    26    25    1
   157    49    50    1
   158    49    48    1
   159    56    53    1
   160     6     5    1
   161    54    55    2
   162    54    53    1
   163    25    22    1
   164    47    48    1
   165    47    44    1
   166    53    52    1
   167    22    23    1
   168    22    21    1
   169    12    11    2
   170     5     2    1
   171    23    24    2
   172    19    18    1
   173    19    20    1
   174    43    44    1
   175    18    15    1
   176    44    45    1
   177    11    10    1
   178     2     3    1
   179     2     1    1
   180    46    45    2
   181     9     3   am
   182     9    10    1
   183    20    14    1
   184     3     4    2
   185    15    16    1
   186    15    14    1
   187    10    13    1
   188    16    17    2
