@<TRIPOS>MOLECULE
tmp/3ljgA00.pdb
 169 166 0 0 0
SMALL
GASTEIGER

@<TRIPOS>ATOM
      1  N         14.8560   29.3860   11.1340 N.3    74  GLY74      -0.1210
      2  CA        13.7180   30.1350   10.6230 C.3    74  GLY74       0.1956
      3  C         13.6930   30.1920    9.1080 C.2    74  GLY74       0.2612
      4  O         14.4710   29.5260    8.4270 O.2    74  GLY74      -0.2717
      5  N         12.7900   30.9850    8.5560 N.am   75  GLY75      -0.1942
      6  CA        12.7180   31.1010    7.1120 C.3    75  GLY75       0.2014
      7  C         12.4170   29.7570    6.4540 C.2    75  GLY75       0.2639
      8  O         11.4690   29.0700    6.8370 O.2    75  GLY75      -0.2714
      9  N         13.2230   29.3760    5.4670 N.am   76  ILE76      -0.1963
     10  CA        13.0800   28.0810    4.7920 C.3    76  ILE76       0.1727
     11  C         13.3020   26.9330    5.7520 C.2    76  ILE76       0.2616
     12  O         14.3280   26.8920    6.4140 O.2    76  ILE76      -0.2715
     13  CB        14.1540   27.8920    3.7150 C.3    76  ILE76       0.0290
     14  CG1       13.9410   28.8570    2.5570 C.3    76  ILE76       0.0022
     15  CG2       14.1470   26.4340    3.2090 C.3    76  ILE76       0.0023
     16  CD1       15.2210   29.1660    1.8360 C.3    76  ILE76       0.0001
     17  N         12.3940   25.9690    5.7920 N.am   77  LEU77      -0.1963
     18  CA        12.5580   24.8340    6.7000 C.3    77  LEU77       0.1728
     19  C         13.1470   23.6140    5.9950 C.2    77  LEU77       0.2616
     20  O         13.8200   22.7860    6.6100 O.2    77  LEU77      -0.2715
     21  CB        11.2120   24.4790    7.3320 C.3    77  LEU77       0.0311
     22  CG        10.5460   25.6680    8.0350 C.3    77  LEU77       0.0022
     23  CD1        9.1100   25.3100    8.3970 C.3    77  LEU77       0.0001
     24  CD2       11.3320   26.0460    9.2750 C.3    77  LEU77       0.0001
     25  N         12.8660   23.5050    4.6990 N.am   78  ALA78      -0.1977
     26  CA        13.1990   22.3170    3.9170 C.3    78  ALA78       0.1597
     27  C         12.9040   22.6200    2.4600 C.2    78  ALA78       0.2287
     28  O         12.2020   23.5980    2.1680 O.2    78  ALA78      -0.2864
     29  CB        12.3600   21.1280    4.3790 C.3    78  ALA78       0.0319
     30  N          9.5990   23.7250   18.3590 N.3   105  GLY105     -0.1210
     31  CA        10.4950   23.7670   17.2140 C.3   105  GLY105      0.1956
     32  C          9.7230   23.5830   15.9260 C.2   105  GLY105      0.2612
     33  O          8.6760   24.1900   15.7210 O.2   105  GLY105     -0.2717
     34  N         10.2360   22.7240   15.0600 N.am  106  THR106     -0.1952
     35  CA         9.5630   22.4510   13.7950 C.3   106  THR106      0.1897
     36  C          9.2410   20.9660   13.7350 C.2   106  THR106      0.2313
     37  O         10.1400   20.1260   13.8170 O.2   106  THR106     -0.2863
     38  CB        10.4550   22.8530   12.5930 C.3   106  THR106      0.1794
     39  OG1       10.8860   24.2100   12.7460 O.3   106  THR106     -0.2208
     40  CG2        9.7000   22.7170   11.2450 C.3   106  THR106      0.0378
     41  N          5.1050   16.7740    9.9370 N.3   110  LEU110     -0.1231
     42  CA         4.3220   17.7020    9.1140 C.3   110  LEU110      0.1693
     43  C          5.1500   18.2660    7.9680 C.2   110  LEU110      0.2592
     44  O          4.6800   18.3720    6.8280 O.2   110  LEU110     -0.2718
     45  CB         3.7620   18.8570    9.9480 C.3   110  LEU110      0.0284
     46  CG         2.7460   18.4450   11.0210 C.3   110  LEU110      0.0019
     47  CD1        2.5110   19.6120   11.9460 C.3   110  LEU110      0.0001
     48  CD2        1.4270   17.9500   10.4200 C.3   110  LEU110      0.0001
     49  N          6.3850   18.6390    8.2670 N.am  111  THR111     -0.1953
     50  CA         7.2750   19.1640    7.2400 C.3   111  THR111      0.1897
     51  C          7.5500   18.1030    6.1760 C.2   111  THR111      0.2313
     52  O          7.5610   18.4000    4.9690 O.2   111  THR111     -0.2863
     53  CB         8.5880   19.6710    7.8640 C.3   111  THR111      0.1794
     54  OG1        8.2810   20.6310    8.8870 O.3   111  THR111     -0.2208
     55  CG2        9.5010   20.3090    6.7900 C.3   111  THR111      0.0378
     56  N          4.6640   17.7230    3.6240 N.3   114  HIS114     -0.1226
     57  CA         4.7710   18.8000    2.6270 C.3   114  HIS114      0.1752
     58  C          5.9040   18.5160    1.6220 C.2   114  HIS114      0.2595
     59  O          5.7150   18.5880    0.3940 O.2   114  HIS114     -0.2718
     60  CB         5.0120   20.1180    3.3700 C.3   114  HIS114      0.0759
     61  CG         5.2260   21.3070    2.4790 C.ar  114  HIS114      0.0818
     62  ND1        4.2420   22.2460    2.2370 N.ar  114  HIS114     -0.2268
     63  CD2        6.3300   21.7390    1.8180 C.ar  114  HIS114      0.1154
     64  CE1        4.7270   23.1860    1.4390 C.ar  114  HIS114      0.1986
     65  NE2        5.9920   22.9090    1.1780 N.ar  114  HIS114     -0.2212
     66  N          7.0800   18.1540    2.1230 N.am  115  GLU115     -0.1979
     67  CA         8.2180   17.9520    1.2290 C.3   115  GLU115      0.1602
     68  C          8.0050   16.7500    0.3230 C.2   115  GLU115      0.2287
     69  O          8.3150   16.8070   -0.8690 O.2   115  GLU115     -0.2864
     70  CB         9.5270   17.8020    2.0020 C.3   115  GLU115      0.0415
     71  CG         9.9490   19.0640    2.7300 C.3   115  GLU115      0.1163
     72  CD         9.9640   20.2840    1.8270 C.2   115  GLU115      0.3649
     73  OE1        9.5350   21.3600    2.2830 O.co2 115  GLU115     -0.2457
     74  OE2       10.3800   20.1680    0.6550 O.co2 115  GLU115     -0.2457
     75  N          2.9820   24.2920   -4.5730 N.3   124  HIS124     -0.1241
     76  CA         2.2370   24.8610   -3.4630 C.3   124  HIS124      0.1621
     77  C          0.7810   25.1070   -3.7900 C.2   124  HIS124      0.2264
     78  O          0.4060   25.2510   -4.9510 O.2   124  HIS124     -0.2867
     79  CB         2.8870   26.1580   -3.0030 C.3   124  HIS124      0.0745
     80  CG         4.1730   25.9430   -2.2840 C.ar  124  HIS124      0.0817
     81  ND1        5.1870   26.8750   -2.2650 N.ar  124  HIS124     -0.2268
     82  CD2        4.6190   24.8840   -1.5670 C.ar  124  HIS124      0.1154
     83  CE1        6.1980   26.4050   -1.5530 C.ar  124  HIS124      0.1986
     84  NE2        5.8770   25.1970   -1.1190 N.ar  124  HIS124     -0.2212
     85  N         -5.9560   25.3150    4.1710 N.3   129  LYS129     -0.1231
     86  CA        -6.0490   24.0550    4.8990 C.3   129  LYS129      0.1693
     87  C         -5.0990   23.0020    4.3360 C.2   129  LYS129      0.2592
     88  O         -4.9330   21.9330    4.9200 O.2   129  LYS129     -0.2718
     89  CB        -7.4840   23.5210    4.8690 C.3   129  LYS129      0.0285
     90  CG        -8.5360   24.5020    5.3810 C.3   129  LYS129      0.0035
     91  CD        -8.3270   24.8540    6.8540 C.3   129  LYS129      0.0206
     92  CE        -7.4110   26.0620    7.0250 C.3   129  LYS129      0.1093
     93  NZ        -7.3600   26.5480    8.4330 N.3   129  LYS129     -0.1314
     94  N         -4.4890   23.3100    3.1980 N.am  130  ALA130     -0.1966
     95  CA        -3.6480   22.3260    2.5240 C.3   130  ALA130      0.1728
     96  C         -2.2740   22.1600    3.1560 C.2   130  ALA130      0.2616
     97  O         -1.6460   23.1390    3.5750 O.2   130  ALA130     -0.2715
     98  CB        -3.4980   22.6810    1.0460 C.3   130  ALA130      0.0334
     99  N         -1.8050   20.9160    3.2090 N.am  131  VAL131     -0.1977
    100  CA        -0.4420   20.6890    3.6760 C.3   131  VAL131      0.1596
    101  C          0.5700   21.3170    2.7100 C.2   131  VAL131      0.2287
    102  O          1.6960   21.6520    3.1170 O.2   131  VAL131     -0.2864
    103  CB        -0.1440   19.1790    3.8940 C.3   131  VAL131      0.0276
    104  CG1        0.0640   18.4660    2.5720 C.3   131  VAL131      0.0022
    105  CG2        1.0640   18.9850    4.8220 C.3   131  VAL131      0.0022
    106  N          0.2680   24.2630    1.4650 N.3   133  PHE133     -0.1228
    107  CA         0.2910   25.7180    1.6480 C.3   133  PHE133      0.1721
    108  C          1.7480   26.1310    1.9140 C.2   133  PHE133      0.2437
    109  O          2.5250   25.3320    2.4430 O.2   133  PHE133     -0.2733
    110  CB        -0.6080   26.0930    2.8310 C.3   133  PHE133      0.0547
    111  CG        -0.9480   27.5570    2.9040 C.ar  133  PHE133     -0.0202
    112  CD1       -1.8220   28.1260    1.9800 C.ar  133  PHE133     -0.0042
    113  CD2       -0.3760   28.3610    3.8790 C.ar  133  PHE133     -0.0042
    114  CE1       -2.1390   29.4890    2.0390 C.ar  133  PHE133     -0.0003
    115  CE2       -0.6810   29.7190    3.9470 C.ar  133  PHE133     -0.0003
    116  CZ        -1.5590   30.2810    3.0260 C.ar  133  PHE133     -0.0000
    117  N          2.1400   27.3610    1.5240 N.am  134  PRO134     -0.2718
    118  CA         3.5720   27.6920    1.5390 C.3   134  PRO134      0.1535
    119  C          4.1800   27.8260    2.9260 C.2   134  PRO134      0.2599
    120  O          5.3950   27.6800    3.0520 O.2   134  PRO134     -0.2715
    121  CB         3.6260   29.0440    0.8200 C.3   134  PRO134      0.0310
    122  CG         2.3960   29.0570   -0.0550 C.3   134  PRO134      0.0237
    123  CD         1.3460   28.3380    0.7540 C.3   134  PRO134      0.0939
    124  N          3.3800   28.0970    3.9500 N.am  135  THR135     -0.1937
    125  CA         3.9250   28.3250    5.2910 C.3   135  THR135      0.2028
    126  C          3.5020   27.2850    6.3090 C.2   135  THR135      0.2642
    127  O          2.3750   26.7790    6.2850 O.2   135  THR135     -0.2714
    128  CB         3.6190   29.7460    5.8340 C.3   135  THR135      0.1808
    129  OG1        2.2020   29.9740    5.8540 O.3   135  THR135     -0.2208
    130  CG2        4.3040   30.7980    4.9800 C.3   135  THR135      0.0379
    131  N          4.4380   26.9760    7.2010 N.am  136  TYR136     -0.1959
    132  CA         4.2800   25.9960    8.2470 C.3   136  TYR136      0.1771
    133  C          3.5680   26.5990    9.4490 C.2   136  TYR136      0.2619
    134  O          3.8480   27.7370    9.8450 O.2   136  TYR136     -0.2715
    135  CB         5.6730   25.4890    8.6620 C.3   136  TYR136      0.0574
    136  CG         5.6910   24.6830    9.9330 C.ar  136  TYR136     -0.0198
    137  CD1        5.6000   23.3020    9.8980 C.ar  136  TYR136     -0.0009
    138  CD2        5.7860   25.3030   11.1710 C.ar  136  TYR136     -0.0009
    139  CE1        5.6070   22.5600   11.0610 C.ar  136  TYR136      0.0417
    140  CE2        5.7890   24.5670   12.3420 C.ar  136  TYR136      0.0417
    141  CZ         5.6970   23.1990   12.2800 C.ar  136  TYR136      0.1957
    142  OH         5.6970   22.4520   13.4310 O.3   136  TYR136     -0.2866
    143  N          2.6400   25.8360   10.0110 N.am  137  LYS137     -0.1977
    144  CA         2.0550   26.1550   11.3050 C.3   137  LYS137      0.1596
    145  C          1.6400   24.8370   11.9280 C.2   137  LYS137      0.2287
    146  O          0.9050   24.0650   11.3090 O.2   137  LYS137     -0.2864
    147  CB         0.8330   27.0590   11.1390 C.3   137  LYS137      0.0298
    148  CG         0.0210   27.2640   12.4160 C.3   137  LYS137      0.0038
    149  CD        -0.9620   28.4210   12.2700 C.3   137  LYS137      0.0206
    150  CE        -2.0900   28.3340   13.2910 C.3   137  LYS137      0.1093
    151  NZ        -1.5880   28.1850   14.6840 N.3   137  LYS137     -0.1314
    152  N         -0.0770   21.8430   13.4720 N.3   139  VAL139     -0.1245
    153  CA        -1.4310   21.3690   13.7170 C.3   139  VAL139      0.1561
    154  C         -1.3490   20.0260   14.4220 C.2   139  VAL139      0.2260
    155  O         -0.3930   19.2710   14.2330 O.2   139  VAL139     -0.2867
    156  CB        -2.2500   21.2330   12.4160 C.3   139  VAL139      0.0252
    157  CG1       -2.3700   22.5760   11.7180 C.3   139  VAL139      0.0019
    158  CG2       -1.6280   20.2010   11.5100 C.3   139  VAL139      0.0019
    159  N         -4.2290   15.3970   12.2380 N.3   144  PHE144     -0.1241
    160  CA        -3.7970   15.8940   10.9410 C.3   144  PHE144      0.1605
    161  C         -4.4220   15.1190    9.7850 C.2   144  PHE144      0.2264
    162  O         -4.5050   13.8980    9.8140 O.2   144  PHE144     -0.2867
    163  CB        -2.2810   15.8270   10.7960 C.3   144  PHE144      0.0534
    164  CG        -1.8220   16.0850    9.3940 C.ar  144  PHE144     -0.0203
    165  CD1       -1.6860   17.3780    8.9390 C.ar  144  PHE144     -0.0042
    166  CD2       -1.5810   15.0370    8.5180 C.ar  144  PHE144     -0.0042
    167  CE1       -1.2890   17.6290    7.6430 C.ar  144  PHE144     -0.0003
    168  CE2       -1.1870   15.2800    7.2120 C.ar  144  PHE144     -0.0003
    169  CZ        -1.0440   16.5840    6.7760 C.ar  144  PHE144     -0.0000
@<TRIPOS>BOND
     1    78    77    2
     2    75    76    1
     3    77    76    1
     4    76    79    1
     5    79    80    1
     6    80    81   ar
     7    80    82   ar
     8    81    83   ar
     9    82    84   ar
    10    83    84   ar
    11    69    68    2
    12   122   123    1
    13   122   121    1
    14    68    67    1
    15    59    58    2
    16    74    72   ar
    17   123   117    1
    18   121   118    1
    19    98    95    1
    20    65    64   ar
    21    65    63   ar
    22    67    70    1
    23    67    66    1
    24    64    62   ar
    25   106   107    1
    26   117   118    1
    27   117   108   am
    28   118   119    1
    29    58    66   am
    30    58    57    1
    31   107   108    1
    32   107   110    1
    33    63    61   ar
    34    72    73   ar
    35    72    71    1
    36    16    14    1
    37   108   109    2
    38   112   114   ar
    39   112   111   ar
    40    70    71    1
    41   114   116   ar
    42    28    27    2
    43    62    61   ar
    44    27    26    1
    45    61    60    1
    46    95    96    1
    47    95    94    1
    48    14    13    1
    49   104   103    1
    50    57    60    1
    51    57    56    1
    52   101   102    2
    53   101   100    1
    54   110   111    1
    55   111   113   ar
    56   119   120    2
    57   119   124   am
    58   116   115   ar
    59    96    99   am
    60    96    97    2
    61    94    87   am
    62    15    13    1
    63    99   100    1
    64   100   103    1
    65    13    10    1
    66   113   115   ar
    67   103   105    1
    68    26    29    1
    69    26    25    1
    70   124   125    1
    71    85    86    1
    72    87    86    1
    73    87    88    2
    74    25    19   am
    75    10     9    1
    76    10    11    1
    77    89    86    1
    78    89    90    1
    79    52    51    2
    80   130   128    1
    81   125   128    1
    82   125   126    1
    83    90    91    1
    84     9     7   am
    85    11    17   am
    86    11    12    2
    87    17    18    1
    88   128   129    1
    89    19    20    2
    90    19    18    1
    91    51    50    1
    92   127   126    2
    93   126   131   am
    94     7     8    2
    95     7     6    1
    96    18    21    1
    97   169   168   ar
    98   169   167   ar
    99    55    53    1
   100    44    43    2
   101    91    92    1
   102    92    93    1
   103     6     5    1
   104   131   132    1
   105   168   166   ar
   106    50    53    1
   107    50    49    1
   108    21    22    1
   109   167   165   ar
   110    53    54    1
   111    43    49   am
   112    43    42    1
   113    22    23    1
   114    22    24    1
   115   132   135    1
   116   132   133    1
   117     4     3    2
   118   166   164   ar
   119     5     3   am
   120   135   136    1
   121   165   164   ar
   122     3     2    1
   123    42    41    1
   124    42    45    1
   125   164   163    1
   126   133   134    2
   127   133   143   am
   128   161   162    2
   129   161   160    1
   130   137   136   ar
   131   137   139   ar
   132   136   138   ar
   133    45    46    1
   134   143   144    1
   135    48    46    1
   136     2     1    1
   137   163   160    1
   138   160   159    1
   139    46    47    1
   140   139   141   ar
   141   147   144    1
   142   147   148    1
   143   138   140   ar
   144    40    38    1
   145   144   145    1
   146   146   145    2
   147   158   156    1
   148   157   156    1
   149   149   148    1
   150   149   150    1
   151   141   140   ar
   152   141   142    1
   153   156   153    1
   154    38    39    1
   155    38    35    1
   156   150   151    1
   157   152   153    1
   158   153   154    1
   159    36    35    1
   160    36    37    2
   161    35    34    1
   162   155   154    2
   163    34    32   am
   164    33    32    2
   165    32    31    1
   166    31    30    1
