@<TRIPOS>MOLECULE
tmp/3ljjA00.pdb
 145 144 0 0 0
SMALL
GASTEIGER

@<TRIPOS>ATOM
      1  N          8.3290   -7.8340   14.4690 N.3    40  HIS40      -0.1241
      2  CA         9.4610   -7.8470   15.4050 C.3    40  HIS40       0.1621
      3  C          9.5360   -6.5610   16.2060 C.2    40  HIS40       0.2264
      4  O         10.3160   -6.4730   17.1660 O.2    40  HIS40      -0.2867
      5  CB        10.7720   -8.1420   14.6840 C.3    40  HIS40       0.0745
      6  CG        11.5330   -7.0480   14.0160 C.ar   40  HIS40       0.0817
      7  ND1       11.4400   -6.8810   12.6300 N.ar   40  HIS40      -0.2268
      8  CD2       12.4110   -6.0980   14.4260 C.ar   40  HIS40       0.1154
      9  CE1       12.2140   -5.8590   12.2770 C.ar   40  HIS40       0.1986
     10  NE2       12.8150   -5.3650   13.3410 N.ar   40  HIS40      -0.2212
     11  N          9.7150  -15.6910   14.5560 N.3    78  SER78      -0.1217
     12  CA        10.7170  -14.7410   15.0220 C.3    78  SER78       0.1889
     13  C         12.1400  -15.1750   14.7020 C.2    78  SER78       0.2288
     14  O         13.0730  -14.3990   14.8820 O.2    78  SER78      -0.2866
     15  CB        10.5470  -14.4340   16.5160 C.3    78  SER78       0.2089
     16  OG        10.6570  -15.6250   17.2780 O.3    78  SER78      -0.2183
     17  N         11.7220  -14.6350   10.4970 N.3    81  LEU81      -0.1245
     18  CA        11.0880  -13.3420   10.2400 C.3    81  LEU81       0.1561
     19  C         10.1190  -13.4600    9.0830 C.2    81  LEU81       0.2260
     20  O          9.6390  -12.4950    8.4650 O.2    81  LEU81      -0.2867
     21  CB        12.0680  -12.2020    9.9900 C.3    81  LEU81       0.0270
     22  CG        12.9000  -11.6870   11.1620 C.3    81  LEU81       0.0019
     23  CD1       13.1770  -10.1870   11.0390 C.3    81  LEU81       0.0001
     24  CD2       12.2360  -11.9530   12.4970 C.3    81  LEU81       0.0001
     25  N         21.3880    2.1820    2.6850 N.3   171  ASP171     -0.1225
     26  CA        20.5410    1.0870    3.1930 C.3   171  ASP171      0.1805
     27  C         19.6570    1.6150    4.3400 C.2   171  ASP171      0.2598
     28  O         19.9080    2.7100    4.8360 O.2   171  ASP171     -0.2718
     29  CB        21.4090   -0.0580    3.7120 C.3   171  ASP171      0.1424
     30  CG        20.8180   -1.4260    3.8650 C.2   171  ASP171      0.3668
     31  OD1       21.5330   -2.3690    4.3040 O.co2 171  ASP171     -0.2456
     32  OD2       19.5990   -1.6360    3.5570 O.co2 171  ASP171     -0.2456
     33  N         18.6990    0.7710    4.7430 N.am  172  SER172     -0.1938
     34  CA        18.0430    1.0270    6.0310 C.3   172  SER172      0.2055
     35  C         18.8390    0.3000    7.0920 C.2   172  SER172      0.2643
     36  O         19.8150   -0.4230    6.8330 O.2   172  SER172     -0.2714
     37  CB        16.5680    0.6310    5.9830 C.3   172  SER172      0.2130
     38  OG        16.3820   -0.7510    5.7460 O.3   172  SER172     -0.2179
     39  N         18.4530    0.4980    8.3500 N.am  173  CYS173     -0.1953
     40  CA        19.2780   -0.0290    9.4520 C.3   173  CYS173      0.1843
     41  C         18.3820   -0.1550   10.6820 C.2   173  CYS173      0.2625
     42  O         17.1700    0.1190   10.6920 O.2   173  CYS173     -0.2714
     43  CB        20.4780    0.8800    9.6940 C.3   173  CYS173      0.0997
     44  SG        21.8840    0.1240   10.6030 S.3   173  CYS173     -0.0797
     45  N         19.0280   -0.5960   11.7830 N.am  174  GLN174     -0.1977
     46  CA        18.2660   -0.6750   13.0290 C.3   174  GLN174      0.1601
     47  C         17.6490    0.6860   13.3640 C.2   174  GLN174      0.2287
     48  O         18.2120    1.7280   13.1220 O.2   174  GLN174     -0.2864
     49  CB        19.1700   -1.1440   14.1750 C.3   174  GLN174      0.0394
     50  CG        19.3000   -2.6740   14.2040 C.3   174  GLN174      0.0908
     51  CD        20.2580   -3.2040   13.1490 C.2   174  GLN174      0.2608
     52  OE1       21.2130   -2.5200   12.7440 O.2   174  GLN174     -0.2717
     53  NE2       20.0420   -4.4300   12.6920 N.am  174  GLN174     -0.0878
     54  N         13.2170   -0.2780   11.3650 N.3   177  SER177     -0.1217
     55  CA        12.3010   -1.4080   11.4040 C.3   177  SER177      0.1889
     56  C         10.8430   -0.9940   11.4890 C.2   177  SER177      0.2288
     57  O         10.5240   -0.1220   12.2850 O.2   177  SER177     -0.2866
     58  CB        12.6180   -2.2290   12.6490 C.3   177  SER177      0.2089
     59  OG        13.8870   -2.8670   12.5450 O.3   177  SER177     -0.2183
     60  N         10.2250   -2.3090    6.5370 N.3   191  VAL191     -0.1231
     61  CA        11.6360   -2.5710    6.9130 C.3   191  VAL191      0.1692
     62  C         11.7450   -3.7680    7.8530 C.2   191  VAL191      0.2593
     63  O         11.1390   -3.7340    8.9460 O.2   191  VAL191     -0.2718
     64  CB        12.2630   -1.3440    7.5630 C.3   191  VAL191      0.0266
     65  CG1       13.7280   -1.6040    7.9720 C.3   191  VAL191      0.0020
     66  CG2       12.2010   -0.0900    6.6600 C.3   191  VAL191      0.0020
     67  N         12.4600   -4.8280    7.4670 N.am  192  SER192     -0.1938
     68  CA        12.4480   -6.0920    8.2460 C.3   192  SER192      0.2055
     69  C         13.8220   -6.5430    8.7170 C.2   192  SER192      0.2643
     70  O         14.0740   -6.5320    9.9390 O.2   192  SER192     -0.2714
     71  CB        11.7270   -7.1650    7.4270 C.3   192  SER192      0.2130
     72  OG        11.5650   -8.4020    8.1030 O.3   192  SER192     -0.2179
     73  N         14.7420   -6.9220    7.8270 N.am  193  TRP193     -0.1959
     74  CA        16.0350   -7.4460    8.2940 C.3   193  TRP193      0.1771
     75  C         17.1250   -7.2970    7.2410 C.2   193  TRP193      0.2620
     76  O         16.8440   -6.7660    6.1800 O.2   193  TRP193     -0.2715
     77  CB        15.8990   -8.8930    8.6820 C.3   193  TRP193      0.0590
     78  CG        15.4870   -9.9190    7.7060 C.ar  193  TRP193      0.0006
     79  CD1       14.2230  -10.2870    7.3160 C.ar  193  TRP193      0.0946
     80  CD2       16.3630  -10.7880    6.9340 C.ar  193  TRP193      0.0152
     81  NE1       14.2500  -11.2860    6.3880 N.ar  193  TRP193     -0.2442
     82  CE2       15.5490  -11.5950    6.1480 C.ar  193  TRP193      0.0810
     83  CE3       17.7610  -10.8850    6.8850 C.ar  193  TRP193      0.0012
     84  CZ2       16.0270  -12.5760    5.2520 C.ar  193  TRP193      0.0191
     85  CZ3       18.2550  -11.8690    5.9910 C.ar  193  TRP193      0.0001
     86  CH2       17.3900  -12.6440    5.2410 C.ar  193  TRP193      0.0015
     87  N         18.3220   -7.7660    7.5650 N.am  194  GLY194     -0.1940
     88  CA        19.4630   -7.7320    6.6820 C.3   194  GLY194      0.2014
     89  C         20.7050   -8.1250    7.4520 C.2   194  GLY194      0.2640
     90  O         20.6800   -8.1680    8.6610 O.2   194  GLY194     -0.2714
     91  N         21.7970   -8.4170    6.7200 N.am  195  SER195     -0.1935
     92  CA        23.0630   -8.6540    7.4550 C.3   195  SER195      0.2055
     93  C         23.8730   -7.3850    7.5780 C.2   195  SER195      0.2644
     94  O         24.3540   -6.7660    6.6310 O.2   195  SER195     -0.2714
     95  CB        23.8270   -9.7730    6.7450 C.3   195  SER195      0.2130
     96  OG        25.1590   -9.7880    7.2220 O.3   195  SER195     -0.2179
     97  N         24.0830   -6.8560    8.7830 N.am  196  GLY196     -0.1939
     98  CA        24.6780   -5.5810    9.0270 C.3   196  GLY196      0.2014
     99  C         23.8190   -4.4610    8.3980 C.2   196  GLY196      0.2639
    100  O         22.6190   -4.7150    8.2610 O.2   196  GLY196     -0.2714
    101  N         24.4240   -3.3500    8.0400 N.am  197  CYS197     -0.1967
    102  CA        23.7590   -2.2370    7.3550 C.3   197  CYS197      0.1712
    103  C         24.6690   -1.6080    6.3060 C.2   197  CYS197      0.2296
    104  O         25.7620   -1.1560    6.6310 O.2   197  CYS197     -0.2864
    105  CB        23.3160   -1.1060    8.2880 C.3   197  CYS197      0.0983
    106  SG        22.2000   -1.6660    9.6080 S.3   197  CYS197     -0.0798
    107  N         24.9880   -7.2290    0.6480 N.3   202  LYS202     -0.1231
    108  CA        23.9950   -7.5460    1.6790 C.3   202  LYS202      0.1678
    109  C         22.9010   -6.4780    1.7270 C.2   202  LYS202      0.2434
    110  O         22.9460   -5.5880    2.5680 O.2   202  LYS202     -0.2733
    111  CB        24.7070   -7.6880    3.0190 C.3   202  LYS202      0.0284
    112  CG        25.8840   -8.6670    2.9830 C.3   202  LYS202      0.0035
    113  CD        25.4430  -10.0760    3.2570 C.3   202  LYS202      0.0206
    114  CE        24.6610  -10.7870    2.1810 C.3   202  LYS202      0.1093
    115  NZ        24.5200  -12.2380    2.5200 N.3   202  LYS202     -0.1314
    116  N         21.9700   -6.5990    0.7930 N.am  203  PRO203     -0.2718
    117  CA        20.9360   -5.5630    0.6780 C.3   203  PRO203      0.1535
    118  C         19.9240   -5.7110    1.8110 C.2   203  PRO203      0.2599
    119  O         19.9070   -6.6370    2.5950 O.2   203  PRO203     -0.2715
    120  CB        20.3140   -5.8620   -0.6740 C.3   203  PRO203      0.0310
    121  CG        20.4670   -7.3350   -0.8470 C.3   203  PRO203      0.0237
    122  CD        21.7470   -7.6790   -0.1630 C.3   203  PRO203      0.0939
    123  N         19.0130   -4.7250    1.8930 N.am  204  GLY204     -0.1941
    124  CA        17.9430   -4.8660    2.8750 C.3   204  GLY204      0.2014
    125  C         16.8660   -5.7920    2.4400 C.2   204  GLY204      0.2639
    126  O         16.5890   -6.0200    1.2490 O.2   204  GLY204     -0.2714
    127  N         16.2050   -6.4290    3.4100 N.am  205  VAL205     -0.1963
    128  CA        15.1060   -7.3580    3.2270 C.3   205  VAL205      0.1727
    129  C         13.8380   -6.7710    3.8630 C.2   205  VAL205      0.2616
    130  O         13.9430   -6.2680    4.9870 O.2   205  VAL205     -0.2715
    131  CB        15.3760   -8.7730    3.8030 C.3   205  VAL205      0.0290
    132  CG1       14.2850   -9.7420    3.3940 C.3   205  VAL205      0.0023
    133  CG2       16.7150   -9.2940    3.3010 C.3   205  VAL205      0.0023
    134  N         12.7490   -6.8080    3.1230 N.am  206  TYR206     -0.1974
    135  CA        11.5030   -6.1390    3.4310 C.3   206  TYR206      0.1639
    136  C         10.3450   -7.0940    3.3550 C.2   206  TYR206      0.2290
    137  O         10.2280   -7.9970    2.5110 O.2   206  TYR206     -0.2864
    138  CB        11.2970   -5.0040    2.3890 C.3   206  TYR206      0.0560
    139  CG        12.4870   -4.0610    2.5270 C.ar  206  TYR206     -0.0198
    140  CD1       12.5380   -3.0820    3.4880 C.ar  206  TYR206     -0.0009
    141  CD2       13.6010   -4.1020    1.7010 C.ar  206  TYR206     -0.0009
    142  CE1       13.5870   -2.1930    3.6700 C.ar  206  TYR206      0.0417
    143  CE2       14.6740   -3.2480    1.8590 C.ar  206  TYR206      0.0417
    144  CZ        14.6820   -2.2750    2.8280 C.ar  206  TYR206      0.1957
    145  OH        15.7130   -1.4130    3.0440 O.3   206  TYR206     -0.2866
@<TRIPOS>BOND
     1   121   120    1
     2   121   122    1
     3   120   117    1
     4   122   116    1
     5   107   108    1
     6   117   116    1
     7   117   118    1
     8   116   109   am
     9   126   125    2
    10   108   109    1
    11   108   111    1
    12   141   143   ar
    13   141   139   ar
    14   109   110    2
    15   118   123   am
    16   118   119    2
    17   143   144   ar
    18   123   124    1
    19   114   115    1
    20   114   113    1
    21   138   139    1
    22   138   135    1
    23   125   124    1
    24   125   127   am
    25   137   136    2
    26   139   140   ar
    27    25    26    1
    28   144   145    1
    29   144   142   ar
    30   112   111    1
    31   112   113    1
    32   134   135    1
    33   134   129   am
    34    26    29    1
    35    26    27    1
    36   128   127    1
    37   128   131    1
    38   128   129    1
    39   133   131    1
    40   136   135    1
    41   132   131    1
    42   140   142   ar
    43    32    30   ar
    44    29    30    1
    45   129   130    2
    46    30    31   ar
    47    27    33   am
    48    27    28    2
    49    33    34    1
    50    86    84   ar
    51    86    85   ar
    52    84    82   ar
    53    38    37    1
    54    37    34    1
    55    85    83   ar
    56    34    35    1
    57    82    81   ar
    58    82    80   ar
    59    76    75    2
    60   103   104    2
    61   103   102    1
    62    81    79   ar
    63    60    61    1
    64    94    93    2
    65    66    64    1
    66    88    89    1
    67    88    87    1
    68    91    89   am
    69    91    92    1
    70    95    96    1
    71    95    92    1
    72    36    35    2
    73    83    80   ar
    74    61    64    1
    75    61    62    1
    76    80    78   ar
    77    35    39   am
    78    75    87   am
    79    75    74    1
    80    79    78   ar
    81   102   101    1
    82   102   105    1
    83    71    72    1
    84    71    68    1
    85    89    90    2
    86    92    93    1
    87    67    62   am
    88    67    68    1
    89    64    65    1
    90    93    97   am
    91    78    77    1
    92    73    74    1
    93    73    69   am
    94    62    63    2
    95   101    99   am
    96    68    69    1
    97   100    99    2
    98   105   106    1
    99    74    77    1
   100    39    40    1
   101    99    98    1
   102    20    19    2
   103    69    70    2
   104    97    98    1
   105    19    18    1
   106    40    43    1
   107    40    41    1
   108   106    44    1
   109    43    44    1
   110    21    18    1
   111    21    22    1
   112    18    17    1
   113    41    42    2
   114    41    45   am
   115    23    22    1
   116    22    24    1
   117    54    55    1
   118    55    56    1
   119    55    58    1
   120    56    57    2
   121    45    46    1
   122     9     7   ar
   123     9    10   ar
   124    59    58    1
   125     7     6   ar
   126    53    51   am
   127    52    51    2
   128    46    47    1
   129    46    49    1
   130    48    47    2
   131    51    50    1
   132    10     8   ar
   133     6     8   ar
   134     6     5    1
   135    49    50    1
   136     1     2    1
   137    11    12    1
   138     5     2    1
   139    13    14    2
   140    13    12    1
   141    12    15    1
   142     2     3    1
   143     3     4    2
   144    15    16    1
