@<TRIPOS>MOLECULE
tmp/3ljlA00.pdb
 123 117 0 0 0
SMALL
GASTEIGER

@<TRIPOS>ATOM
      1  N         -2.5690   61.8810   46.3340 N.3    53  THR53      -0.1218
      2  CA        -1.6460   61.7380   47.4400 C.3    53  THR53       0.1862
      3  C         -1.6030   63.0270   48.2690 C.2    53  THR53       0.2287
      4  O         -1.6390   62.9690   49.4890 O.2    53  THR53      -0.2866
      5  CB        -0.2570   61.1390   47.0480 C.3    53  THR53       0.1770
      6  OG1        0.2950   61.7900   45.8900 O.3    53  THR53      -0.2211
      7  CG2       -0.4220   59.6940   46.7300 C.3    53  THR53       0.0375
      8  N         -4.5360   62.9370   51.2310 N.3    56  LEU56      -0.1231
      9  CA        -4.3810   62.1420   52.4580 C.3    56  LEU56       0.1693
     10  C         -4.0240   62.9040   53.7110 C.2    56  LEU56       0.2592
     11  O         -4.4980   62.5840   54.7920 O.2    56  LEU56      -0.2718
     12  CB        -3.2620   61.1550   52.2490 C.3    56  LEU56       0.0284
     13  CG        -3.3580   60.3370   50.9810 C.3    56  LEU56       0.0019
     14  CD1       -1.9820   59.9040   50.6220 C.3    56  LEU56       0.0001
     15  CD2       -4.3020   59.1310   51.1660 C.3    56  LEU56       0.0001
     16  N         -3.1200   63.8640   53.5700 N.am   57  ASP57      -0.1960
     17  CA        -2.7140   64.7970   54.6480 C.3    57  ASP57       0.1840
     18  C         -2.2680   64.1620   55.9820 C.2    57  ASP57       0.2622
     19  O         -2.0490   64.8620   56.9820 O.2    57  ASP57      -0.2715
     20  CB        -3.7300   65.9730   54.8350 C.3    57  ASP57       0.1450
     21  CG        -4.7570   65.7310   55.9580 C.2    57  ASP57       0.3671
     22  OD1       -4.6390   64.7060   56.6690 O.co2  57  ASP57      -0.2456
     23  OD2       -5.6780   66.5690   56.1290 O.co2  57  ASP57      -0.2456
     24  N         -2.1020   62.8450   55.9820 N.am   58  GLY58      -0.1954
     25  CA        -1.5820   62.1730   57.1440 C.3    58  GLY58       0.1869
     26  C         -2.1870   60.8120   57.3440 C.2    58  GLY58       0.2309
     27  O         -1.5860   59.9860   58.0250 O.2    58  GLY58      -0.2863
     28  N         -2.2390   58.1560   55.8520 N.3    60  ILE60      -0.1231
     29  CA        -1.3420   57.0320   55.7100 C.3    60  ILE60       0.1692
     30  C         -0.3410   57.0150   56.8240 C.2    60  ILE60       0.2592
     31  O         -0.0840   55.9770   57.4030 O.2    60  ILE60      -0.2718
     32  CB        -0.6000   56.9570   54.3670 C.3    60  ILE60       0.0266
     33  CG1       -1.2330   55.9150   53.4410 C.3    60  ILE60       0.0019
     34  CG2        0.7510   56.3780   54.5620 C.3    60  ILE60       0.0020
     35  CD1       -2.0820   56.4600   52.2820 C.3    60  ILE60       0.0001
     36  N          0.2470   58.1510   57.1320 N.am   61  PHE61      -0.1976
     37  CA         1.3520   58.1540   58.0920 C.3    61  PHE61       0.1639
     38  C          0.9180   57.5190   59.4400 C.2    61  PHE61       0.2290
     39  O          1.7350   57.0340   60.1980 O.2    61  PHE61      -0.2864
     40  CB         1.9330   59.5950   58.2150 C.3    61  PHE61       0.0560
     41  CG         2.8740   59.7750   59.3420 C.ar   61  PHE61      -0.0200
     42  CD1        2.4400   60.2810   60.5320 C.ar   61  PHE61      -0.0042
     43  CD2        4.2050   59.3930   59.2200 C.ar   61  PHE61      -0.0042
     44  CE1        3.2970   60.4200   61.5730 C.ar   61  PHE61      -0.0003
     45  CE2        5.0910   59.5230   60.2700 C.ar   61  PHE61      -0.0003
     46  CZ         4.6340   60.0380   61.4450 C.ar   61  PHE61      -0.0000
     47  N          1.0170   53.8410   59.1630 N.3    63  PHE63      -0.1241
     48  CA         2.4080   53.5170   59.1010 C.3    63  PHE63       0.1605
     49  C          3.0100   53.2840   60.4580 C.2    63  PHE63       0.2264
     50  O          3.7760   52.3440   60.6450 O.2    63  PHE63      -0.2867
     51  CB         3.1690   54.6740   58.4730 C.3    63  PHE63       0.0534
     52  CG         4.6750   54.4750   58.4580 C.ar   63  PHE63      -0.0203
     53  CD1        5.2680   53.6350   57.5450 C.ar   63  PHE63      -0.0042
     54  CD2        5.4840   55.1400   59.3350 C.ar   63  PHE63      -0.0042
     55  CE1        6.6100   53.4540   57.5080 C.ar   63  PHE63      -0.0003
     56  CE2        6.8560   54.9500   59.2910 C.ar   63  PHE63      -0.0003
     57  CZ         7.4050   54.1000   58.3780 C.ar   63  PHE63      -0.0000
     58  N          3.6210   51.1010   51.9760 N.3    92  ILE92      -0.1231
     59  CA         3.7890   52.5040   52.3230 C.3    92  ILE92       0.1692
     60  C          5.1720   53.0580   51.9710 C.2    92  ILE92       0.2591
     61  O          5.2930   54.1600   51.4450 O.2    92  ILE92      -0.2718
     62  CB         3.5270   52.7570   53.8160 C.3    92  ILE92       0.0266
     63  CG1        2.1170   52.3410   54.2010 C.3    92  ILE92       0.0019
     64  CG2        3.7750   54.2160   54.1730 C.3    92  ILE92       0.0020
     65  CD1        1.8350   52.5120   55.6600 C.3    92  ILE92       0.0001
     66  N          6.2160   52.3090   52.2560 N.am   93  LEU93      -0.1980
     67  CA         7.5220   52.7800   51.8510 C.3    93  LEU93       0.1596
     68  C          7.7020   52.8700   50.3230 C.2    93  LEU93       0.2287
     69  O          8.3510   53.7910   49.8140 O.2    93  LEU93      -0.2864
     70  CB         8.6070   51.9040   52.4590 C.3    93  LEU93       0.0297
     71  CG         8.9030   52.1830   53.9360 C.3    93  LEU93       0.0022
     72  CD1       10.0390   51.2820   54.3790 C.3    93  LEU93       0.0001
     73  CD2        9.1970   53.6530   54.2090 C.3    93  LEU93       0.0001
     74  N          5.4240   53.4220   48.0580 N.3    95  LEU95      -0.1231
     75  CA         4.6590   54.6320   47.6900 C.3    95  LEU95       0.1693
     76  C          5.5230   55.8370   47.8920 C.2    95  LEU95       0.2591
     77  O          5.7310   56.5770   46.9620 O.2    95  LEU95      -0.2718
     78  CB         3.3450   54.7350   48.4640 C.3    95  LEU95       0.0284
     79  CG         2.2060   55.6930   48.0620 C.3    95  LEU95       0.0019
     80  CD1        2.0700   56.8570   49.0070 C.3    95  LEU95       0.0001
     81  CD2        2.1950   56.2060   46.6250 C.3    95  LEU95       0.0001
     82  N          6.0780   55.9940   49.0840 N.am   96  LEU96      -0.1980
     83  CA         7.0420   57.0540   49.3030 C.3    96  LEU96       0.1596
     84  C          8.2210   56.9840   48.3430 C.2    96  LEU96       0.2287
     85  O          8.4380   57.8980   47.5670 O.2    96  LEU96      -0.2864
     86  CB         7.5970   57.0600   50.7290 C.3    96  LEU96       0.0297
     87  CG         8.1770   58.3400   51.4010 C.3    96  LEU96       0.0022
     88  CD1        9.2620   58.0440   52.3930 C.3    96  LEU96       0.0001
     89  CD2        8.6960   59.3770   50.4450 C.3    96  LEU96       0.0001
     90  N          5.1930   65.8760   47.9240 N.3   109  PHE109     -0.1241
     91  CA         4.6360   64.8810   48.8710 C.3   109  PHE109      0.1605
     92  C          5.7210   64.0630   49.5430 C.2   109  PHE109      0.2264
     93  O          5.5770   63.6410   50.7020 O.2   109  PHE109     -0.2867
     94  CB         3.6530   63.9280   48.1870 C.3   109  PHE109      0.0534
     95  CG         3.3360   62.6470   49.0010 C.ar  109  PHE109     -0.0203
     96  CD1        2.1920   62.5590   49.7870 C.ar  109  PHE109     -0.0042
     97  CD2        4.1710   61.5180   48.9440 C.ar  109  PHE109     -0.0042
     98  CE1        1.8930   61.3850   50.5010 C.ar  109  PHE109     -0.0003
     99  CE2        3.8940   60.3320   49.6660 C.ar  109  PHE109     -0.0003
    100  CZ         2.7600   60.2680   50.4400 C.ar  109  PHE109     -0.0000
    101  N          7.2160   63.9910   53.3100 N.3   113  GLY113     -0.1225
    102  CA         7.1910   62.7710   54.1200 C.3   113  GLY113      0.1811
    103  C          8.5090   62.3900   54.8020 C.2   113  GLY113      0.2280
    104  O          8.5100   61.8820   55.9310 O.2   113  GLY113     -0.2866
    105  N          9.1890   64.6090   57.6410 N.3   116  ARG116     -0.1231
    106  CA         8.2980   64.0500   58.6470 C.3   116  ARG116      0.1694
    107  C          8.8820   62.8460   59.3710 C.2   116  ARG116      0.2591
    108  O          8.8230   62.8260   60.5770 O.2   116  ARG116     -0.2718
    109  CB         6.9410   63.7040   58.0410 C.3   116  ARG116      0.0321
    110  CG         5.8570   63.4890   59.0390 C.3   116  ARG116      0.0489
    111  CD         4.7590   62.6850   58.4010 C.3   116  ARG116      0.2205
    112  NE         3.7210   63.4420   57.6680 N.pl3 116  ARG116     -0.0865
    113  CZ         2.6090   63.9600   58.2180 C.cat 116  ARG116      0.5346
    114  NH1        2.3740   63.8620   59.5310 N.pl3 116  ARG116      0.1354
    115  NH2        1.7250   64.5950   57.4550 N.pl3 116  ARG116      0.1354
    116  N          9.4590   61.9030   58.6570 N.am  117  LEU117     -0.1980
    117  CA        10.1410   60.8140   59.3040 C.3   117  LEU117      0.1596
    118  C         11.2100   61.3890   60.1790 C.2   117  LEU117      0.2287
    119  O         11.2720   61.1300   61.3610 O.2   117  LEU117     -0.2864
    120  CB        10.8130   59.9550   58.2650 C.3   117  LEU117      0.0297
    121  CG        10.1310   58.6950   57.7560 C.3   117  LEU117      0.0022
    122  CD1        9.1140   58.1980   58.6980 C.3   117  LEU117      0.0001
    123  CD2        9.5350   58.9460   56.4310 C.3   117  LEU117      0.0001
@<TRIPOS>BOND
     1     6     5    1
     2     1     2    1
     3    81    79    1
     4     7     5    1
     5    77    76    2
     6     5     2    1
     7     2     3    1
     8    85    84    2
     9    75    76    1
    10    75    74    1
    11    75    78    1
    12    76    82   am
    13    90    91    1
    14    79    78    1
    15    79    80    1
    16    94    91    1
    17    94    95    1
    18     3     4    2
    19    84    83    1
    20    91    92    1
    21    97    95   ar
    22    97    99   ar
    23    95    96   ar
    24    82    83    1
    25    83    86    1
    26    92    93    2
    27    99   100   ar
    28    96    98   ar
    29    69    68    2
    30    68    67    1
    31   100    98   ar
    32    89    87    1
    33    14    13    1
    34    86    87    1
    35    13    15    1
    36    13    12    1
    37     8     9    1
    38    87    88    1
    39    61    60    2
    40    67    66    1
    41    67    70    1
    42    60    66   am
    43    60    59    1
    44    58    59    1
    45    12     9    1
    46    35    33    1
    47    59    62    1
    48     9    10    1
    49    70    71    1
    50   101   102    1
    51    33    32    1
    52    16    10   am
    53    16    17    1
    54    10    11    2
    55    62    64    1
    56    62    63    1
    57    71    73    1
    58    71    72    1
    59   102   103    1
    60    63    65    1
    61    32    34    1
    62    32    29    1
    63    17    20    1
    64    17    18    1
    65   103   104    2
    66    20    21    1
    67    29    28    1
    68    29    30    1
    69    21    23   ar
    70    21    22   ar
    71    24    18   am
    72    24    25    1
    73    18    19    2
    74   123   121    1
    75    30    36   am
    76    30    31    2
    77    36    37    1
    78    25    26    1
    79    26    27    2
    80   115   113    1
    81    55    53   ar
    82    55    57   ar
    83    53    52   ar
    84   105   106    1
    85   112   113    2
    86   112   111    1
    87   121   120    1
    88   121   122    1
    89   109   106    1
    90   109   110    1
    91    37    40    1
    92    37    38    1
    93    40    41    1
    94   113   114    1
    95   120   117    1
    96    57    56   ar
    97   111   110    1
    98    52    51    1
    99    52    54   ar
   100    51    48    1
   101   106   107    1
   102   116   117    1
   103   116   107   am
   104    48    47    1
   105    48    49    1
   106    43    41   ar
   107    43    45   ar
   108    56    54   ar
   109   117   118    1
   110    41    42   ar
   111   107   108    2
   112    38    39    2
   113   118   119    2
   114    45    46   ar
   115    49    50    2
   116    42    44   ar
   117    46    44   ar
