@<TRIPOS>MOLECULE
tmp/3ljrA00.pdb
 207 199 0 0 0
SMALL
GASTEIGER

@<TRIPOS>ATOM
      1  N          7.3540   73.8220   -8.0490 N.3    10  VAL10      -0.1231
      2  CA         6.2400   73.1080   -7.4640 C.3    10  VAL10       0.1692
      3  C          6.6770   72.7580   -6.0430 C.2    10  VAL10       0.2593
      4  O          5.8690   72.3430   -5.1990 O.2    10  VAL10      -0.2718
      5  CB         5.9480   71.8200   -8.2320 C.3    10  VAL10       0.0266
      6  CG1        4.7260   71.1430   -7.6550 C.3    10  VAL10       0.0020
      7  CG2        5.7520   72.1340   -9.6960 C.3    10  VAL10       0.0020
      8  N          7.9770   72.9360   -5.8050 N.am   11  SER11      -0.1938
      9  CA         8.6240   72.6740   -4.5200 C.3    11  SER11       0.2055
     10  C          8.6920   74.0010   -3.7420 C.2    11  SER11       0.2643
     11  O          9.4010   74.9260   -4.1440 O.2    11  SER11      -0.2714
     12  CB        10.0290   72.1110   -4.7830 C.3    11  SER11       0.2130
     13  OG        10.9700   72.5180   -3.8090 O.3    11  SER11      -0.2179
     14  N          7.9500   74.0830   -2.6310 N.am   12  GLN12      -0.1963
     15  CA         7.8710   75.2980   -1.8020 C.3    12  GLN12       0.1718
     16  C          9.1890   75.9600   -1.4200 C.2    12  GLN12       0.2458
     17  O          9.2980   77.1840   -1.4260 O.2    12  GLN12      -0.2730
     18  CB         7.0500   75.0250   -0.5460 C.3    12  GLN12       0.0407
     19  CG         7.4740   73.7950    0.2130 C.3    12  GLN12       0.0908
     20  CD         6.7640   72.5430   -0.2600 C.2    12  GLN12       0.2608
     21  OE1        5.5640   72.3670   -0.0350 O.2    12  GLN12      -0.2717
     22  NE2        7.5150   71.6550   -0.9210 N.am   12  GLN12      -0.0878
     23  N         10.2020   75.1670   -1.0450 N.am   13  PRO13      -0.2727
     24  CA        11.4480   75.8630   -0.7010 C.3    13  PRO13       0.1402
     25  C         12.0410   76.4240   -1.9920 C.2    13  PRO13       0.2269
     26  O         12.6030   77.5090   -2.0140 O.2    13  PRO13      -0.2865
     27  CB        12.3280   74.7670   -0.0820 C.3    13  PRO13       0.0296
     28  CG        11.4180   73.5890    0.1420 C.3    13  PRO13       0.0237
     29  CD        10.3150   73.7080   -0.8720 C.3    13  PRO13       0.0939
     30  N         10.9430   67.5120  -10.6790 N.3    35  LEU35      -0.1231
     31  CA        10.8010   66.6360   -9.5240 C.3    35  LEU35       0.1693
     32  C          9.7990   65.5230   -9.8120 C.2    35  LEU35       0.2591
     33  O         10.1180   64.3450   -9.6800 O.2    35  LEU35      -0.2718
     34  CB        10.3270   67.4280   -8.3040 C.3    35  LEU35       0.0284
     35  CG        11.3270   68.3810   -7.6710 C.3    35  LEU35       0.0019
     36  CD1       10.6360   69.2760   -6.6730 C.3    35  LEU35       0.0001
     37  CD2       12.4230   67.5790   -7.0160 C.3    35  LEU35       0.0001
     38  N          8.5890   65.9070  -10.2130 N.am   36  VAL36      -0.1980
     39  CA         7.5190   64.9500  -10.5080 C.3    36  VAL36       0.1595
     40  C          7.9650   63.8650  -11.4820 C.2    36  VAL36       0.2287
     41  O          7.5130   62.7190  -11.4020 O.2    36  VAL36      -0.2864
     42  CB         6.2960   65.6580  -11.1240 C.3    36  VAL36       0.0276
     43  CG1        5.0470   64.8320  -10.8750 C.3    36  VAL36       0.0022
     44  CG2        6.1640   67.0740  -10.5530 C.3    36  VAL36       0.0022
     45  N         15.5770   65.0290  -10.5820 N.3    40  HIS40      -0.1226
     46  CA        16.4370   65.2400   -9.4310 C.3    40  HIS40       0.1752
     47  C         17.1060   63.9610   -8.9490 C.2    40  HIS40       0.2595
     48  O         17.6960   63.9290   -7.8720 O.2    40  HIS40      -0.2718
     49  CB        15.6640   65.9170   -8.2890 C.3    40  HIS40       0.0759
     50  CG        14.5420   65.0980   -7.7180 C.ar   40  HIS40       0.0818
     51  ND1       13.5100   64.6080   -8.4870 N.ar   40  HIS40      -0.2268
     52  CD2       14.2600   64.7450   -6.4400 C.ar   40  HIS40       0.1154
     53  CE1       12.6390   63.9870   -7.7060 C.ar   40  HIS40       0.1986
     54  NE2       13.0710   64.0580   -6.4610 N.ar   40  HIS40      -0.2212
     55  N         17.0170   62.9120   -9.7650 N.am   41  LYS41      -0.1980
     56  CA        17.6230   61.6210   -9.4640 C.3    41  LYS41       0.1596
     57  C         18.4730   61.1980  -10.6580 C.2    41  LYS41       0.2287
     58  O         19.1940   60.2130  -10.5950 O.2    41  LYS41      -0.2864
     59  CB        16.5450   60.5690   -9.2040 C.3    41  LYS41       0.0298
     60  CG        15.4070   61.0440   -8.3160 C.3    41  LYS41       0.0038
     61  CD        15.6660   60.7090   -6.8600 C.3    41  LYS41       0.0206
     62  CE        16.2990   61.8860   -6.1360 C.3    41  LYS41       0.1093
     63  NZ        15.6790   62.0790   -4.7950 N.3    41  LYS41      -0.1314
     64  N         22.5920   64.3460   -2.7980 N.3    51  LEU51      -0.1231
     65  CA        21.2950   64.0590   -2.2050 C.3    51  LEU51       0.1693
     66  C         20.1280   64.0000   -3.1820 C.2    51  LEU51       0.2593
     67  O         19.1140   63.3700   -2.8990 O.2    51  LEU51      -0.2718
     68  CB        21.0090   65.0750   -1.0960 C.3    51  LEU51       0.0284
     69  CG        21.9300   64.9140    0.1140 C.3    51  LEU51       0.0019
     70  CD1       21.9900   66.2030    0.8850 C.3    51  LEU51       0.0001
     71  CD2       21.4170   63.7980    1.0020 C.3    51  LEU51       0.0001
     72  N         20.2720   64.6430   -4.3340 N.am   52  GLY52      -0.1942
     73  CA        19.1880   64.6460   -5.2980 C.3    52  GLY52       0.2014
     74  C         17.9850   65.3650   -4.7140 C.2    52  GLY52       0.2639
     75  O         16.8780   64.8350   -4.6800 O.2    52  GLY52      -0.2714
     76  N         18.2050   66.5840   -4.2450 N.am   53  LYS53      -0.1963
     77  CA        17.1350   67.3750   -3.6610 C.3    53  LYS53       0.1728
     78  C         17.0530   68.7680   -4.3040 C.2    53  LYS53       0.2616
     79  O         18.0090   69.2360   -4.9170 O.2    53  LYS53      -0.2715
     80  CB        17.3630   67.4920   -2.1510 C.3    53  LYS53       0.0311
     81  CG        16.6800   66.4000   -1.3480 C.3    53  LYS53       0.0038
     82  CD        16.3130   66.9090    0.0320 C.3    53  LYS53       0.0206
     83  CE        16.7850   65.9430    1.1050 C.3    53  LYS53       0.1093
     84  NZ        15.9400   66.0870    2.3160 N.3    53  LYS53      -0.1314
     85  N         15.9020   69.4160   -4.1670 N.am   54  LEU54      -0.1964
     86  CA        15.6800   70.7410   -4.7290 C.3    54  LEU54       0.1713
     87  C         15.1870   71.7370   -3.6520 C.2    54  LEU54       0.2458
     88  O         14.3660   71.3860   -2.7930 O.2    54  LEU54      -0.2730
     89  CB        14.6430   70.6490   -5.8580 C.3    54  LEU54       0.0310
     90  CG        15.0660   70.0780   -7.2160 C.3    54  LEU54       0.0022
     91  CD1       13.9530   70.3010   -8.2330 C.3    54  LEU54       0.0001
     92  CD2       16.3380   70.7560   -7.6870 C.3    54  LEU54       0.0001
     93  N         15.6890   72.9890   -3.6760 N.am   55  PRO55      -0.2727
     94  CA        16.6720   73.5190   -4.6250 C.3    55  PRO55       0.1402
     95  C         18.1100   73.4200   -4.1180 C.2    55  PRO55       0.2269
     96  O         18.3600   73.3490   -2.9130 O.2    55  PRO55      -0.2865
     97  CB        16.2430   74.9710   -4.7880 C.3    55  PRO55       0.0296
     98  CG        15.7050   75.3300   -3.4020 C.3    55  PRO55       0.0237
     99  CD        15.2250   74.0390   -2.7490 C.3    55  PRO55       0.0939
    100  N         19.7780   73.2540    0.7390 N.3    66  GLU66      -0.1231
    101  CA        18.8970   73.7680    1.7980 C.3    66  GLU66       0.1699
    102  C         18.6200   75.2480    1.5980 C.2    66  GLU66       0.2593
    103  O         19.4820   76.0740    1.8360 O.2    66  GLU66      -0.2718
    104  CB        19.5360   73.5420    3.1760 C.3    66  GLU66       0.0402
    105  CG        20.0140   72.1000    3.4220 C.3    66  GLU66       0.1161
    106  CD        18.8970   71.1760    3.8930 C.2    66  GLU66       0.3649
    107  OE1       17.9140   71.6870    4.4680 O.co2  66  GLU66      -0.2457
    108  OE2       19.0050   69.9480    3.6850 O.co2  66  GLU66      -0.2457
    109  N         17.4090   75.5740    1.1630 N.am   67  SER67      -0.1938
    110  CA        17.0380   76.9620    0.9130 C.3    67  SER67       0.2055
    111  C         17.5090   77.9410    1.9930 C.2    67  SER67       0.2643
    112  O         17.9730   79.0320    1.6660 O.2    67  SER67      -0.2714
    113  CB        15.5100   77.0970    0.7310 C.3    67  SER67       0.2130
    114  OG        14.8100   75.9150    1.0790 O.3    67  SER67      -0.2179
    115  N         17.3810   77.5560    3.2650 N.am   68  SER68      -0.1949
    116  CA        17.7990   78.4140    4.3740 C.3    68  SER68       0.1924
    117  C         19.2270   78.8970    4.1430 C.2    68  SER68       0.2314
    118  O         19.4880   80.0970    4.1350 O.2    68  SER68      -0.2863
    119  CB        17.7330   77.6610    5.7030 C.3    68  SER68       0.2116
    120  OG        17.2660   76.3360    5.5290 O.3    68  SER68      -0.2180
    121  N          7.5930   72.7300    7.8850 N.3   107  ARG107     -0.1245
    122  CA         8.1950   71.8960    6.8430 C.3   107  ARG107      0.1563
    123  C          7.8390   70.4060    6.9340 C.2   107  ARG107      0.2260
    124  O          8.0730   69.7680    7.9670 O.2   107  ARG107     -0.2867
    125  CB         9.7230   72.0980    6.8690 C.3   107  ARG107      0.0307
    126  CG        10.5370   71.2280    5.9170 C.3   107  ARG107      0.0489
    127  CD        10.0140   71.2550    4.4850 C.3   107  ARG107      0.2205
    128  NE        10.5890   70.1720    3.6850 N.pl3 107  ARG107     -0.0865
    129  CZ        10.5440   68.8830    4.0210 C.cat 107  ARG107      0.5346
    130  NH1        9.9490   68.4880    5.1450 N.pl3 107  ARG107      0.1354
    131  NH2       11.0910   67.9800    3.2250 N.pl3 107  ARG107      0.1354
    132  N         -0.6990   67.6900   -1.2170 N.3   114  LEU114     -0.1231
    133  CA        -0.3260   67.3950   -2.5960 C.3   114  LEU114      0.1693
    134  C         -0.1160   65.8930   -2.7980 C.2   114  LEU114      0.2592
    135  O         -0.4340   65.3510   -3.8520 O.2   114  LEU114     -0.2718
    136  CB         0.9430   68.1560   -2.9740 C.3   114  LEU114      0.0284
    137  CG         1.3570   67.8990   -4.4190 C.3   114  LEU114      0.0019
    138  CD1        0.4190   68.6290   -5.3580 C.3   114  LEU114      0.0001
    139  CD2        2.7820   68.3460   -4.6320 C.3   114  LEU114      0.0001
    140  N          0.4150   65.2250   -1.7830 N.am  115  TRP115     -0.1976
    141  CA         0.6400   63.7880   -1.8650 C.3   115  TRP115      0.1640
    142  C         -0.7010   63.0570   -1.7240 C.2   115  TRP115      0.2290
    143  O         -0.9500   62.0430   -2.3760 O.2   115  TRP115     -0.2864
    144  CB         1.6100   63.3270   -0.7630 C.3   115  TRP115      0.0576
    145  CG         2.9780   63.9490   -0.8710 C.ar  115  TRP115      0.0006
    146  CD1        3.3960   65.1060   -0.2900 C.ar  115  TRP115      0.0946
    147  CD2        4.0740   63.4760   -1.6630 C.ar  115  TRP115      0.0152
    148  NE1        4.6830   65.3930   -0.6740 N.ar  115  TRP115     -0.2442
    149  CE2        5.1290   64.4120   -1.5180 C.ar  115  TRP115      0.0810
    150  CE3        4.2790   62.3630   -2.4840 C.ar  115  TRP115      0.0012
    151  CZ2        6.3600   64.2620   -2.1620 C.ar  115  TRP115      0.0191
    152  CZ3        5.5080   62.2180   -3.1280 C.ar  115  TRP115      0.0001
    153  CH2        6.5280   63.1660   -2.9610 C.ar  115  TRP115      0.0015
    154  N          0.4250   63.7690   -6.1380 N.3   119  LEU119     -0.1245
    155  CA         1.5790   62.8800   -6.2330 C.3   119  LEU119      0.1561
    156  C          1.3000   61.4420   -5.8040 C.2   119  LEU119      0.2260
    157  O          1.6780   60.5020   -6.4980 O.2   119  LEU119     -0.2867
    158  CB         2.7630   63.4610   -5.4350 C.3   119  LEU119      0.0270
    159  CG         3.3670   64.7760   -5.9690 C.3   119  LEU119      0.0019
    160  CD1        4.7540   64.9790   -5.4150 C.3   119  LEU119      0.0001
    161  CD2        3.4240   64.7560   -7.4850 C.3   119  LEU119      0.0001
    162  N          9.7950   82.0740    3.5640 N.3   168  MET168     -0.1245
    163  CA         9.7370   80.6320    3.7360 C.3   168  MET168      0.1570
    164  C          8.3170   80.2710    4.1210 C.2   168  MET168      0.2261
    165  O          7.6480   79.5540    3.4040 O.2   168  MET168     -0.2867
    166  CB        10.6950   80.2000    4.8430 C.3   168  MET168      0.0387
    167  CG        12.1260   80.6570    4.6510 C.3   168  MET168      0.0595
    168  SD        13.1770   79.2300    4.5830 S.3   168  MET168     -0.1393
    169  CE        12.5890   78.4680    3.0370 C.3   168  MET168      0.0692
    170  N          1.0440   75.8220   -0.6600 N.3   175  GLN175     -0.1245
    171  CA         0.7250   74.5240   -1.2260 C.3   175  GLN175      0.1566
    172  C         -0.6770   74.0650   -0.8370 C.2   175  GLN175      0.2260
    173  O         -1.5280   73.8570   -1.6930 O.2   175  GLN175     -0.2867
    174  CB         1.7630   73.4930   -0.7810 C.3   175  GLN175      0.0367
    175  CG         2.0260   72.4190   -1.8350 C.3   175  GLN175      0.0905
    176  CD         3.3490   72.5900   -2.6060 C.2   175  GLN175      0.2608
    177  OE1        3.6190   73.6420   -3.1890 O.2   175  GLN175     -0.2717
    178  NE2        4.1630   71.5370   -2.6180 N.am  175  GLN175     -0.0878
    179  N         12.3250   58.1190   -8.8230 N.3   232  ALA232     -0.1245
    180  CA        11.4100   59.0670   -8.2130 C.3   232  ALA232      0.1562
    181  C         10.3150   58.2830   -7.4790 C.2   232  ALA232      0.2260
    182  O          9.8980   58.6220   -6.3590 O.2   232  ALA232     -0.2867
    183  CB        10.8070   59.9640   -9.2830 C.3   232  ALA232      0.0290
    184  N         11.4050   57.4600   -3.9290 N.3   235  ALA235     -0.1231
    185  CA        11.3270   58.6010   -3.0290 C.3   235  ALA235      0.1694
    186  C          9.8890   59.0380   -2.7790 C.2   235  ALA235      0.2591
    187  O          9.5810   59.5650   -1.7070 O.2   235  ALA235     -0.2718
    188  CB        12.1450   59.7580   -3.5690 C.3   235  ALA235      0.0304
    189  N          9.0200   58.8440   -3.7690 N.am  236  MET236     -0.1979
    190  CA         7.6090   59.1820   -3.6060 C.3   236  MET236      0.1605
    191  C          7.0320   58.1700   -2.6080 C.2   236  MET236      0.2287
    192  O          6.1970   58.5070   -1.7660 O.2   236  MET236     -0.2864
    193  CB         6.8660   59.0520   -4.9420 C.3   236  MET236      0.0413
    194  CG         6.8370   60.3280   -5.7900 C.3   236  MET236      0.0598
    195  SD         6.2290   60.1490   -7.5080 S.3   236  MET236     -0.1393
    196  CE         4.4900   60.2470   -7.3160 C.3   236  MET236      0.0692
    197  N          6.2910   58.1910    5.4200 N.3   242  ARG242     -0.1245
    198  CA         6.6110   58.8570    6.6770 C.3   242  ARG242      0.1563
    199  C          5.4960   59.8570    7.0080 C.2   242  ARG242      0.2260
    200  O          5.7090   60.8480    7.7010 O.2   242  ARG242     -0.2867
    201  CB         7.9730   59.5620    6.6030 C.3   242  ARG242      0.0307
    202  CG         8.2800   60.2210    5.2690 C.3   242  ARG242      0.0489
    203  CD         9.5300   61.0860    5.3570 C.3   242  ARG242      0.2205
    204  NE        10.6840   60.4520    4.7210 N.pl3 242  ARG242     -0.0865
    205  CZ        11.3380   60.9490    3.6700 C.cat 242  ARG242      0.5346
    206  NH1       10.9600   62.0930    3.1240 N.pl3 242  ARG242      0.1354
    207  NH2       12.3780   60.2970    3.1610 N.pl3 242  ARG242      0.1354
@<TRIPOS>BOND
     1    40    41    2
     2    40    39    1
     3    42    43    1
     4    42    44    1
     5    42    39    1
     6    30    31    1
     7    57    58    2
     8    57    56    1
     9    45    46    1
    10    39    38    1
    11    38    32   am
    12    32    33    2
    13    32    31    1
    14    55    56    1
    15    55    47   am
    16     7     5    1
    17    31    34    1
    18    56    59    1
    19    46    47    1
    20    46    49    1
    21   183   180    1
    22    59    60    1
    23    47    48    2
    24   179   180    1
    25    51    50   ar
    26    51    53   ar
    27    60    61    1
    28    34    35    1
    29    49    50    1
    30    91    90    1
    31     5     6    1
    32     5     2    1
    33   180   181    1
    34     1     2    1
    35    50    52   ar
    36    53    54   ar
    37    92    90    1
    38    35    37    1
    39    35    36    1
    40   195   196    1
    41   195   194    1
    42   161   159    1
    43   181   182    2
    44     2     3    1
    45    90    89    1
    46    61    62    1
    47   157   156    2
    48    54    52   ar
    49   155   154    1
    50   155   156    1
    51   155   158    1
    52    62    63    1
    53     3     8   am
    54     3     4    2
    55   159   158    1
    56   159   160    1
    57    89    86    1
    58     8     9    1
    59   194   193    1
    60   138   137    1
    61    73    74    1
    62    73    72    1
    63   193   190    1
    64    79    78    2
    65    97    94    1
    66    97    98    1
    67    12     9    1
    68    12    13    1
    69    86    85    1
    70    86    87    1
    71    74    75    2
    72    74    76   am
    73   139   137    1
    74    94    95    1
    75    94    93    1
    76     9    10    1
    77   137   136    1
    78    72    66   am
    79    78    85   am
    80    78    77    1
    81    76    77    1
    82    11    10    2
    83    95    96    2
    84   184   185    1
    85   135   134    2
    86   189   190    1
    87   189   186   am
    88    10    14   am
    89    93    87   am
    90    93    99    1
    91    77    80    1
    92    87    88    2
    93   190   191    1
    94   188   185    1
    95    98    99    1
    96   177   176    2
    97    66    67    2
    98    66    65    1
    99   152   153   ar
   100   152   150   ar
   101   185   186    1
   102   136   133    1
   103   153   151   ar
   104   134   133    1
   105   134   140   am
   106    64    65    1
   107   186   187    2
   108    14    15    1
   109   178   176   am
   110   191   192    2
   111   176   175    1
   112   133   132    1
   113   150   147   ar
   114   143   142    2
   115    65    68    1
   116   151   149   ar
   117    80    81    1
   118    26    25    2
   119    25    24    1
   120   141   140    1
   121   141   142    1
   122   141   144    1
   123   175   174    1
   124    15    16    1
   125    15    18    1
   126   173   172    2
   127   147   149   ar
   128   147   145   ar
   129   149   148   ar
   130    17    16    2
   131    16    23   am
   132    81    82    1
   133   171   172    1
   134   171   174    1
   135   171   170    1
   136    68    69    1
   137    23    29    1
   138    23    24    1
   139    22    20   am
   140    29    28    1
   141   145   144    1
   142   145   146   ar
   143    24    27    1
   144   148   146   ar
   145    18    19    1
   146    20    21    2
   147    20    19    1
   148    27    28    1
   149    82    83    1
   150    69    70    1
   151    69    71    1
   152   113   110    1
   153   113   114    1
   154   100   101    1
   155   110   109    1
   156   110   111    1
   157    83    84    1
   158   109   102   am
   159   102   101    1
   160   102   103    2
   161   112   111    2
   162   101   104    1
   163   111   115   am
   164   169   168    1
   165   206   205    1
   166   207   205    1
   167   104   105    1
   168   131   129    1
   169   115   116    1
   170   165   164    2
   171   105   106    1
   172   162   163    1
   173   205   204    2
   174   108   106   ar
   175   128   129    2
   176   128   127    1
   177   163   164    1
   178   163   166    1
   179   106   107   ar
   180   129   130    1
   181   118   117    2
   182   117   116    1
   183   116   119    1
   184   127   126    1
   185   168   167    1
   186   167   166    1
   187   204   203    1
   188   202   203    1
   189   202   201    1
   190   197   198    1
   191   120   119    1
   192   126   125    1
   193   201   198    1
   194   198   199    1
   195   122   125    1
   196   122   123    1
   197   122   121    1
   198   123   124    2
   199   199   200    2
