@<TRIPOS>MOLECULE
tmp/3ljuA00.pdb
 100 95 0 0 0
SMALL
GASTEIGER

@<TRIPOS>ATOM
      1  N         36.3160   -7.5230  -37.1270 N.3   264  LYS264     -0.1231
      2  CA        37.3120   -8.4760  -36.6470 C.3   264  LYS264      0.1693
      3  C         37.6580   -9.5140  -37.6810 C.2   264  LYS264      0.2593
      4  O         36.9020   -9.7730  -38.6050 O.2   264  LYS264     -0.2718
      5  CB        36.8560   -9.1800  -35.3640 C.3   264  LYS264      0.0285
      6  CG        35.5810   -9.9740  -35.4910 C.3   264  LYS264      0.0035
      7  CD        35.3350  -10.9460  -34.3070 C.3   264  LYS264      0.0206
      8  CE        36.1280  -12.2160  -34.4110 C.3   264  LYS264      0.1093
      9  NZ        35.8090  -12.9880  -35.6360 N.3   264  LYS264     -0.1314
     10  N         38.8570  -10.0600  -37.5340 N.am  265  THR265     -0.1939
     11  CA        39.3010  -11.1850  -38.3550 C.3   265  THR265      0.2028
     12  C         39.3110  -12.4830  -37.5350 C.2   265  THR265      0.2643
     13  O         38.9350  -12.5100  -36.3410 O.2   265  THR265     -0.2714
     14  CB        40.6820  -10.8950  -38.9690 C.3   265  THR265      0.1808
     15  OG1       40.9970  -11.9220  -39.9360 O.3   265  THR265     -0.2208
     16  CG2       41.7720  -10.8430  -37.8780 C.3   265  THR265      0.0379
     17  N         39.7330  -13.5720  -38.1540 N.am  266  GLY266     -0.1940
     18  CA        39.6980  -14.8680  -37.5200 C.3   266  GLY266      0.1998
     19  C         41.0500  -15.2040  -36.9030 C.2   266  GLY266      0.2480
     20  O         41.9440  -14.3610  -36.8640 O.2   266  GLY266     -0.2729
     21  N         41.2000  -16.4500  -36.4080 N.am  267  PRO267     -0.2726
     22  CA        42.4210  -16.8960  -35.7390 C.3   267  PRO267      0.1402
     23  C         43.6960  -16.8060  -36.5910 C.2   267  PRO267      0.2269
     24  O         44.7720  -16.6630  -36.0480 O.2   267  PRO267     -0.2865
     25  CB        42.1240  -18.3630  -35.3850 C.3   267  PRO267      0.0296
     26  CG        40.9080  -18.7400  -36.1800 C.3   267  PRO267      0.0237
     27  CD        40.1710  -17.4970  -36.4880 C.3   267  PRO267      0.0939
     28  N         41.8130  -14.0860  -42.6050 N.3   271  GLU271     -0.1231
     29  CA        40.4990  -14.5850  -43.0770 C.3   271  GLU271      0.1699
     30  C         39.6130  -13.5830  -43.7620 C.2   271  GLU271      0.2592
     31  O         38.6810  -13.9800  -44.4820 O.2   271  GLU271     -0.2718
     32  CB        39.6540  -15.1360  -41.9200 C.3   271  GLU271      0.0402
     33  CG        40.1220  -16.4080  -41.3920 C.3   271  GLU271      0.1161
     34  CD        41.0830  -16.2440  -40.2650 C.2   271  GLU271      0.3649
     35  OE1       41.6020  -15.1020  -40.0410 O.co2 271  GLU271     -0.2457
     36  OE2       41.3180  -17.2750  -39.6030 O.co2 271  GLU271     -0.2457
     37  N         39.8330  -12.3040  -43.4920 N.am  272  GLY272     -0.1957
     38  CA        38.8590  -11.2680  -43.8920 C.3   272  GLY272      0.1869
     39  C         38.2240  -10.6520  -42.6450 C.2   272  GLY272      0.2309
     40  O         37.9890  -11.3550  -41.6540 O.2   272  GLY272     -0.2863
     41  N         35.1440   -8.7950  -40.5750 N.3   274  ARG274     -0.1245
     42  CA        33.7080   -8.8760  -40.5430 C.3   274  ARG274      0.1563
     43  C         33.2090   -7.9520  -39.4870 C.2   274  ARG274      0.2260
     44  O         33.7610   -7.9250  -38.4110 O.2   274  ARG274     -0.2867
     45  CB        33.2640  -10.3010  -40.2120 C.3   274  ARG274      0.0307
     46  CG        33.5090  -11.2730  -41.3280 C.3   274  ARG274      0.0489
     47  CD        32.9280  -12.6240  -41.0430 C.3   274  ARG274      0.2205
     48  NE        33.1840  -13.5260  -42.1740 N.pl3 274  ARG274     -0.0865
     49  CZ        32.4180  -13.6330  -43.2700 C.cat 274  ARG274      0.5346
     50  NH1       31.3140  -12.9080  -43.4210 N.pl3 274  ARG274      0.1354
     51  NH2       32.7780  -14.4760  -44.2450 N.pl3 274  ARG274      0.1354
     52  N         30.9850   -6.8660  -36.5680 N.3   276  ARG276     -0.1245
     53  CA        30.2420   -7.4930  -35.5040 C.3   276  ARG276      0.1563
     54  C         29.8500   -6.4070  -34.4750 C.2   276  ARG276      0.2260
     55  O         30.5580   -5.4100  -34.2820 O.2   276  ARG276     -0.2867
     56  CB        31.0930   -8.5720  -34.8370 C.3   276  ARG276      0.0307
     57  CG        31.6110   -9.6730  -35.7890 C.3   276  ARG276      0.0489
     58  CD        30.6210  -10.6740  -35.8450 C.3   276  ARG276      0.2205
     59  NE        30.8760  -11.7770  -36.7840 N.pl3 276  ARG276     -0.0865
     60  CZ        30.3860  -11.8540  -38.0160 C.cat 276  ARG276      0.5346
     61  NH1       29.7410  -10.8450  -38.5730 N.pl3 276  ARG276      0.1354
     62  NH2       30.5600  -12.9690  -38.7110 N.pl3 276  ARG276      0.1354
     63  N         30.6760  -11.0640  -29.2800 N.3   287  TYR287     -0.1241
     64  CA        30.4380  -10.4270  -30.5790 C.3   287  TYR287      0.1605
     65  C         29.3290  -11.1690  -31.3290 C.2   287  TYR287      0.2264
     66  O         29.2260  -12.4260  -31.2390 O.2   287  TYR287     -0.2867
     67  CB        31.7310  -10.2570  -31.3960 C.3   287  TYR287      0.0534
     68  CG        32.6030  -11.4530  -31.4950 C.ar  287  TYR287     -0.0201
     69  CD1       32.4230  -12.3760  -32.5340 C.ar  287  TYR287     -0.0009
     70  CD2       33.6260  -11.6680  -30.6020 C.ar  287  TYR287     -0.0009
     71  CE1       33.2250  -13.4670  -32.6520 C.ar  287  TYR287      0.0417
     72  CE2       34.4420  -12.7790  -30.7170 C.ar  287  TYR287      0.0417
     73  CZ        34.2370  -13.6750  -31.7360 C.ar  287  TYR287      0.1957
     74  OH        35.0300  -14.7870  -31.8440 O.3   287  TYR287     -0.2866
     75  N         28.2990  -14.8730  -31.9250 N.3   297  ARG297     -0.1231
     76  CA        29.1910  -15.6680  -32.7860 C.3   297  ARG297      0.1694
     77  C         30.4080  -16.1690  -32.0680 C.2   297  ARG297      0.2592
     78  O         30.9850  -17.1760  -32.4500 O.2   297  ARG297     -0.2718
     79  CB        29.5970  -14.8850  -34.0200 C.3   297  ARG297      0.0321
     80  CG        28.3900  -14.4700  -34.8730 C.3   297  ARG297      0.0489
     81  CD        27.6190  -15.6710  -35.3590 C.3   297  ARG297      0.2205
     82  NE        26.5480  -15.3130  -36.3030 N.pl3 297  ARG297     -0.0865
     83  CZ        26.6720  -15.2470  -37.6330 C.cat 297  ARG297      0.5346
     84  NH1       27.8150  -15.5250  -38.2390 N.pl3 297  ARG297      0.1354
     85  NH2       25.6200  -14.8990  -38.3660 N.pl3 297  ARG297      0.1354
     86  N         30.8310  -15.4570  -31.0280 N.am  298  GLY298     -0.1957
     87  CA        31.9490  -15.8970  -30.2330 C.3   298  GLY298      0.1869
     88  C         32.0380  -15.0720  -28.9640 C.2   298  GLY298      0.2309
     89  O         31.4100  -14.0170  -28.8490 O.2   298  GLY298     -0.2863
     90  N         45.4360  -16.7780  -28.2200 N.3   335  ARG335     -0.1245
     91  CA        45.0940  -16.1390  -29.5140 C.3   335  ARG335      0.1563
     92  C         45.3070  -14.6220  -29.5150 C.2   335  ARG335      0.2260
     93  O         45.0270  -13.9610  -28.5320 O.2   335  ARG335     -0.2867
     94  CB        43.6220  -16.4030  -29.8190 C.3   335  ARG335      0.0307
     95  CG        43.1940  -15.8240  -31.1770 C.3   335  ARG335      0.0489
     96  CD        41.8900  -16.3580  -31.6140 C.3   335  ARG335      0.2205
     97  NE        41.2370  -15.4730  -32.5900 N.pl3 335  ARG335     -0.0865
     98  CZ        40.0270  -15.7030  -33.0650 C.cat 335  ARG335      0.5346
     99  NH1       39.3730  -16.8040  -32.6900 N.pl3 335  ARG335      0.1354
    100  NH2       39.4760  -14.8470  -33.9420 N.pl3 335  ARG335      0.1354
@<TRIPOS>BOND
     1    31    30    2
     2    51    49    1
     3    38    37    1
     4    38    39    1
     5    30    37   am
     6    30    29    1
     7    50    49    1
     8    49    48    2
     9    29    28    1
    10    29    32    1
    11    39    40    2
    12    48    47    1
    13    32    33    1
    14    33    34    1
    15    46    47    1
    16    46    45    1
    17    41    42    1
    18    42    45    1
    19    42    43    1
    20    34    35   ar
    21    34    36   ar
    22    15    14    1
    23    43    44    2
    24    14    11    1
    25    14    16    1
    26    62    60    1
    27     4     3    2
    28    61    60    1
    29    85    83    1
    30    11    12    1
    31    11    10    1
    32    84    83    1
    33    17    12   am
    34    17    18    1
    35    60    59    2
    36     3    10   am
    37     3     2    1
    38    83    82    2
    39    12    13    2
    40    18    19    1
    41     1     2    1
    42    19    20    2
    43    19    21   am
    44    59    58    1
    45     2     5    1
    46    23    24    2
    47    23    22    1
    48    52    53    1
    49    27    21    1
    50    27    26    1
    51    21    22    1
    52    82    81    1
    53    26    25    1
    54    58    57    1
    55    57    56    1
    56    22    25    1
    57     9     8    1
    58    53    56    1
    59    53    54    1
    60     6     5    1
    61     6     7    1
    62    81    80    1
    63    80    79    1
    64    54    55    2
    65     8     7    1
    66    79    76    1
    67   100    98    1
    68    98    99    1
    69    98    97    2
    70    76    77    1
    71    76    75    1
    72    71    69   ar
    73    71    73   ar
    74    97    96    1
    75    69    68   ar
    76    78    77    2
    77    77    86   am
    78    74    73    1
    79    73    72   ar
    80    96    95    1
    81    68    67    1
    82    68    70   ar
    83    67    64    1
    84    65    66    2
    85    65    64    1
    86    95    94    1
    87    86    87    1
    88    72    70   ar
    89    64    63    1
    90    87    88    1
    91    94    91    1
    92    92    91    1
    93    92    93    2
    94    91    90    1
    95    88    89    2
