@<TRIPOS>MOLECULE
tmp/3ljuA01.pdb
 121 115 0 0 0
SMALL
GASTEIGER

@<TRIPOS>ATOM
      1  N          7.9970  -10.9300  -25.0060 N.3   146  LYS146     -0.1231
      2  CA         9.3150  -11.5090  -25.2330 C.3   146  LYS146      0.1693
      3  C          9.6220  -11.6720  -26.7210 C.2   146  LYS146      0.2592
      4  O          8.8390  -12.2490  -27.4150 O.2   146  LYS146     -0.2718
      5  CB         9.4310  -12.8480  -24.5260 C.3   146  LYS146      0.0285
      6  CG        10.7870  -13.5690  -24.7220 C.3   146  LYS146      0.0035
      7  CD        10.7650  -15.0440  -24.3280 C.3   146  LYS146      0.0206
      8  CE        11.8820  -15.8250  -24.9860 C.3   146  LYS146      0.1093
      9  NZ        11.6290  -16.0560  -26.5090 N.3   146  LYS146     -0.1314
     10  N         10.8110  -11.2380  -27.1520 N.am  147  ARG147     -0.1966
     11  CA        11.2270  -11.4460  -28.5500 C.3   147  ARG147      0.1729
     12  C         11.4550  -12.9390  -28.8310 C.2   147  ARG147      0.2617
     13  O         11.9620  -13.6790  -27.9900 O.2   147  ARG147     -0.2715
     14  CB        12.4840  -10.6340  -28.8860 C.3   147  ARG147      0.0348
     15  CG        12.7060  -10.3760  -30.4080 C.3   147  ARG147      0.0492
     16  CD        13.9730   -9.5360  -30.6240 C.3   147  ARG147      0.2205
     17  NE        14.2650   -9.2200  -32.0310 N.pl3 147  ARG147     -0.0865
     18  CZ        13.6930   -8.2310  -32.7040 C.cat 147  ARG147      0.5346
     19  NH1       12.7790   -7.4830  -32.1230 N.pl3 147  ARG147      0.1354
     20  NH2       14.0220   -8.0030  -33.9580 N.pl3 147  ARG147      0.1354
     21  N         11.0880  -13.3830  -30.0340 N.am  148  GLY148     -0.1940
     22  CA        11.4150  -14.7150  -30.4610 C.3   148  GLY148      0.2014
     23  C         12.9210  -14.8410  -30.6550 C.2   148  GLY148      0.2639
     24  O         13.6200  -13.8550  -30.8090 O.2   148  GLY148     -0.2714
     25  N         13.4180  -16.0520  -30.5630 N.am  149  ARG149     -0.1963
     26  CA        14.8410  -16.3490  -30.7390 C.3   149  ARG149      0.1729
     27  C         15.3680  -15.7730  -32.0360 C.2   149  ARG149      0.2616
     28  O         16.4100  -15.0940  -32.0460 O.2   149  ARG149     -0.2715
     29  CB        15.0560  -17.8600  -30.7830 C.3   149  ARG149      0.0348
     30  CG        16.5140  -18.2390  -30.9570 C.3   149  ARG149      0.0492
     31  CD        16.7680  -19.7290  -30.9180 C.3   149  ARG149      0.2205
     32  NE        18.1470  -20.0590  -31.3280 N.pl3 149  ARG149     -0.0865
     33  CZ        18.7210  -21.2610  -31.2350 C.cat 149  ARG149      0.5346
     34  NH1       18.0910  -22.3030  -30.6590 N.pl3 149  ARG149      0.1354
     35  NH2       19.9710  -21.4150  -31.6720 N.pl3 149  ARG149      0.1354
     36  N         14.6650  -16.0800  -33.1290 N.am  150  ASP150     -0.1957
     37  CA        15.0740  -15.6650  -34.4820 C.3   150  ASP150      0.1840
     38  C         14.0200  -14.9020  -35.2840 C.2   150  ASP150      0.2622
     39  O         14.3620  -14.3420  -36.3160 O.2   150  ASP150     -0.2715
     40  CB        15.4430  -16.9010  -35.3310 C.3   150  ASP150      0.1450
     41  CG        16.6070  -17.6870  -34.7650 C.2   150  ASP150      0.3671
     42  OD1       17.6380  -17.0660  -34.3890 O.co2 150  ASP150     -0.2456
     43  OD2       16.5050  -18.9370  -34.7240 O.co2 150  ASP150     -0.2456
     44  N         12.7590  -14.8870  -34.8440 N.am  151  ASN151     -0.1972
     45  CA        11.6480  -14.4470  -35.6960 C.3   151  ASN151      0.1688
     46  C         11.2750  -12.9450  -35.6940 C.2   151  ASN151      0.2292
     47  O         10.3800  -12.5360  -36.4300 O.2   151  ASN151     -0.2864
     48  CB        10.4040  -15.3030  -35.4250 C.3   151  ASN151      0.1181
     49  CG         9.7770  -15.0240  -34.0710 C.2   151  ASN151      0.2629
     50  OD1       10.1280  -14.0420  -33.4160 O.2   151  ASN151     -0.2716
     51  ND2        8.8230  -15.8870  -33.6480 N.am  151  ASN151     -0.0877
     52  N          6.0190  -11.8180  -28.2740 N.3   155  LEU155     -0.1245
     53  CA         4.8640  -12.5570  -27.8520 C.3   155  LEU155      0.1561
     54  C          4.7190  -12.5260  -26.3380 C.2   155  LEU155      0.2260
     55  O          5.7050  -12.3990  -25.6110 O.2   155  LEU155     -0.2867
     56  CB         4.9660  -14.0020  -28.3190 C.3   155  LEU155      0.0270
     57  CG         5.0490  -14.1210  -29.8640 C.3   155  LEU155      0.0019
     58  CD1        5.2110  -15.5410  -30.2420 C.3   155  LEU155      0.0001
     59  CD2        3.7860  -13.5310  -30.4880 C.3   155  LEU155      0.0001
     60  N          4.4210  -13.8520  -22.7570 N.3   157  ARG157     -0.1245
     61  CA         4.8810  -15.0310  -22.0470 C.3   157  ARG157      0.1563
     62  C          4.8010  -14.7640  -20.5420 C.2   157  ARG157      0.2260
     63  O          5.1050  -13.6620  -20.0980 O.2   157  ARG157     -0.2867
     64  CB         6.3360  -15.2790  -22.4180 C.3   157  ARG157      0.0307
     65  CG         6.5950  -15.4830  -23.8880 C.3   157  ARG157      0.0489
     66  CD         6.1130  -16.7980  -24.2650 C.3   157  ARG157      0.2205
     67  NE         6.1960  -17.1010  -25.7090 N.pl3 157  ARG157     -0.0865
     68  CZ         5.1670  -17.2090  -26.5510 C.cat 157  ARG157      0.5346
     69  NH1        3.9340  -16.8880  -26.2080 N.pl3 157  ARG157      0.1354
     70  NH2        5.3960  -17.6140  -27.7850 N.pl3 157  ARG157      0.1354
     71  N         10.2590  -19.1310  -17.5460 N.3   170  TYR170     -0.1241
     72  CA         9.1270  -18.6800  -18.2910 C.3   170  TYR170      0.1605
     73  C          8.4710  -19.8120  -19.0470 C.2   170  TYR170      0.2264
     74  O          9.0500  -20.9030  -19.2190 O.2   170  TYR170     -0.2867
     75  CB         9.4830  -17.5450  -19.2360 C.3   170  TYR170      0.0534
     76  CG        10.4650  -17.8920  -20.3430 C.ar  170  TYR170     -0.0201
     77  CD1       10.0220  -18.2250  -21.6140 C.ar  170  TYR170     -0.0009
     78  CD2       11.8290  -17.8010  -20.1390 C.ar  170  TYR170     -0.0009
     79  CE1       10.9030  -18.4810  -22.6320 C.ar  170  TYR170      0.0417
     80  CE2       12.7610  -18.1180  -21.1700 C.ar  170  TYR170      0.0417
     81  CZ        12.2850  -18.4280  -22.4010 C.ar  170  TYR170      0.1957
     82  OH        13.1760  -18.7090  -23.4120 O.3   170  TYR170     -0.2866
     83  N          5.7630  -20.8780  -22.4090 N.3   172  ASN172     -0.1240
     84  CA         5.2860  -20.4830  -23.7120 C.3   172  ASN172      0.1653
     85  C          4.0670  -21.2900  -24.1930 C.2   172  ASN172      0.2266
     86  O          3.7160  -21.1780  -25.3810 O.2   172  ASN172     -0.2867
     87  CB         6.4350  -20.4780  -24.7330 C.3   172  ASN172      0.1155
     88  CG         6.8280  -21.8380  -25.1780 C.2   172  ASN172      0.2627
     89  OD1        6.5920  -22.8160  -24.4770 O.2   172  ASN172     -0.2716
     90  ND2        7.4590  -21.9160  -26.3490 N.am  172  ASN172     -0.0877
     91  N          9.3700  -23.3670  -20.3440 N.3   175  LYS175     -0.1245
     92  CA        10.1720  -23.3940  -21.5560 C.3   175  LYS175      0.1561
     93  C         11.6560  -23.3260  -21.1810 C.2   175  LYS175      0.2260
     94  O         12.5020  -23.9630  -21.8220 O.2   175  LYS175     -0.2867
     95  CB         9.8020  -22.2130  -22.4390 C.3   175  LYS175      0.0271
     96  CG        10.6680  -22.0560  -23.6720 C.3   175  LYS175      0.0035
     97  CD        10.5430  -23.2210  -24.6200 C.3   175  LYS175      0.0206
     98  CE        11.1120  -22.8900  -26.0040 C.3   175  LYS175      0.1093
     99  NZ        12.5340  -23.2170  -26.0980 N.3   175  LYS175     -0.1314
    100  N         22.9900  -16.6660  -23.6010 N.3   209  ARG209     -0.1245
    101  CA        21.7240  -16.3370  -24.2740 C.3   209  ARG209      0.1563
    102  C         21.2380  -14.9390  -23.9490 C.2   209  ARG209      0.2260
    103  O         21.1950  -14.5720  -22.7860 O.2   209  ARG209     -0.2867
    104  CB        20.6360  -17.3300  -23.8380 C.3   209  ARG209      0.0307
    105  CG        19.2960  -17.1060  -24.3640 C.3   209  ARG209      0.0489
    106  CD        19.2330  -17.1500  -25.8670 C.3   209  ARG209      0.2205
    107  NE        17.9950  -16.6180  -26.3680 N.pl3 209  ARG209     -0.0865
    108  CZ        16.8570  -17.2780  -26.6140 C.cat 209  ARG209      0.5346
    109  NH1       16.7340  -18.5790  -26.3900 N.pl3 209  ARG209      0.1354
    110  NH2       15.8360  -16.6110  -27.1230 N.pl3 209  ARG209      0.1354
    111  N         22.2010  -15.4980  -29.6670 N.3   295  PHE295     -0.1241
    112  CA        23.5260  -15.9890  -29.3070 C.3   295  PHE295      0.1605
    113  C         24.6690  -15.2760  -30.0470 C.2   295  PHE295      0.2264
    114  O         24.5130  -14.8160  -31.1830 O.2   295  PHE295     -0.2867
    115  CB        23.6160  -17.4690  -29.6310 C.3   295  PHE295      0.0534
    116  CG        22.7440  -18.3440  -28.7720 C.ar  295  PHE295     -0.0203
    117  CD1       21.5560  -18.8770  -29.2700 C.ar  295  PHE295     -0.0042
    118  CD2       23.0990  -18.6310  -27.4650 C.ar  295  PHE295     -0.0042
    119  CE1       20.7460  -19.6940  -28.4600 C.ar  295  PHE295     -0.0003
    120  CE2       22.3100  -19.4550  -26.6870 C.ar  295  PHE295     -0.0003
    121  CZ        21.1390  -19.9690  -27.1790 C.ar  295  PHE295     -0.0000
@<TRIPOS>BOND
     1    47    46    2
     2    39    38    2
     3    45    46    1
     4    45    48    1
     5    45    44    1
     6    48    49    1
     7    40    41    1
     8    40    37    1
     9    38    44   am
    10    38    37    1
    11    41    43   ar
    12    41    42   ar
    13    37    36    1
    14    49    51   am
    15    49    50    2
    16    20    18    1
    17    36    27   am
    18    18    19    1
    19    18    17    2
    20    28    27    2
    21    27    26    1
    22    17    16    1
    23    35    33    1
    24    32    33    2
    25    32    31    1
    26    33    34    1
    27   114   113    2
    28    30    31    1
    29    30    29    1
    30    24    23    2
    31    29    26    1
    32    26    25    1
    33    23    25   am
    34    23    22    1
    35    16    15    1
    36    59    57    1
    37    22    21    1
    38    15    14    1
    39    58    57    1
    40   113   112    1
    41    21    12   am
    42    57    56    1
    43   111   112    1
    44   115   112    1
    45   115   116    1
    46   117   116   ar
    47   117   119   ar
    48    14    11    1
    49    12    11    1
    50    12    13    2
    51   116   118   ar
    52    11    10    1
    53   119   121   ar
    54    56    53    1
    55    52    53    1
    56    53    54    1
    57    70    68    1
    58   118   120   ar
    59     4     3    2
    60   121   120   ar
    61    10     3   am
    62   110   108    1
    63     3     2    1
    64   108   109    1
    65   108   107    2
    66    68    69    1
    67    68    67    2
    68     9     8    1
    69   107   106    1
    70    90    88   am
    71    54    55    2
    72    99    98    1
    73    98    97    1
    74   106   105    1
    75    67    66    1
    76    86    85    2
    77     2     1    1
    78     2     5    1
    79    88    87    1
    80    88    89    2
    81     8     7    1
    82    87    84    1
    83     6     5    1
    84     6     7    1
    85    97    96    1
    86   105   104    1
    87   101   102    1
    88   101   104    1
    89   101   100    1
    90    66    65    1
    91    85    84    1
    92   102   103    2
    93    65    64    1
    94    84    83    1
    95    96    95    1
    96    82    81    1
    97    60    61    1
    98    79    81   ar
    99    79    77   ar
   100    95    92    1
   101    64    61    1
   102    81    80   ar
   103    61    62    1
   104    94    93    2
   105    77    76   ar
   106    92    93    1
   107    92    91    1
   108    80    78   ar
   109    62    63    2
   110    76    78   ar
   111    76    75    1
   112    75    72    1
   113    74    73    2
   114    73    72    1
   115    72    71    1
