@<TRIPOS>MOLECULE
tmp/3ljyC00.pdb
 68 64 0 0 0
SMALL
GASTEIGER

@<TRIPOS>ATOM
      1  N         20.0870   34.8300   25.0630 N.3   103  THR103     -0.1203
      2  CA        20.3870   33.5280   25.6560 C.3   103  THR103      0.1994
      3  C         19.7550   32.4300   24.8100 C.2   103  THR103      0.2618
      4  O         18.6940   32.6190   24.2390 O.2   103  THR103     -0.2717
      5  CB        19.8570   33.4410   27.1210 C.3   103  THR103      0.1784
      6  OG1       20.1850   34.6620   27.8060 O.3   103  THR103     -0.2211
      7  CG2       20.4910   32.2660   27.8790 C.3   103  THR103      0.0376
      8  N         20.4090   31.2820   24.7320 N.am  104  GLY104     -0.1942
      9  CA        19.8390   30.1100   24.0570 C.3   104  GLY104      0.2014
     10  C         20.8900   29.1200   23.6140 C.2   104  GLY104      0.2638
     11  O         22.0490   29.2610   23.9680 O.2   104  GLY104     -0.2714
     12  N         20.4790   28.1220   22.8290 N.am  105  ASP105     -0.1971
     13  CA        21.3490   26.9760   22.5000 C.3   105  ASP105      0.1709
     14  C         22.3960   27.3520   21.4230 C.2   105  ASP105      0.2293
     15  O         23.6040   27.2010   21.6260 O.2   105  ASP105     -0.2864
     16  CB        20.4940   25.7440   22.0910 C.3   105  ASP105      0.1436
     17  CG        21.3170   24.4760   21.9480 C.2   105  ASP105      0.3671
     18  OD1       21.9370   24.2700   20.8830 O.co2 105  ASP105     -0.2456
     19  OD2       21.3080   23.6590   22.9000 O.co2 105  ASP105     -0.2456
     20  N         24.7460   34.7820   25.8720 N.3   124  THR124     -0.1203
     21  CA        25.0500   33.5440   26.6110 C.3   124  THR124      0.1994
     22  C         24.4610   32.3570   25.8370 C.2   124  THR124      0.2618
     23  O         23.2640   32.0860   25.9020 O.2   124  THR124     -0.2717
     24  CB        24.4900   33.5980   28.0810 C.3   124  THR124      0.1784
     25  OG1       24.8520   34.8550   28.6510 O.3   124  THR124     -0.2211
     26  CG2       25.0500   32.4840   28.9820 C.3   124  THR124      0.0376
     27  N         25.2990   31.6730   25.0760 N.am  125  VAL125     -0.1965
     28  CA        24.8180   30.6340   24.1740 C.3   125  VAL125      0.1727
     29  C         25.7220   29.4030   24.1910 C.2   125  VAL125      0.2616
     30  O         26.8850   29.4790   24.5950 O.2   125  VAL125     -0.2715
     31  CB        24.6890   31.1550   22.6780 C.3   125  VAL125      0.0290
     32  CG1       23.5690   32.1880   22.5210 C.3   125  VAL125      0.0023
     33  CG2       25.9970   31.6950   22.2160 C.3   125  VAL125      0.0023
     34  N         25.1820   28.2700   23.7530 N.am  126  GLY126     -0.1955
     35  CA        25.9800   27.0850   23.5780 C.3   126  GLY126      0.1869
     36  C         26.9680   27.3430   22.4580 C.2   126  GLY126      0.2309
     37  O         28.1520   27.1410   22.6290 O.2   126  GLY126     -0.2863
     38  N         29.4630   34.8610   26.3490 N.3   143  GLU143     -0.1231
     39  CA        29.7930   33.7300   27.2330 C.3   143  GLU143      0.1699
     40  C         29.2450   32.4910   26.5490 C.2   143  GLU143      0.2592
     41  O         28.0420   32.3100   26.4780 O.2   143  GLU143     -0.2718
     42  CB        29.2020   33.9000   28.6270 C.3   143  GLU143      0.0402
     43  CG        29.5750   35.2210   29.2980 C.3   143  GLU143      0.1161
     44  CD        31.0040   35.2890   29.8460 C.2   143  GLU143      0.3649
     45  OE1       31.7300   34.2550   29.8670 O.co2 143  GLU143     -0.2457
     46  OE2       31.3920   36.4110   30.2830 O.co2 143  GLU143     -0.2457
     47  N         30.1310   31.6690   26.0000 N.am  144  ALA144     -0.1966
     48  CA        29.7270   30.5700   25.1100 C.3   144  ALA144      0.1728
     49  C         30.5000   29.2990   25.3910 C.2   144  ALA144      0.2616
     50  O         31.5470   29.3470   25.9850 O.2   144  ALA144     -0.2715
     51  CB        29.9170   31.0020   23.6250 C.3   144  ALA144      0.0334
     52  N         29.9600   28.1690   24.9610 N.am  145  ASP145     -0.1971
     53  CA        30.7150   26.9270   24.9030 C.3   145  ASP145      0.1709
     54  C         31.6040   26.9200   23.6690 C.2   145  ASP145      0.2293
     55  O         32.7480   26.4690   23.7290 O.2   145  ASP145     -0.2864
     56  CB        29.7890   25.7080   24.8970 C.3   145  ASP145      0.1436
     57  CG        29.0530   25.5180   26.2070 C.2   145  ASP145      0.3671
     58  OD1       29.6090   25.7960   27.2800 O.co2 145  ASP145     -0.2456
     59  OD2       27.9080   25.0520   26.1630 O.co2 145  ASP145     -0.2456
     60  N         34.5870   28.4170   25.5080 N.3   165  LYS165     -0.1245
     61  CA        35.4070   27.2070   25.8640 C.3   165  LYS165      0.1561
     62  C         36.2580   26.6690   24.7030 C.2   165  LYS165      0.2260
     63  O         37.3450   26.1470   24.9130 O.2   165  LYS165     -0.2867
     64  CB        34.5420   26.0640   26.4170 C.3   165  LYS165      0.0271
     65  CG        33.9740   26.3110   27.8140 C.3   165  LYS165      0.0035
     66  CD        32.8110   25.3330   28.1190 C.3   165  LYS165      0.0206
     67  CE        32.0020   25.6430   29.4160 C.3   165  LYS165      0.1093
     68  NZ        32.3700   24.7540   30.6120 N.3   165  LYS165     -0.1314
@<TRIPOS>BOND
     1    18    17   ar
     2    14    15    2
     3    14    13    1
     4    17    16    1
     5    17    19   ar
     6    16    13    1
     7    33    31    1
     8    36    37    2
     9    36    35    1
    10    13    12    1
    11    32    31    1
    12    31    28    1
    13    12    10   am
    14    35    34    1
    15    10    11    2
    16    10     9    1
    17    51    48    1
    18    54    55    2
    19    54    53    1
    20    34    29   am
    21     9     8    1
    22    28    29    1
    23    28    27    1
    24    29    30    2
    25     4     3    2
    26    62    63    2
    27    62    61    1
    28     8     3   am
    29     3     2    1
    30    56    53    1
    31    56    57    1
    32    53    52    1
    33    52    49   am
    34     1     2    1
    35    27    22   am
    36    48    49    1
    37    48    47    1
    38    49    50    2
    39    60    61    1
    40     2     5    1
    41    22    23    2
    42    22    21    1
    43    61    64    1
    44    20    21    1
    45    47    40   am
    46    59    57   ar
    47    57    58   ar
    48    38    39    1
    49    64    65    1
    50    41    40    2
    51    40    39    1
    52    21    24    1
    53     5     6    1
    54     5     7    1
    55    39    42    1
    56    65    66    1
    57    24    25    1
    58    24    26    1
    59    66    67    1
    60    42    43    1
    61    43    44    1
    62    67    68    1
    63    44    45   ar
    64    44    46   ar
