@<TRIPOS>MOLECULE
tmp/3ljzC01.pdb
 186 185 0 0 0
SMALL
GASTEIGER

@<TRIPOS>ATOM
      1  N          4.5300   79.5290   66.2280 N.3    80  GLY80      -0.1210
      2  CA         5.1490   78.3520   66.8250 C.3    80  GLY80       0.1956
      3  C          6.2260   78.7950   67.7990 C.2    80  GLY80       0.2612
      4  O          6.0240   79.7440   68.5680 O.2    80  GLY80      -0.2717
      5  N          7.3750   78.1270   67.7520 N.am   81  LEU81      -0.1965
      6  CA         8.5020   78.4600   68.6060 C.3    81  LEU81       0.1728
      7  C          9.0240   79.8660   68.3120 C.2    81  LEU81       0.2616
      8  O          9.2440   80.2140   67.1450 O.2    81  LEU81      -0.2715
      9  CB         9.6220   77.4500   68.3840 C.3    81  LEU81       0.0311
     10  CG        10.8960   77.6260   69.2140 C.3    81  LEU81       0.0022
     11  CD1       10.6270   77.2360   70.6530 C.3    81  LEU81       0.0001
     12  CD2       12.0350   76.7960   68.6010 C.3    81  LEU81       0.0001
     13  N          9.2450   80.6480   69.3700 N.am   82  LEU82      -0.1963
     14  CA         9.6320   82.0580   69.2500 C.3    82  LEU82       0.1728
     15  C         11.1090   82.3080   69.5240 C.2    82  LEU82       0.2616
     16  O         11.7050   83.2090   68.9450 O.2    82  LEU82      -0.2715
     17  CB         8.8320   82.8930   70.2430 C.3    82  LEU82       0.0311
     18  CG         7.3150   82.8110   70.1850 C.3    82  LEU82       0.0022
     19  CD1        6.7250   83.5470   71.4020 C.3    82  LEU82       0.0001
     20  CD2        6.7860   83.3780   68.8730 C.3    82  LEU82       0.0001
     21  N         11.6800   81.5300   70.4330 N.am   83  ALA83      -0.1963
     22  CA        13.0210   81.7690   70.9310 C.3    83  ALA83       0.1728
     23  C         13.4520   80.5920   71.7820 C.2    83  ALA83       0.2616
     24  O         12.6250   79.7710   72.1850 O.2    83  ALA83      -0.2715
     25  CB        13.0680   83.0340   71.7710 C.3    83  ALA83       0.0334
     26  N         14.7460   80.5220   72.0680 N.am   84  HIS84      -0.1959
     27  CA        15.2330   79.5780   73.0600 C.3    84  HIS84       0.1787
     28  C         16.5470   80.0320   73.6610 C.2    84  HIS84       0.2620
     29  O         17.1750   80.9700   73.1590 O.2    84  HIS84      -0.2715
     30  CB        15.3340   78.1480   72.5070 C.3    84  HIS84       0.0785
     31  CG        16.1940   77.9980   71.2920 C.ar   84  HIS84       0.0821
     32  ND1       15.7870   77.2730   70.1910 N.ar   84  HIS84      -0.2267
     33  CD2       17.4520   78.4200   71.0190 C.ar   84  HIS84       0.1154
     34  CE1       16.7510   77.2670   69.2910 C.ar   84  HIS84       0.1986
     35  NE2       17.7710   77.9580   69.7660 N.ar   84  HIS84      -0.2212
     36  N         16.9340   79.3800   74.7590 N.am   85  ALA85      -0.1977
     37  CA        18.1410   79.7440   75.4910 C.3    85  ALA85       0.1597
     38  C         18.7360   78.5650   76.2280 C.2    85  ALA85       0.2287
     39  O         18.0710   77.5600   76.4720 O.2    85  ALA85      -0.2864
     40  CB        17.8730   80.8730   76.4370 C.3    85  ALA85       0.0319
     41  N          5.0540   89.7080   68.5440 N.3   111  TYR111     -0.1241
     42  CA         5.5450   89.2220   69.8140 C.3   111  TYR111      0.1605
     43  C          6.4240   90.3170   70.4370 C.2   111  TYR111      0.2264
     44  O          7.3400   90.8350   69.7930 O.2   111  TYR111     -0.2867
     45  CB         6.2790   87.8880   69.6070 C.3   111  TYR111      0.0534
     46  CG         5.3140   86.7840   69.2360 C.ar  111  TYR111     -0.0201
     47  CD1        4.5790   86.1260   70.2210 C.ar  111  TYR111     -0.0009
     48  CD2        5.0580   86.4650   67.9050 C.ar  111  TYR111     -0.0009
     49  CE1        3.6610   85.1450   69.9050 C.ar  111  TYR111      0.0417
     50  CE2        4.1240   85.4780   67.5680 C.ar  111  TYR111      0.0417
     51  CZ         3.4360   84.8170   68.5810 C.ar  111  TYR111      0.1957
     52  OH         2.5140   83.8360   68.2840 O.3   111  TYR111     -0.2866
     53  N          9.2650   90.9400   76.6280 N.3   115  LEU115     -0.1231
     54  CA         8.6530   89.8160   77.3490 C.3   115  LEU115      0.1693
     55  C          9.2990   88.4730   77.0240 C.2   115  LEU115      0.2591
     56  O          9.5470   87.6590   77.9220 O.2   115  LEU115     -0.2718
     57  CB         7.1520   89.7470   77.0840 C.3   115  LEU115      0.0284
     58  CG         6.3610   90.9190   77.6580 C.3   115  LEU115      0.0019
     59  CD1        4.8990   90.8310   77.2360 C.3   115  LEU115      0.0001
     60  CD2        6.5000   90.9830   79.1800 C.3   115  LEU115      0.0001
     61  N          9.5890   88.2380   75.7500 N.am  116  VAL116     -0.1980
     62  CA        10.2260   86.9890   75.3520 C.3   116  VAL116      0.1595
     63  C         11.6650   86.8960   75.9010 C.2   116  VAL116      0.2287
     64  O         12.0710   85.8540   76.3970 O.2   116  VAL116     -0.2864
     65  CB        10.2270   86.8050   73.8200 C.3   116  VAL116      0.0276
     66  CG1       10.9870   85.5490   73.4600 C.3   116  VAL116      0.0022
     67  CG2        8.7750   86.7440   73.2890 C.3   116  VAL116      0.0022
     68  N         11.7500   86.0780   79.6220 N.3   119  HIS119     -0.1226
     69  CA        11.5540   84.6450   79.8240 C.3   119  HIS119      0.1752
     70  C         12.8360   83.8780   79.4980 C.2   119  HIS119      0.2595
     71  O         13.3100   83.0850   80.3120 O.2   119  HIS119     -0.2718
     72  CB        10.4000   84.1590   78.9570 C.3   119  HIS119      0.0759
     73  CG        10.1860   82.6820   78.9820 C.ar  119  HIS119      0.0818
     74  ND1        9.3080   82.0700   79.8460 N.ar  119  HIS119     -0.2268
     75  CD2       10.7180   81.6960   78.2230 C.ar  119  HIS119      0.1154
     76  CE1        9.3150   80.7650   79.6210 C.ar  119  HIS119      0.1986
     77  NE2       10.1530   80.5160   78.6320 N.ar  119  HIS119     -0.2212
     78  N         13.4090   84.1170   78.3230 N.am  120  GLU120     -0.1979
     79  CA        14.6260   83.3890   77.9240 C.3   120  GLU120      0.1602
     80  C         15.8040   83.6160   78.8680 C.2   120  GLU120      0.2287
     81  O         16.5260   82.6790   79.1860 O.2   120  GLU120     -0.2864
     82  CB        15.0620   83.7440   76.4990 C.3   120  GLU120      0.0415
     83  CG        14.0680   83.3890   75.4030 C.3   120  GLU120      0.1163
     84  CD        13.5460   81.9780   75.4910 C.2   120  GLU120      0.3649
     85  OE1       14.3240   81.0510   75.8120 O.co2 120  GLU120     -0.2457
     86  OE2       12.3480   81.7940   75.2120 O.co2 120  GLU120     -0.2457
     87  N         15.9540   81.2580   81.6450 N.3   123  HIS123     -0.1241
     88  CA        16.6730   80.0440   81.2630 C.3   123  HIS123      0.1621
     89  C         18.2030   80.2600   81.3590 C.2   123  HIS123      0.2264
     90  O         18.9100   79.4680   81.9740 O.2   123  HIS123     -0.2867
     91  CB        16.2970   79.6010   79.8480 C.3   123  HIS123      0.0745
     92  CG        14.8800   79.1090   79.6820 C.ar  123  HIS123      0.0817
     93  ND1       14.3570   78.0650   80.4130 N.ar  123  HIS123     -0.2268
     94  CD2       13.9210   79.4500   78.7840 C.ar  123  HIS123      0.1154
     95  CE1       13.1270   77.8050   79.9930 C.ar  123  HIS123      0.1986
     96  NE2       12.8370   78.6300   79.0020 N.ar  123  HIS123     -0.2212
     97  N         11.1190   75.6900   83.1650 N.3   129  HIS129     -0.1241
     98  CA         9.7450   76.1490   83.0280 C.3   129  HIS129      0.1621
     99  C          8.9520   75.9490   84.3080 C.2   129  HIS129      0.2264
    100  O          9.1650   74.9810   85.0290 O.2   129  HIS129     -0.2867
    101  CB         9.0580   75.4490   81.8570 C.3   129  HIS129      0.0745
    102  CG         9.4900   75.9630   80.5220 C.ar  129  HIS129      0.0817
    103  ND1        9.7150   75.1380   79.4410 N.ar  129  HIS129     -0.2268
    104  CD2        9.7530   77.2220   80.0980 C.ar  129  HIS129      0.1154
    105  CE1       10.0900   75.8700   78.4040 C.ar  129  HIS129      0.1986
    106  NE2       10.1240   77.1390   78.7790 N.ar  129  HIS129     -0.2212
    107  N          0.5520   81.8010   85.7360 N.3   134  GLY134     -0.1210
    108  CA         0.7810   83.2360   85.8820 C.3   134  GLY134      0.1956
    109  C          2.2480   83.6060   85.9130 C.2   134  GLY134      0.2612
    110  O          2.5810   84.7890   85.8770 O.2   134  GLY134     -0.2717
    111  N          3.1310   82.6080   85.9690 N.am  135  ALA135     -0.1965
    112  CA         4.5760   82.8620   86.0430 C.3   135  ALA135      0.1728
    113  C          5.1420   83.3070   84.7070 C.2   135  ALA135      0.2616
    114  O          4.6250   82.9490   83.6510 O.2   135  ALA135     -0.2715
    115  CB         5.3170   81.6230   86.5240 C.3   135  ALA135      0.0334
    116  N          6.2210   84.0830   84.7710 N.am  136  LEU136     -0.1977
    117  CA         6.9840   84.4690   83.5900 C.3   136  LEU136      0.1596
    118  C          7.6430   83.2610   82.9200 C.2   136  LEU136      0.2287
    119  O          7.8220   83.2480   81.7010 O.2   136  LEU136     -0.2864
    120  CB         8.0520   85.4970   83.9730 C.3   136  LEU136      0.0297
    121  CG         9.0740   85.8960   82.9110 C.3   136  LEU136      0.0022
    122  CD1        8.3940   86.3090   81.6040 C.3   136  LEU136      0.0001
    123  CD2        9.9600   87.0140   83.4510 C.3   136  LEU136      0.0001
    124  N          6.3690   80.2920   82.7110 N.3   138  PHE138     -0.1228
    125  CA         5.3640   79.4360   82.0730 C.3   138  PHE138      0.1721
    126  C          5.7380   79.2780   80.5760 C.2   138  PHE138      0.2437
    127  O          6.2190   80.2210   79.9590 O.2   138  PHE138     -0.2733
    128  CB         3.9630   80.0540   82.2730 C.3   138  PHE138      0.0547
    129  CG         2.8230   79.1200   81.9560 C.ar  138  PHE138     -0.0202
    130  CD1        2.6100   77.9790   82.7170 C.ar  138  PHE138     -0.0042
    131  CD2        1.9620   79.3840   80.8910 C.ar  138  PHE138     -0.0042
    132  CE1        1.5580   77.1040   82.4140 C.ar  138  PHE138     -0.0003
    133  CE2        0.9130   78.5190   80.5810 C.ar  138  PHE138     -0.0003
    134  CZ         0.7100   77.3770   81.3450 C.ar  138  PHE138     -0.0000
    135  N          5.5600   78.0770   79.9960 N.am  139  PRO139     -0.2718
    136  CA         6.0840   77.8160   78.6390 C.3   139  PRO139      0.1535
    137  C          5.3380   78.4650   77.4610 C.2   139  PRO139      0.2598
    138  O          5.8250   78.3890   76.3360 O.2   139  PRO139     -0.2715
    139  CB         6.0150   76.2760   78.5230 C.3   139  PRO139      0.0310
    140  CG         5.0320   75.8580   79.5050 C.3   139  PRO139      0.0237
    141  CD         5.0900   76.8390   80.6380 C.3   139  PRO139      0.0939
    142  N          4.1890   79.0900   77.7170 N.am  140  ILE140     -0.1964
    143  CA         3.3540   79.6910   76.6730 C.3   140  ILE140      0.1727
    144  C          3.3130   81.2220   76.8110 C.2   140  ILE140      0.2616
    145  O          2.9850   81.7590   77.8770 O.2   140  ILE140     -0.2715
    146  CB         1.9150   79.1280   76.7380 C.3   140  ILE140      0.0290
    147  CG1        1.9000   77.6440   76.3460 C.3   140  ILE140      0.0022
    148  CG2        0.9610   79.9130   75.8260 C.3   140  ILE140      0.0023
    149  CD1        0.6400   76.9020   76.8070 C.3   140  ILE140      0.0001
    150  N          3.6510   81.9150   75.7240 N.am  141  TYR141     -0.1960
    151  CA         3.6200   83.3680   75.6860 C.3   141  TYR141      0.1771
    152  C          2.2060   83.9290   75.8310 C.2   141  TYR141      0.2620
    153  O          1.2540   83.4490   75.2130 O.2   141  TYR141     -0.2715
    154  CB         4.2370   83.8740   74.3760 C.3   141  TYR141      0.0574
    155  CG         4.1040   85.3570   74.1380 C.ar  141  TYR141     -0.0198
    156  CD1        5.1400   86.2150   74.4430 C.ar  141  TYR141     -0.0009
    157  CD2        2.9440   85.9010   73.5790 C.ar  141  TYR141     -0.0009
    158  CE1        5.0370   87.5830   74.2180 C.ar  141  TYR141      0.0417
    159  CE2        2.8300   87.2720   73.3500 C.ar  141  TYR141      0.0417
    160  CZ         3.8910   88.1050   73.6750 C.ar  141  TYR141      0.1957
    161  OH         3.8170   89.4590   73.4530 O.3   141  TYR141     -0.2866
    162  N          2.0830   84.9620   76.6510 N.am  142  THR142     -0.1951
    163  CA         0.8680   85.7680   76.6850 C.3   142  THR142      0.1897
    164  C          1.2990   87.2120   76.9080 C.2   142  THR142      0.2313
    165  O          2.3280   87.4630   77.5270 O.2   142  THR142     -0.2863
    166  CB        -0.0980   85.2820   77.7820 C.3   142  THR142      0.1794
    167  OG1       -1.3310   86.0260   77.7100 O.3   142  THR142     -0.2208
    168  CG2        0.5530   85.4020   79.1770 C.3   142  THR142      0.0378
    169  N          1.3580   90.8490   78.4750 N.3   144  THR144     -0.1218
    170  CA         0.9750   91.7580   79.5480 C.3   144  THR144      0.1862
    171  C          1.5950   93.1300   79.2870 C.2   144  THR144      0.2287
    172  O          2.7590   93.2300   78.9070 O.2   144  THR144     -0.2866
    173  CB         1.4170   91.2340   80.9290 C.3   144  THR144      0.1770
    174  OG1        2.8470   91.2830   81.0420 O.3   144  THR144     -0.2211
    175  CG2        0.9380   89.7990   81.1370 C.3   144  THR144      0.0375
    176  N          6.1350   96.1830   84.2880 N.3   149  PHE149     -0.1241
    177  CA         5.5820   94.8180   84.4310 C.3   149  PHE149      0.1605
    178  C          6.2150   94.2350   85.6950 C.2   149  PHE149      0.2264
    179  O          7.3670   94.5530   86.0060 O.2   149  PHE149     -0.2867
    180  CB         5.8200   93.9660   83.1500 C.3   149  PHE149      0.0534
    181  CG         6.3410   92.5640   83.4070 C.ar  149  PHE149     -0.0203
    182  CD1        5.5170   91.4560   83.2360 C.ar  149  PHE149     -0.0042
    183  CD2        7.6600   92.3530   83.8060 C.ar  149  PHE149     -0.0042
    184  CE1        5.9970   90.1670   83.4710 C.ar  149  PHE149     -0.0003
    185  CE2        8.1370   91.0750   84.0430 C.ar  149  PHE149     -0.0003
    186  CZ         7.3040   89.9840   83.8750 C.ar  149  PHE149     -0.0000
@<TRIPOS>BOND
     1     1     2    1
     2     2     3    1
     3     8     7    2
     4    50    48   ar
     5    50    51   ar
     6     5     3   am
     7     5     6    1
     8     3     4    2
     9    48    46   ar
    10    52    51    1
    11     7     6    1
    12     7    13   am
    13     9     6    1
    14     9    10    1
    15    41    42    1
    16    51    49   ar
    17    12    10    1
    18    20    18    1
    19    16    15    2
    20    10    11    1
    21    46    45    1
    22    46    47   ar
    23    14    13    1
    24    14    15    1
    25    14    17    1
    26    34    35   ar
    27    34    32   ar
    28    15    21   am
    29    45    42    1
    30    35    33   ar
    31    44    43    2
    32    42    43    1
    33    49    47   ar
    34    18    17    1
    35    18    19    1
    36    32    31   ar
    37    21    22    1
    38    22    25    1
    39    22    23    1
    40    33    31   ar
    41    31    30    1
    42    23    26   am
    43    23    24    2
    44    26    27    1
    45    30    27    1
    46    27    28    1
    47    29    28    2
    48    67    65    1
    49   159   157   ar
    50   159   160   ar
    51   161   160    1
    52    66    65    1
    53   157   155   ar
    54    28    36   am
    55   160   158   ar
    56    65    62    1
    57   155   154    1
    58   155   156   ar
    59   158   156   ar
    60   154   151    1
    61    36    37    1
    62    86    84   ar
    63   153   152    2
    64    62    61    1
    65    62    63    1
    66    83    84    1
    67    83    82    1
    68    37    38    1
    69    37    40    1
    70    84    85   ar
    71   151   150    1
    72   151   152    1
    73   150   144   am
    74    61    55   am
    75   148   146    1
    76   152   162   am
    77    63    64    2
    78    38    39    2
    79   138   137    2
    80   147   146    1
    81   147   149    1
    82    82    79    1
    83    53    54    1
    84   162   163    1
    85   143   146    1
    86   143   144    1
    87   143   142    1
    88   163   164    1
    89   163   166    1
    90   144   145    2
    91   164   165    2
    92    55    54    1
    93    55    56    2
    94    57    54    1
    95    57    58    1
    96    59    58    1
    97   137   142   am
    98   137   136    1
    99    58    60    1
   100   167   166    1
   101   166   168    1
   102    79    78    1
   103    79    80    1
   104    75    77   ar
   105    75    73   ar
   106    78    70   am
   107   105   106   ar
   108   105   103   ar
   109   169   170    1
   110   139   136    1
   111   139   140    1
   112    77    76   ar
   113   136   135    1
   114   106   104   ar
   115    94    96   ar
   116    94    92   ar
   117    80    81    2
   118   172   171    2
   119    72    73    1
   120    72    69    1
   121    73    74   ar
   122    96    95   ar
   123   171   170    1
   124   103   102   ar
   125    70    69    1
   126    70    71    2
   127   140   141    1
   128   170   173    1
   129    76    74   ar
   130    68    69    1
   131    92    91    1
   132    92    93   ar
   133    91    88    1
   134   127   126    2
   135    95    93   ar
   136   135   126   am
   137   135   141    1
   138   104   102   ar
   139   102   101    1
   140   126   125    1
   141   133   131   ar
   142   133   134   ar
   143   131   129   ar
   144   173   174    1
   145   173   175    1
   146    88    89    1
   147    88    87    1
   148   134   132   ar
   149    89    90    2
   150   122   121    1
   151   119   118    2
   152   101    98    1
   153   129   128    1
   154   129   130   ar
   155   125   128    1
   156   125   124    1
   157   132   130   ar
   158   121   123    1
   159   121   120    1
   160   118   117    1
   161    98    97    1
   162    98    99    1
   163   180   181    1
   164   180   177    1
   165   182   181   ar
   166   182   184   ar
   167   181   183   ar
   168   184   186   ar
   169   117   120    1
   170   117   116    1
   171   114   113    2
   172   183   185   ar
   173   186   185   ar
   174   176   177    1
   175    99   100    2
   176   177   178    1
   177   113   116   am
   178   113   112    1
   179   178   179    2
   180   107   108    1
   181   110   109    2
   182   108   109    1
   183   109   111   am
   184   111   112    1
   185   112   115    1
