@<TRIPOS>MOLECULE
tmp/3ljzD01.pdb
 86 79 0 0 0
SMALL
GASTEIGER

@<TRIPOS>ATOM
      1  N         50.4110   96.7540   63.4530 N.3    26  MET26      -0.1245
      2  CA        50.5560   97.8270   64.4380 C.3    26  MET26       0.1570
      3  C         51.8830   98.5430   64.1900 C.2    26  MET26       0.2261
      4  O         52.7820   97.9680   63.5870 O.2    26  MET26      -0.2867
      5  CB        50.5420   97.2450   65.8510 C.3    26  MET26       0.0387
      6  CG        49.2560   96.4960   66.2590 C.3    26  MET26       0.0595
      7  SD        49.5070   95.3760   67.6780 S.3    26  MET26      -0.1393
      8  CE        49.6470   96.5480   69.0390 C.3    26  MET26       0.0692
      9  N         53.6130  100.8350   69.0190 N.3    30  GLU30      -0.1245
     10  CA        52.4910  100.0990   69.6100 C.3    30  GLU30       0.1567
     11  C         52.8890   98.6730   70.0310 C.2    30  GLU30       0.2260
     12  O         52.4880   98.2150   71.1040 O.2    30  GLU30      -0.2867
     13  CB        51.2910  100.0570   68.6500 C.3    30  GLU30       0.0388
     14  CG        50.5640  101.3950   68.5270 C.3    30  GLU30       0.1160
     15  CD        49.5320  101.4690   67.3800 C.2    30  GLU30       0.3649
     16  OE1       48.8460  102.5100   67.3240 O.co2  30  GLU30      -0.2457
     17  OE2       49.4040  100.5400   66.5320 O.co2  30  GLU30      -0.2457
     18  N         55.2350   98.9740   73.1210 N.3    33  LYS33      -0.1231
     19  CA        54.4120   99.2950   74.2890 C.3    33  LYS33       0.1693
     20  C         53.6570   98.0870   74.8080 C.2    33  LYS33       0.2591
     21  O         53.5770   97.8780   76.0040 O.2    33  LYS33      -0.2718
     22  CB        53.4160  100.4060   73.9670 C.3    33  LYS33       0.0285
     23  CG        54.0020  101.8160   74.0540 C.3    33  LYS33       0.0035
     24  CD        52.9860  102.8600   73.5570 C.3    33  LYS33       0.0206
     25  CE        53.3910  104.2870   73.9010 C.3    33  LYS33       0.1093
     26  NZ        54.8380  104.5910   73.6470 N.3    33  LYS33      -0.1314
     27  N         53.0940   97.3000   73.9000 N.am   34  ALA34      -0.1980
     28  CA        52.3240   96.1090   74.2740 C.3    34  ALA34       0.1597
     29  C         53.2130   95.0800   74.9810 C.2    34  ALA34       0.2287
     30  O         52.8280   94.5270   75.9940 O.2    34  ALA34      -0.2864
     31  CB        51.6590   95.4950   73.0400 C.3    34  ALA34       0.0319
     32  N         54.2760   96.4770   78.5440 N.3    37  LYS37      -0.1245
     33  CA        53.1490   96.3030   79.4340 C.3    37  LYS37       0.1561
     34  C         52.9410   94.8530   79.8410 C.2    37  LYS37       0.2260
     35  O         52.6400   94.5890   81.0040 O.2    37  LYS37      -0.2867
     36  CB        51.8620   96.8650   78.8020 C.3    37  LYS37       0.0271
     37  CG        50.7200   97.0470   79.8040 C.3    37  LYS37       0.0035
     38  CD        49.4850   97.7510   79.2170 C.3    37  LYS37       0.0206
     39  CE        48.4240   97.9680   80.3070 C.3    37  LYS37       0.1093
     40  NZ        47.1100   98.4300   79.7880 N.3    37  LYS37      -0.1314
     41  N         45.6640   96.9150   69.4870 N.3   106  SER106     -0.1202
     42  CA        45.7210   97.4220   70.8350 C.3   106  SER106      0.2020
     43  C         44.3250   97.7850   71.3470 C.2   106  SER106      0.2619
     44  O         44.1900   98.6040   72.2470 O.2   106  SER106     -0.2717
     45  CB        46.6910   98.6140   70.9070 C.3   106  SER106      0.2103
     46  OG        46.4530   99.5340   69.8610 O.3   106  SER106     -0.2182
     47  N         43.2950   97.1360   70.8100 N.am  107  SER107     -0.1951
     48  CA        41.9060   97.4490   71.1480 C.3   107  SER107      0.1924
     49  C         41.1310   96.1630   71.4690 C.2   107  SER107      0.2314
     50  O         41.7340   95.1230   71.7280 O.2   107  SER107     -0.2863
     51  CB        41.2540   98.1830   69.9760 C.3   107  SER107      0.2116
     52  OG        40.9920   97.2920   68.8960 O.3   107  SER107     -0.2180
     53  N         44.1630   91.0770   70.9660 N.3   112  ASN112     -0.1240
     54  CA        44.9330   92.0870   71.6760 C.3   112  ASN112      0.1653
     55  C         46.3270   91.5380   71.9380 C.2   112  ASN112      0.2266
     56  O         46.4710   90.5580   72.6530 O.2   112  ASN112     -0.2867
     57  CB        44.2370   92.4400   72.9890 C.3   112  ASN112      0.1155
     58  CG        44.8510   93.6340   73.6700 C.2   112  ASN112      0.2627
     59  OD1       45.7380   93.4780   74.4940 O.2   112  ASN112     -0.2716
     60  ND2       44.3750   94.8360   73.3340 N.am  112  ASN112     -0.0877
     61  N         48.9070   92.7400   73.6660 N.3   114  PHE114     -0.1241
     62  CA        49.2610   92.8410   75.0750 C.3   114  PHE114      0.1605
     63  C         48.7780   91.6280   75.8810 C.2   114  PHE114      0.2264
     64  O         49.5690   90.9990   76.5860 O.2   114  PHE114     -0.2867
     65  CB        48.6900   94.1440   75.6880 C.3   114  PHE114      0.0534
     66  CG        48.5510   94.0930   77.1860 C.ar  114  PHE114     -0.0203
     67  CD1       49.6580   93.8340   77.9930 C.ar  114  PHE114     -0.0042
     68  CD2       47.3290   94.3250   77.7900 C.ar  114  PHE114     -0.0042
     69  CE1       49.5320   93.7850   79.3830 C.ar  114  PHE114     -0.0003
     70  CE2       47.2040   94.2850   79.1540 C.ar  114  PHE114     -0.0003
     71  CZ        48.3160   94.0080   79.9570 C.ar  114  PHE114     -0.0000
     72  N         38.9710   97.6100   79.0510 N.3   146  LYS146     -0.1231
     73  CA        40.1190   98.5070   78.8170 C.3   146  LYS146      0.1693
     74  C         41.2780   98.5960   79.8530 C.2   146  LYS146      0.2592
     75  O         41.9260   97.5970   80.1890 O.2   146  LYS146     -0.2718
     76  CB        39.5900   99.9310   78.4610 C.3   146  LYS146      0.0285
     77  CG        38.7670  100.0230   77.1740 C.3   146  LYS146      0.0035
     78  CD        39.5000   99.4380   75.9360 C.3   146  LYS146      0.0206
     79  CE        38.5240   98.9830   74.8130 C.3   146  LYS146      0.1093
     80  NZ        37.7640   97.7130   75.1410 N.3   146  LYS146     -0.1314
     81  N         41.5200   99.8110   80.3420 N.am  147  SER147     -0.1952
     82  CA        42.8480  100.2430   80.8080 C.3   147  SER147      0.1924
     83  C         43.5020   99.3520   81.8620 C.2   147  SER147      0.2314
     84  O         44.5030   98.6810   81.5860 O.2   147  SER147     -0.2863
     85  CB        42.7670  101.6950   81.3230 C.3   147  SER147      0.2116
     86  OG        41.6200  101.8960   82.1380 O.3   147  SER147     -0.2180
@<TRIPOS>BOND
     1     1     2    1
     2     4     3    2
     3     3     2    1
     4     2     5    1
     5     5     6    1
     6     6     7    1
     7    17    15   ar
     8    16    15   ar
     9    15    14    1
    10     7     8    1
    11    14    13    1
    12    13    10    1
    13    52    51    1
    14     9    10    1
    15    41    42    1
    16    10    11    1
    17    46    45    1
    18    51    48    1
    19    11    12    2
    20    47    48    1
    21    47    43   am
    22    42    45    1
    23    42    43    1
    24    53    54    1
    25    48    49    1
    26    43    44    2
    27    49    50    2
    28    54    55    1
    29    54    57    1
    30    55    56    2
    31    57    58    1
    32    31    28    1
    33    18    19    1
    34    60    58   am
    35    24    25    1
    36    24    23    1
    37    26    25    1
    38    61    62    1
    39    58    59    2
    40    27    28    1
    41    27    20   am
    42    22    23    1
    43    22    19    1
    44    28    29    1
    45    19    20    1
    46    20    21    2
    47    79    80    1
    48    79    78    1
    49    29    30    2
    50    62    65    1
    51    62    63    1
    52    65    66    1
    53    63    64    2
    54    78    77    1
    55    77    76    1
    56    66    68   ar
    57    66    67   ar
    58    68    70   ar
    59    67    69   ar
    60    76    73    1
    61    32    33    1
    62    36    33    1
    63    36    37    1
    64    73    72    1
    65    73    74    1
    66    70    71   ar
    67    38    37    1
    68    38    39    1
    69    69    71   ar
    70    33    34    1
    71    40    39    1
    72    34    35    2
    73    74    75    2
    74    74    81   am
    75    81    82    1
    76    82    85    1
    77    82    83    1
    78    85    86    1
    79    84    83    2
