@<TRIPOS>MOLECULE
tmp/3lk8A00.pdb
 142 142 0 0 0
SMALL
GASTEIGER

@<TRIPOS>ATOM
      1  N         -3.7010  -11.5490    3.4830 N.3    74  GLY74      -0.1210
      2  CA        -3.4710  -10.3840    2.6240 C.3    74  GLY74       0.1956
      3  C         -2.8710   -9.2320    3.4190 C.2    74  GLY74       0.2612
      4  O         -1.8580   -9.4010    4.1030 O.2    74  GLY74      -0.2717
      5  N         -3.5220   -8.0780    3.3470 N.am   75  ILE75      -0.1965
      6  CA        -3.0760   -6.8660    4.0610 C.3    75  ILE75       0.1727
      7  C         -3.2980   -7.0880    5.5470 C.2    75  ILE75       0.2616
      8  O         -4.4280   -7.3720    5.9730 O.2    75  ILE75      -0.2715
      9  CB        -3.8730   -5.6010    3.6270 C.3    75  ILE75       0.0290
     10  CG1       -3.7610   -5.3200    2.1110 C.3    75  ILE75       0.0022
     11  CG2       -3.4660   -4.3600    4.4720 C.3    75  ILE75       0.0023
     12  CD1       -2.3690   -5.0490    1.5950 C.3    75  ILE75       0.0001
     13  N         -2.2320   -6.9640    6.3280 N.am   76  LEU76      -0.1963
     14  CA        -2.3270   -7.1210    7.7840 C.3    76  LEU76       0.1728
     15  C         -2.5730   -5.7960    8.5180 C.2    76  LEU76       0.2616
     16  O         -3.2440   -5.7720    9.5510 O.2    76  LEU76      -0.2715
     17  CB        -1.0600   -7.7590    8.3290 C.3    76  LEU76       0.0311
     18  CG        -0.6790   -9.0310    7.5900 C.3    76  LEU76       0.0022
     19  CD1        0.6640   -9.5270    8.0890 C.3    76  LEU76       0.0001
     20  CD2       -1.8070  -10.0920    7.7710 C.3    76  LEU76       0.0001
     21  N         -1.9820   -4.7200    7.9920 N.am   77  ALA77      -0.1963
     22  CA        -2.0050   -3.4040    8.6140 C.3    77  ALA77       0.1728
     23  C         -1.5250   -2.3720    7.6000 C.2    77  ALA77       0.2616
     24  O         -0.8930   -2.7300    6.6170 O.2    77  ALA77      -0.2715
     25  CB        -1.0690   -3.4020    9.8280 C.3    77  ALA77       0.0334
     26  N         -1.8200   -1.0960    7.8400 N.am   78  HIS78      -0.1973
     27  CA        -1.2130    0.0040    7.0580 C.3    78  HIS78       0.1656
     28  C         -1.1180    1.2300    7.9600 C.2    78  HIS78       0.2291
     29  O         -1.7360    1.2580    8.9970 O.2    78  HIS78      -0.2864
     30  CB        -2.0180    0.3360    5.7950 C.3    78  HIS78       0.0771
     31  CG        -3.4600    0.6320    6.0570 C.ar   78  HIS78       0.0820
     32  ND1       -4.4790   -0.0820    5.4730 N.ar   78  HIS78      -0.2267
     33  CD2       -4.0530    1.5450    6.8590 C.ar   78  HIS78       0.1154
     34  CE1       -5.6390    0.3820    5.9020 C.ar   78  HIS78       0.1986
     35  NE2       -5.4080    1.3770    6.7380 N.ar   78  HIS78      -0.2212
     36  N          5.7440   -7.2820   16.0560 N.3   109  LEU109     -0.1231
     37  CA         6.5600   -7.2140   14.8170 C.3   109  LEU109      0.1693
     38  C          5.8950   -6.3800   13.7340 C.2   109  LEU109      0.2592
     39  O          6.5490   -5.5860   13.0210 O.2   109  LEU109     -0.2718
     40  CB         6.8180   -8.6290   14.2800 C.3   109  LEU109      0.0284
     41  CG         7.8800   -9.4790   14.9760 C.3   109  LEU109      0.0019
     42  CD1        7.8010  -10.8950   14.4140 C.3   109  LEU109      0.0001
     43  CD2        9.2750   -8.8950   14.7550 C.3   109  LEU109      0.0001
     44  N          4.5840   -6.5820   13.5960 N.am  110  THR110     -0.1953
     45  CA         3.7660   -5.7720   12.6980 C.3   110  THR110      0.1897
     46  C          3.8140   -4.2850   13.0680 C.2   110  THR110      0.2313
     47  O          3.9740   -3.4220   12.1800 O.2   110  THR110     -0.2863
     48  CB         2.3100   -6.2920   12.6500 C.3   110  THR110      0.1794
     49  OG1        2.3400   -7.6840   12.3350 O.3   110  THR110     -0.2208
     50  CG2        1.5120   -5.5700   11.5650 C.3   110  THR110      0.0378
     51  N          7.0200   -2.3990   12.0830 N.3   113  HIS113     -0.1226
     52  CA         6.9370   -2.0320   10.6640 C.3   113  HIS113      0.1752
     53  C          5.9860   -0.8350   10.4600 C.2   113  HIS113      0.2595
     54  O          6.3490    0.1560    9.8250 O.2   113  HIS113     -0.2718
     55  CB         6.4910   -3.2720    9.8720 C.3   113  HIS113      0.0759
     56  CG         6.2630   -3.0380    8.4060 C.ar  113  HIS113      0.0818
     57  ND1        7.0600   -3.6070    7.4390 N.ar  113  HIS113     -0.2268
     58  CD2        5.3100   -2.3380    7.7450 C.ar  113  HIS113      0.1154
     59  CE1        6.6190   -3.2570    6.2410 C.ar  113  HIS113      0.1986
     60  NE2        5.5400   -2.5070    6.4000 N.ar  113  HIS113     -0.2212
     61  N          4.7680   -0.9190   11.0030 N.am  114  GLU114     -0.1979
     62  CA         3.7870    0.1740   10.8390 C.3   114  GLU114      0.1602
     63  C          4.2880    1.4970   11.4180 C.2   114  GLU114      0.2287
     64  O          4.1570    2.5580   10.7920 O.2   114  GLU114     -0.2864
     65  CB         2.4400   -0.2100   11.4650 C.3   114  GLU114      0.0415
     66  CG         1.8090   -1.4100   10.7510 C.3   114  GLU114      0.1163
     67  CD         1.7740   -1.2130    9.2510 C.2   114  GLU114      0.3649
     68  OE1        2.1150   -2.1520    8.4880 O.co2 114  GLU114     -0.2457
     69  OE2        1.4180   -0.1020    8.8360 O.co2 114  GLU114     -0.2457
     70  N          6.5200    3.3160    9.1880 N.3   117  HIS117     -0.1241
     71  CA         5.7470    4.1540    8.2560 C.3   117  HIS117      0.1621
     72  C          5.2640    5.4300    8.9320 C.2   117  HIS117      0.2264
     73  O          5.3640    6.5020    8.3460 O.2   117  HIS117     -0.2867
     74  CB         4.5090    3.4370    7.6960 C.3   117  HIS117      0.0745
     75  CG         4.8100    2.3160    6.7480 C.ar  117  HIS117      0.0817
     76  ND1        5.7020    2.4300    5.7000 N.ar  117  HIS117     -0.2268
     77  CD2        4.2970    1.0640    6.6720 C.ar  117  HIS117      0.1154
     78  CE1        5.7510    1.2860    5.0430 C.ar  117  HIS117      0.1986
     79  NE2        4.9060    0.4410    5.6120 N.ar  117  HIS117     -0.2212
     80  N          9.1000    1.2090    2.1650 N.3   123  HIS123     -0.1241
     81  CA         9.5020   -0.1870    2.1930 C.3   123  HIS123      0.1621
     82  C         10.9300   -0.3980    1.7920 C.2   123  HIS123      0.2264
     83  O         11.5070    0.4210    1.0840 O.2   123  HIS123     -0.2867
     84  CB         8.5880   -1.0630    1.3550 C.3   123  HIS123      0.0745
     85  CG         7.2590   -1.2890    1.9910 C.ar  123  HIS123      0.0817
     86  ND1        6.0820   -1.2620    1.2780 N.ar  123  HIS123     -0.2268
     87  CD2        6.9140   -1.4700    3.2910 C.ar  123  HIS123      0.1154
     88  CE1        5.0650   -1.4440    2.1050 C.ar  123  HIS123      0.1986
     89  NE2        5.5430   -1.5880    3.3290 N.ar  123  HIS123     -0.2212
     90  N         12.9540   -5.0110    8.6560 N.3   130  VAL130     -0.1245
     91  CA        11.6030   -5.0760    9.1870 C.3   130  VAL130      0.1561
     92  C         10.6290   -4.3580    8.2320 C.2   130  VAL130      0.2260
     93  O          9.4480   -4.6870    8.1940 O.2   130  VAL130     -0.2867
     94  CB        11.4970   -4.5240   10.6550 C.3   130  VAL130      0.0252
     95  CG1       11.5130   -2.9980   10.6990 C.3   130  VAL130      0.0019
     96  CG2       10.2470   -5.0770   11.3370 C.3   130  VAL130      0.0019
     97  N         10.6670   -4.5440    5.0290 N.3   132  PHE132     -0.1228
     98  CA        10.3190   -5.3800    3.8720 C.3   132  PHE132      0.1721
     99  C          8.8090   -5.6590    3.9020 C.2   132  PHE132      0.2437
    100  O          8.2490   -5.9140    4.9800 O.2   132  PHE132     -0.2733
    101  CB        11.1200   -6.6870    3.9390 C.3   132  PHE132      0.0547
    102  CG        11.0190   -7.5380    2.6990 C.ar  132  PHE132     -0.0202
    103  CD1       11.6620   -7.1590    1.5300 C.ar  132  PHE132     -0.0042
    104  CD2       10.2870   -8.7140    2.7190 C.ar  132  PHE132     -0.0042
    105  CE1       11.5950   -7.9620    0.3970 C.ar  132  PHE132     -0.0003
    106  CE2       10.2180   -9.5220    1.5900 C.ar  132  PHE132     -0.0003
    107  CZ        10.8670   -9.1290    0.4290 C.ar  132  PHE132     -0.0000
    108  N          8.1270   -5.5650    2.7400 N.am  133  PRO133     -0.2718
    109  CA         6.6550   -5.6410    2.7340 C.3   133  PRO133      0.1535
    110  C          6.0060   -7.0010    3.0040 C.2   133  PRO133      0.2599
    111  O          4.7740   -7.0930    3.0450 O.2   133  PRO133     -0.2715
    112  CB         6.2550   -5.1260    1.3410 C.3   133  PRO133      0.0310
    113  CG         7.4610   -5.0190    0.5450 C.3   133  PRO133      0.0237
    114  CD         8.6820   -5.3240    1.4000 C.3   133  PRO133      0.0939
    115  N          6.8080   -8.0440    3.1810 N.am  134  THR134     -0.1937
    116  CA         6.2620   -9.3670    3.4880 C.3   134  THR134      0.2028
    117  C          6.4290   -9.7070    4.9570 C.2   134  THR134      0.2642
    118  O          7.5380   -9.6390    5.4920 O.2   134  THR134     -0.2714
    119  CB         6.9610  -10.4610    2.6540 C.3   134  THR134      0.1808
    120  OG1        6.8000  -10.1640    1.2660 O.3   134  THR134     -0.2208
    121  CG2        6.3840  -11.8650    2.9610 C.3   134  THR134      0.0379
    122  N          5.3320  -10.0980    5.6000 N.am  135  TYR135     -0.1959
    123  CA         5.3920  -10.5190    6.9990 C.3   135  TYR135      0.1771
    124  C          6.0550  -11.8860    7.1110 C.2   135  TYR135      0.2619
    125  O          5.6400  -12.8300    6.4380 O.2   135  TYR135     -0.2715
    126  CB         3.9880  -10.5870    7.6110 C.3   135  TYR135      0.0574
    127  CG         3.9610  -11.1680    9.0140 C.ar  135  TYR135     -0.0198
    128  CD1        4.1070  -10.3400   10.1280 C.ar  135  TYR135     -0.0009
    129  CD2        3.7870  -12.5390    9.2310 C.ar  135  TYR135     -0.0009
    130  CE1        4.0980  -10.8490   11.3970 C.ar  135  TYR135      0.0417
    131  CE2        3.7850  -13.0690   10.5230 C.ar  135  TYR135      0.0417
    132  CZ         3.9290  -12.2110   11.6020 C.ar  135  TYR135      0.1957
    133  OH         3.9130  -12.6960   12.8820 O.3   135  TYR135     -0.2866
    134  N          7.0830  -11.9830    7.9490 N.am  136  LYS136     -0.1977
    135  CA         7.6390  -13.2840    8.3360 C.3   136  LYS136      0.1596
    136  C          8.0130  -13.2430    9.7980 C.2   136  LYS136      0.2287
    137  O          8.8000  -12.3880   10.2150 O.2   136  LYS136     -0.2864
    138  CB         8.8800  -13.6310    7.5200 C.3   136  LYS136      0.0298
    139  CG         9.3160  -15.0940    7.6810 C.3   136  LYS136      0.0038
    140  CD        10.8180  -15.2040    7.5550 C.3   136  LYS136      0.0206
    141  CE        11.3060  -16.6520    7.5190 C.3   136  LYS136      0.1093
    142  NZ        11.8100  -17.0190    6.1600 N.3   136  LYS136     -0.1314
@<TRIPOS>BOND
     1   105   107   ar
     2   105   103   ar
     3   107   106   ar
     4   113   112    1
     5   113   114    1
     6    83    82    2
     7   120   119    1
     8    86    85   ar
     9    86    88   ar
    10   112   109    1
    11    84    85    1
    12    84    81    1
    13   114   108    1
    14   103   102   ar
    15   106   104   ar
    16    12    10    1
    17    82    81    1
    18    85    87   ar
    19    88    89   ar
    20    10     9    1
    21    80    81    1
    22     2     3    1
    23     2     1    1
    24   119   121    1
    25   119   116    1
    26   102   104   ar
    27   102   101    1
    28   109   108    1
    29   109   110    1
    30   108    99   am
    31   110   111    2
    32   110   115   am
    33   115   116    1
    34    87    89   ar
    35     5     3   am
    36     5     6    1
    37     3     4    2
    38   116   117    1
    39     9     6    1
    40     9    11    1
    41    98    99    1
    42    98   101    1
    43    98    97    1
    44    99   100    2
    45     6     7    1
    46   117   118    2
    47   117   122   am
    48    78    79   ar
    49    78    76   ar
    50    32    34   ar
    51    32    31   ar
    52     7     8    2
    53     7    13   am
    54   122   123    1
    55    79    77   ar
    56    76    75   ar
    57    30    31    1
    58    30    27    1
    59    34    35   ar
    60    31    33   ar
    61   142   141    1
    62    59    60   ar
    63    59    57   ar
    64    13    14    1
    65    60    58   ar
    66   125   124    2
    67    24    23    2
    68    77    75   ar
    69    35    33   ar
    70    75    74    1
    71   123   124    1
    72   123   126    1
    73    27    26    1
    74    27    28    1
    75   124   134   am
    76    57    56   ar
    77   141   140    1
    78   138   139    1
    79   138   135    1
    80   140   139    1
    81    18    20    1
    82    18    19    1
    83    18    17    1
    84    23    26   am
    85    23    22    1
    86   126   127    1
    87    74    71    1
    88    58    56   ar
    89    14    17    1
    90    14    15    1
    91   134   135    1
    92    28    29    2
    93    21    15   am
    94    21    22    1
    95    93    92    2
    96    92    91    1
    97    71    72    1
    98    71    70    1
    99   135   136    1
   100    73    72    2
   101    56    55    1
   102    68    67   ar
   103    15    16    2
   104    22    25    1
   105    90    91    1
   106    69    67   ar
   107   127   129   ar
   108   127   128   ar
   109    91    94    1
   110   129   131   ar
   111    67    66    1
   112   136   137    2
   113    54    53    2
   114    55    52    1
   115   128   130   ar
   116    53    52    1
   117    53    61   am
   118   131   132   ar
   119    94    95    1
   120    94    96    1
   121    52    51    1
   122    66    65    1
   123    64    63    2
   124    62    61    1
   125    62    63    1
   126    62    65    1
   127   130   132   ar
   128    50    48    1
   129   132   133    1
   130    47    46    2
   131    49    48    1
   132    48    45    1
   133    45    46    1
   134    45    44    1
   135    39    38    2
   136    44    38   am
   137    38    37    1
   138    40    37    1
   139    40    41    1
   140    42    41    1
   141    43    41    1
   142    37    36    1
