@<TRIPOS>MOLECULE
tmp/3lk9A00.pdb
 153 145 0 0 0
SMALL
GASTEIGER

@<TRIPOS>ATOM
      1  N         18.4830   -1.8430    9.0240 N.3    31  ARG31      -0.1245
      2  CA        17.0360   -1.9040    9.1310 C.3    31  ARG31       0.1563
      3  C         16.4020   -2.3580    7.8250 C.2    31  ARG31       0.2260
      4  O         15.4500   -3.1300    7.8330 O.2    31  ARG31      -0.2867
      5  CB        16.4670   -0.5410    9.5280 C.3    31  ARG31       0.0307
      6  CG        16.4500   -0.3070   11.0160 C.3    31  ARG31       0.0489
      7  CD        15.1930    0.4230   11.4140 C.3    31  ARG31       0.2205
      8  NE        15.1320    1.7330   10.7760 N.pl3  31  ARG31      -0.0865
      9  CZ        14.1030    2.5650   10.8710 C.cat  31  ARG31       0.5346
     10  NH1       13.0350    2.2160   11.5820 N.pl3  31  ARG31       0.1354
     11  NH2       14.1520    3.7490   10.2670 N.pl3  31  ARG31       0.1354
     12  N          2.9540   -3.5000   24.8330 N.3   140  ARG140     -0.1245
     13  CA         2.1380   -3.4310   23.6240 C.3   140  ARG140      0.1563
     14  C          0.7050   -3.0790   23.9940 C.2   140  ARG140      0.2260
     15  O          0.2990   -3.1960   25.1520 O.2   140  ARG140     -0.2867
     16  CB         2.1240   -4.7820   22.9070 C.3   140  ARG140      0.0307
     17  CG         3.4670   -5.2710   22.4140 C.3   140  ARG140      0.0489
     18  CD         3.9810   -4.4600   21.2510 C.3   140  ARG140      0.2205
     19  NE         3.2100   -4.6580   20.0300 N.pl3 140  ARG140     -0.0865
     20  CZ         3.4100   -3.9630   18.9130 C.cat 140  ARG140      0.5346
     21  NH1        4.3600   -3.0320   18.8690 N.pl3 140  ARG140      0.1354
     22  NH2        2.6520   -4.1810   17.8470 N.pl3 140  ARG140      0.1354
     23  N         -1.1780    4.4930   11.9780 N.3   170  GLY170     -0.1210
     24  CA        -0.1260    3.6370   12.4880 C.3   170  GLY170      0.1956
     25  C         -0.4600    2.1810   12.2270 C.2   170  GLY170      0.2612
     26  O         -1.2250    1.8770   11.3140 O.2   170  GLY170     -0.2717
     27  N          0.0920    1.2880   13.0450 N.am  171  SER171     -0.1952
     28  CA        -0.1290   -0.1460   12.9020 C.3   171  SER171      0.1924
     29  C         -1.6010   -0.5630   12.9780 C.2   171  SER171      0.2314
     30  O         -2.0060   -1.5630   12.3870 O.2   171  SER171     -0.2863
     31  CB         0.6560   -0.8890   13.9740 C.3   171  SER171      0.2116
     32  OG         0.1020   -0.6380   15.2540 O.3   171  SER171     -0.2180
     33  N         -3.2960   -0.5680    9.8900 N.3   174  ARG174     -0.1245
     34  CA        -2.6940   -1.6410    9.1090 C.3   174  ARG174      0.1563
     35  C         -3.1600   -3.0330    9.5470 C.2   174  ARG174      0.2260
     36  O         -2.6220   -4.0420    9.0910 O.2   174  ARG174     -0.2867
     37  CB        -1.1660   -1.5740    9.1930 C.3   174  ARG174      0.0307
     38  CG        -0.5430   -0.2820    8.6970 C.3   174  ARG174      0.0489
     39  CD         0.9390   -0.4930    8.4010 C.3   174  ARG174      0.2205
     40  NE         1.7190   -0.8930    9.5710 N.pl3 174  ARG174     -0.0865
     41  CZ         2.4880   -0.0720   10.2820 C.cat 174  ARG174      0.5346
     42  NH1        2.5880    1.2110    9.9520 N.pl3 174  ARG174      0.1354
     43  NH2        3.1690   -0.5360   11.3200 N.pl3 174  ARG174      0.1354
     44  N         -0.5730   -2.7730   19.0420 N.3   179  SER179     -0.1202
     45  CA         0.0790   -1.5490   18.5940 C.3   179  SER179      0.2020
     46  C          1.0350   -0.9610   19.6250 C.2   179  SER179      0.2619
     47  O          0.8630   -1.1540   20.8230 O.2   179  SER179     -0.2717
     48  CB        -0.9770   -0.5120   18.2050 C.3   179  SER179      0.2103
     49  OG        -1.6500   -0.9260   17.0280 O.3   179  SER179     -0.2182
     50  N          2.0470   -0.2480   19.1450 N.am  180  GLY180     -0.1942
     51  CA         3.0110    0.3590   20.0460 C.3   180  GLY180      0.2014
     52  C          2.4460    1.5930   20.7210 C.2   180  GLY180      0.2638
     53  O          2.7740    1.8700   21.8770 O.2   180  GLY180     -0.2714
     54  N          1.5920    2.3150   19.9910 N.am  181  ASP181     -0.1971
     55  CA         0.9420    3.5370   20.4610 C.3   181  ASP181      0.1709
     56  C         -0.2900    3.8800   19.5990 C.2   181  ASP181      0.2293
     57  O         -0.6050    3.1800   18.6280 O.2   181  ASP181     -0.2864
     58  CB         1.9310    4.7000   20.3980 C.3   181  ASP181      0.1436
     59  CG         2.2670    5.1050   18.9690 C.2   181  ASP181      0.3671
     60  OD1        1.9150    4.3560   18.0300 O.co2 181  ASP181     -0.2456
     61  OD2        2.8870    6.1780   18.7790 O.co2 181  ASP181     -0.2456
     62  N         -1.9070    6.4640   17.0150 N.3   183  ASP183     -0.1239
     63  CA        -1.6440    7.5790   16.1190 C.3   183  ASP183      0.1674
     64  C         -2.9460    8.0630   15.5000 C.2   183  ASP183      0.2266
     65  O         -3.6080    7.3290   14.7650 O.2   183  ASP183     -0.2867
     66  CB        -0.6560    7.1590   15.0400 C.3   183  ASP183      0.1410
     67  CG         0.6680    6.7090   15.6250 C.2   183  ASP183      0.3668
     68  OD1        1.2470    7.4740   16.4290 O.co2 183  ASP183     -0.2456
     69  OD2        1.1310    5.5970   15.2940 O.co2 183  ASP183     -0.2456
     70  N         -0.1180   10.2930   19.7770 N.3   247  ASP247     -0.1239
     71  CA         0.3140   11.3660   18.9140 C.3   247  ASP247      0.1674
     72  C         -0.9090   11.7770   18.1080 C.2   247  ASP247      0.2266
     73  O         -1.6690   10.9260   17.6530 O.2   247  ASP247     -0.2867
     74  CB         1.4100   10.8840   17.9760 C.3   247  ASP247      0.1410
     75  CG         2.6250   10.4180   18.7190 C.2   247  ASP247      0.3668
     76  OD1        2.9370   11.0280   19.7640 O.co2 247  ASP247     -0.2456
     77  OD2        3.2700    9.4550   18.2510 O.co2 247  ASP247     -0.2456
     78  N          0.9790    8.9070    4.9740 N.3   262  TYR262     -0.1227
     79  CA         2.1200    9.1800    5.8270 C.3   262  TYR262      0.1736
     80  C          1.9820    8.5500    7.2140 C.2   262  TYR262      0.2595
     81  O          2.8650    7.8220    7.6650 O.2   262  TYR262     -0.2718
     82  CB         2.3050   10.6910    5.9990 C.3   262  TYR262      0.0548
     83  CG         3.0100   11.0400    7.2840 C.ar  262  TYR262     -0.0200
     84  CD1        4.3410   10.6710    7.4940 C.ar  262  TYR262     -0.0009
     85  CD2        2.3310   11.6640    8.3170 C.ar  262  TYR262     -0.0009
     86  CE1        4.9750   10.9110    8.7080 C.ar  262  TYR262      0.0417
     87  CE2        2.9540   11.9120    9.5420 C.ar  262  TYR262      0.0417
     88  CZ         4.2740   11.5320    9.7320 C.ar  262  TYR262      0.1957
     89  OH         4.8850   11.7630   10.9470 O.3   262  TYR262     -0.2866
     90  N          0.8660    8.8420    7.8710 N.am  263  PHE263     -0.1962
     91  CA         0.6230    8.3700    9.2120 C.3   263  PHE263      0.1771
     92  C          0.2790    6.8970    9.3560 C.2   263  PHE263      0.2620
     93  O          0.1340    6.4130   10.4650 O.2   263  PHE263     -0.2715
     94  CB        -0.4530    9.2430    9.8650 C.3   263  PHE263      0.0574
     95  CG        -0.0840    9.7360   11.2320 C.ar  263  PHE263     -0.0200
     96  CD1        1.2340   10.0420   11.5420 C.ar  263  PHE263     -0.0042
     97  CD2       -1.0530    9.8990   12.2130 C.ar  263  PHE263     -0.0042
     98  CE1        1.5870   10.5020   12.8100 C.ar  263  PHE263     -0.0003
     99  CE2       -0.7150   10.3600   13.4900 C.ar  263  PHE263     -0.0003
    100  CZ         0.6090   10.6610   13.7860 C.ar  263  PHE263     -0.0000
    101  N          0.1510    6.1790    8.2490 N.am  264  THR264     -0.1937
    102  CA        -0.1420    4.7530    8.3100 C.3   264  THR264      0.2028
    103  C          1.1550    3.9580    8.1720 C.2   264  THR264      0.2643
    104  O          1.2580    2.8160    8.6280 O.2   264  THR264     -0.2714
    105  CB        -1.1090    4.3500    7.2090 C.3   264  THR264      0.1808
    106  OG1       -2.3840    4.9410    7.4720 O.3   264  THR264     -0.2208
    107  CG2       -1.2640    2.8450    7.1570 C.3   264  THR264      0.0379
    108  N          2.1530    4.5730    7.5480 N.am  265  GLY265     -0.1939
    109  CA         3.4380    3.9140    7.3960 C.3   265  GLY265      0.2014
    110  C          3.3460    2.5460    6.7580 C.2   265  GLY265      0.2640
    111  O          2.4680    2.3190    5.9310 O.2   265  GLY265     -0.2714
    112  N          4.2100    1.6140    7.1550 N.am  266  SER266     -0.1935
    113  CA         5.2190    1.8130    8.1940 C.3   266  SER266      0.2055
    114  C          6.3000    2.8070    7.8360 C.2   266  SER266      0.2643
    115  O          6.3940    3.2710    6.7000 O.2   266  SER266     -0.2714
    116  CB         5.8830    0.4800    8.5390 C.3   266  SER266      0.2130
    117  OG         6.5050   -0.0810    7.3920 O.3   266  SER266     -0.2179
    118  N          7.1280    3.1180    8.8240 N.am  267  ASP267     -0.1971
    119  CA         8.2110    4.0640    8.6310 C.3   267  ASP267      0.1709
    120  C          9.1370    3.6100    7.5110 C.2   267  ASP267      0.2293
    121  O          9.5460    4.4280    6.6850 O.2   267  ASP267     -0.2864
    122  CB         8.9920    4.2340    9.9300 C.3   267  ASP267      0.1436
    123  CG         9.7360    2.9780   10.3360 C.2   267  ASP267      0.3671
    124  OD1        9.3650    1.8670    9.8800 O.co2 267  ASP267     -0.2456
    125  OD2       10.6900    3.1080   11.1320 O.co2 267  ASP267     -0.2456
    126  N          7.2160    3.9050    4.2570 N.3   270  ASN270     -0.1225
    127  CA         7.1820    5.3230    3.9050 C.3   270  ASN270      0.1785
    128  C          8.5470    5.6900    3.3140 C.2   270  ASN270      0.2597
    129  O          8.6390    6.4880    2.3850 O.2   270  ASN270     -0.2718
    130  CB         6.9140    6.1870    5.1500 C.3   270  ASN270      0.1169
    131  CG         5.4410    6.2410    5.5250 C.2   270  ASN270      0.2627
    132  OD1        4.6080    5.6040    4.8900 O.2   270  ASN270     -0.2716
    133  ND2        5.1140    7.0120    6.5590 N.am  270  ASN270     -0.0877
    134  N          9.6070    5.0960    3.8560 N.am  271  LYS271     -0.1980
    135  CA        10.9460    5.3810    3.3760 C.3   271  LYS271      0.1596
    136  C         11.1670    4.8380    1.9770 C.2   271  LYS271      0.2287
    137  O         11.6930    5.5380    1.1160 O.2   271  LYS271     -0.2864
    138  CB        11.9750    4.7950    4.3260 C.3   271  LYS271      0.0298
    139  CG        12.3450    5.7090    5.4660 C.3   271  LYS271      0.0038
    140  CD        13.2710    4.9870    6.4360 C.3   271  LYS271      0.0206
    141  CE        14.1950    5.9470    7.1750 C.3   271  LYS271      0.1093
    142  NZ        15.2980    6.4800    6.3140 N.3   271  LYS271     -0.1314
    143  N          8.7430    6.8160   -0.5120 N.3   274  ARG274     -0.1245
    144  CA         9.2840    8.1530   -0.7290 C.3   274  ARG274      0.1563
    145  C         10.6190    8.1060   -1.4630 C.2   274  ARG274      0.2260
    146  O         10.9880    9.0600   -2.1460 O.2   274  ARG274     -0.2867
    147  CB         9.4500    8.8830    0.6090 C.3   274  ARG274      0.0307
    148  CG         8.1190    9.2360    1.2710 C.3   274  ARG274      0.0489
    149  CD         8.2280    9.4010    2.7770 C.3   274  ARG274      0.2205
    150  NE         7.0220   10.0020    3.3580 N.pl3 274  ARG274     -0.0865
    151  CZ         7.0240   11.1350    4.0600 C.cat 274  ARG274      0.5346
    152  NH1        8.1690   11.7720    4.2630 N.pl3 274  ARG274      0.1354
    153  NH2        5.8930   11.6420    4.5460 N.pl3 274  ARG274      0.1354
@<TRIPOS>BOND
     1   146   145    2
     2   145   144    1
     3   144   143    1
     4   144   147    1
     5   147   148    1
     6   137   136    2
     7   148   149    1
     8   136   135    1
     9   129   128    2
    10   149   150    1
    11   128   134   am
    12   128   127    1
    13   150   151    2
    14   135   134    1
    15   135   138    1
    16   127   126    1
    17   127   130    1
    18   151   152    1
    19   151   153    1
    20   138   139    1
    21   132   131    2
    22    78    79    1
    23   130   131    1
    24   139   140    1
    25   131   133   am
    26    79    82    1
    27    79    80    1
    28   111   110    2
    29    82    83    1
    30   142   141    1
    31   140   141    1
    32   121   120    2
    33   115   114    2
    34   110   112   am
    35   110   109    1
    36   112   113    1
    37   107   105    1
    38   105   106    1
    39   105   102    1
    40    80    81    2
    41    80    90   am
    42    83    84   ar
    43    83    85   ar
    44   117   116    1
    45   109   108    1
    46    84    86   ar
    47   120   119    1
    48   108   103   am
    49     3     4    2
    50     3     2    1
    51   114   113    1
    52   114   118   am
    53    90    91    1
    54   103   102    1
    55   103   104    2
    56   113   116    1
    57   101   102    1
    58   101    92   am
    59    85    87   ar
    60    39    38    1
    61    39    40    1
    62   119   118    1
    63   119   122    1
    64    38    37    1
    65    86    88   ar
    66     1     2    1
    67    36    35    2
    68    34    37    1
    69    34    35    1
    70    34    33    1
    71     2     5    1
    72    91    92    1
    73    91    94    1
    74    92    93    2
    75     5     6    1
    76    87    88   ar
    77    40    41    2
    78    88    89    1
    79    94    95    1
    80   124   123   ar
    81   122   123    1
    82    42    41    1
    83    11     9    1
    84    41    43    1
    85   123   125   ar
    86     8     9    2
    87     8     7    1
    88     9    10    1
    89     6     7    1
    90    95    96   ar
    91    95    97   ar
    92    26    25    2
    93    96    98   ar
    94    23    24    1
    95    97    99   ar
    96    25    24    1
    97    25    27   am
    98    30    29    2
    99    98   100   ar
   100    28    29    1
   101    28    27    1
   102    28    31    1
   103    99   100   ar
   104    31    32    1
   105    65    64    2
   106    66    67    1
   107    66    63    1
   108    69    67   ar
   109    64    63    1
   110    67    68   ar
   111    63    62    1
   112    49    48    1
   113    73    72    2
   114    22    20    1
   115    74    75    1
   116    74    71    1
   117    60    59   ar
   118    72    71    1
   119    48    45    1
   120    77    75   ar
   121    45    44    1
   122    45    46    1
   123    57    56    2
   124    75    76   ar
   125    61    59   ar
   126    21    20    1
   127    20    19    2
   128    71    70    1
   129    59    58    1
   130    50    46   am
   131    50    51    1
   132    56    55    1
   133    46    47    2
   134    54    55    1
   135    54    52   am
   136    19    18    1
   137    51    52    1
   138    58    55    1
   139    52    53    2
   140    18    17    1
   141    17    16    1
   142    16    13    1
   143    13    14    1
   144    13    12    1
   145    14    15    2
