@<TRIPOS>MOLECULE
tmp/3lkaA00.pdb
 122 121 0 0 0
SMALL
GASTEIGER

@<TRIPOS>ATOM
      1  N         -3.5230  -11.2940    3.4270 N.3    74  GLY74      -0.1210
      2  CA        -3.2920  -10.1240    2.5690 C.3    74  GLY74       0.1956
      3  C         -2.7010   -8.9630    3.3500 C.2    74  GLY74       0.2612
      4  O         -1.7070   -9.1240    4.0540 O.2    74  GLY74      -0.2717
      5  N         -3.3130   -7.7890    3.2270 N.am   75  ILE75      -0.1965
      6  CA        -2.8430   -6.6020    3.9610 C.3    75  ILE75       0.1727
      7  C         -3.1250   -6.8410    5.4470 C.2    75  ILE75       0.2616
      8  O         -4.2810   -7.0440    5.8100 O.2    75  ILE75      -0.2715
      9  CB        -3.6260   -5.3150    3.5330 C.3    75  ILE75       0.0290
     10  CG1       -3.5350   -5.0130    2.0150 C.3    75  ILE75       0.0022
     11  CG2       -3.2550   -4.1070    4.4310 C.3    75  ILE75       0.0023
     12  CD1       -2.1550   -4.7750    1.4910 C.3    75  ILE75       0.0001
     13  N         -2.0960   -6.7450    6.2970 N.am   76  LEU76      -0.1963
     14  CA        -2.2450   -6.9750    7.7440 C.3    76  LEU76       0.1728
     15  C         -2.5440   -5.7080    8.5310 C.2    76  LEU76       0.2616
     16  O         -3.1620   -5.7710    9.5950 O.2    76  LEU76      -0.2715
     17  CB        -0.9770   -7.6120    8.3180 C.3    76  LEU76       0.0311
     18  CG        -0.5380   -8.8530    7.5470 C.3    76  LEU76       0.0022
     19  CD1        0.8380   -9.3280    8.0400 C.3    76  LEU76       0.0001
     20  CD2       -1.6040   -9.9700    7.6720 C.3    76  LEU76       0.0001
     21  N         -2.0590   -4.5830    8.0010 N.am   77  ALA77      -0.1977
     22  CA        -2.0490   -3.2890    8.6580 C.3    77  ALA77       0.1597
     23  C         -1.6280   -2.2200    7.6600 C.2    77  ALA77       0.2287
     24  O         -1.0120   -2.5340    6.6450 O.2    77  ALA77      -0.2864
     25  CB        -1.0450   -3.3020    9.8200 C.3    77  ALA77       0.0319
     26  N          5.7030   -7.1790   16.0570 N.3   109  LEU109     -0.1231
     27  CA         6.5050   -7.1330   14.8170 C.3   109  LEU109      0.1693
     28  C          5.8430   -6.2520   13.7750 C.2   109  LEU109      0.2592
     29  O          6.5130   -5.4670   13.0760 O.2   109  LEU109     -0.2718
     30  CB         6.6830   -8.5460   14.2320 C.3   109  LEU109      0.0284
     31  CG         7.7530   -9.4760   14.8120 C.3   109  LEU109      0.0019
     32  CD1        7.7590  -10.7920   14.0020 C.3   109  LEU109      0.0001
     33  CD2        9.1220   -8.7830   14.7730 C.3   109  LEU109      0.0001
     34  N          4.5210   -6.4040   13.6570 N.am  110  THR110     -0.1953
     35  CA         3.7220   -5.6090   12.7190 C.3   110  THR110      0.1897
     36  C          3.7360   -4.1340   13.1010 C.2   110  THR110      0.2313
     37  O          3.8640   -3.2430   12.2290 O.2   110  THR110     -0.2863
     38  CB         2.2660   -6.1310   12.6310 C.3   110  THR110      0.1794
     39  OG1        2.2780   -7.5450   12.4400 O.3   110  THR110     -0.2208
     40  CG2        1.4990   -5.4740   11.4410 C.3   110  THR110      0.0378
     41  N          7.0140   -2.3880   12.0120 N.3   113  HIS113     -0.1226
     42  CA         6.7960   -2.0200   10.6020 C.3   113  HIS113      0.1752
     43  C          5.8620   -0.8090   10.4110 C.2   113  HIS113      0.2595
     44  O          6.2110    0.1550    9.7370 O.2   113  HIS113     -0.2718
     45  CB         6.2620   -3.2380    9.8240 C.3   113  HIS113      0.0759
     46  CG         6.1160   -3.0090    8.3460 C.ar  113  HIS113      0.0818
     47  ND1        7.0390   -3.4670    7.4230 N.ar  113  HIS113     -0.2268
     48  CD2        5.1370   -2.4030    7.6280 C.ar  113  HIS113      0.1154
     49  CE1        6.6400   -3.1380    6.2040 C.ar  113  HIS113      0.1986
     50  NE2        5.5000   -2.4720    6.3040 N.ar  113  HIS113     -0.2212
     51  N          4.6680   -0.8440   11.0050 N.am  114  GLU114     -0.1979
     52  CA         3.6770    0.2270   10.7960 C.3   114  GLU114      0.1602
     53  C          4.2000    1.5340   11.3660 C.2   114  GLU114      0.2287
     54  O          4.1240    2.5940   10.7200 O.2   114  GLU114     -0.2864
     55  CB         2.3330   -0.1410   11.4450 C.3   114  GLU114      0.0415
     56  CG         1.5780   -1.2790   10.6880 C.3   114  GLU114      0.1163
     57  CD         1.6960   -1.1670    9.1580 C.2   114  GLU114      0.3649
     58  OE1        2.0180   -2.1810    8.4740 O.co2 114  GLU114     -0.2457
     59  OE2        1.5060   -0.0620    8.6220 O.co2 114  GLU114     -0.2457
     60  N          8.8210    1.1810    2.1860 N.3   123  HIS123     -0.1241
     61  CA         9.2720   -0.2060    2.1920 C.3   123  HIS123      0.1621
     62  C         10.7210   -0.3890    1.7950 C.2   123  HIS123      0.2264
     63  O         11.2660    0.3810    1.0070 O.2   123  HIS123     -0.2867
     64  CB         8.3750   -1.0670    1.3170 C.3   123  HIS123      0.0745
     65  CG         7.0560   -1.3540    1.9440 C.ar  123  HIS123      0.0817
     66  ND1        5.8690   -1.2750    1.2500 N.ar  123  HIS123     -0.2268
     67  CD2        6.7280   -1.6790    3.2180 C.ar  123  HIS123      0.1154
     68  CE1        4.8650   -1.5540    2.0640 C.ar  123  HIS123      0.1986
     69  NE2        5.3590   -1.8060    3.2630 N.ar  123  HIS123     -0.2212
     70  N         12.9130   -4.9470    8.6280 N.3   130  VAL130     -0.1245
     71  CA        11.5570   -4.9250    9.1700 C.3   130  VAL130      0.1561
     72  C         10.5870   -4.2110    8.2010 C.2   130  VAL130      0.2260
     73  O          9.4330   -4.5630    8.1310 O.2   130  VAL130     -0.2867
     74  CB        11.4890   -4.3300   10.6210 C.3   130  VAL130      0.0252
     75  CG1       11.4950   -2.7910   10.6420 C.3   130  VAL130      0.0019
     76  CG2       10.2630   -4.9070   11.3730 C.3   130  VAL130      0.0019
     77  N         10.6410   -4.4400    4.9710 N.3   132  PHE132     -0.1228
     78  CA        10.3160   -5.3140    3.8220 C.3   132  PHE132      0.1721
     79  C          8.8090   -5.5950    3.8410 C.2   132  PHE132      0.2437
     80  O          8.2130   -5.8030    4.9230 O.2   132  PHE132     -0.2733
     81  CB        11.1410   -6.6040    3.8680 C.3   132  PHE132      0.0547
     82  CG        11.0060   -7.4620    2.6360 C.ar  132  PHE132     -0.0202
     83  CD1       11.6110   -7.0790    1.4390 C.ar  132  PHE132     -0.0042
     84  CD2       10.2680   -8.6370    2.6730 C.ar  132  PHE132     -0.0042
     85  CE1       11.4990   -7.8750    0.3060 C.ar  132  PHE132     -0.0003
     86  CE2       10.1690   -9.4430    1.5530 C.ar  132  PHE132     -0.0003
     87  CZ        10.7660   -9.0450    0.3610 C.ar  132  PHE132     -0.0000
     88  N          8.1580   -5.5160    2.6650 N.am  133  PRO133     -0.2718
     89  CA         6.6960   -5.5930    2.6620 C.3   133  PRO133      0.1535
     90  C          6.0840   -6.9060    3.1540 C.2   133  PRO133      0.2599
     91  O          4.9290   -6.9020    3.5550 O.2   133  PRO133     -0.2715
     92  CB         6.3210   -5.3350    1.1940 C.3   133  PRO133      0.0310
     93  CG         7.4960   -4.6770    0.5860 C.3   133  PRO133      0.0237
     94  CD         8.6970   -5.2340    1.3240 C.3   133  PRO133      0.0939
     95  N          6.8250   -8.0170    3.1180 N.am  134  THR134     -0.1937
     96  CA         6.2480   -9.3170    3.4680 C.3   134  THR134      0.2028
     97  C          6.3860   -9.6480    4.9550 C.2   134  THR134      0.2642
     98  O          7.4770   -9.5890    5.5060 O.2   134  THR134     -0.2714
     99  CB         6.8790  -10.4660    2.6230 C.3   134  THR134      0.1808
    100  OG1        6.7570  -10.1460    1.2390 O.3   134  THR134     -0.2208
    101  CG2        6.2040  -11.8200    2.9110 C.3   134  THR134      0.0379
    102  N          5.2800  -10.0070    5.6020 N.am  135  TYR135     -0.1959
    103  CA         5.3550  -10.4680    6.9940 C.3   135  TYR135      0.1771
    104  C          6.0410  -11.8470    7.0840 C.2   135  TYR135      0.2619
    105  O          5.6400  -12.7900    6.4030 O.2   135  TYR135     -0.2715
    106  CB         3.9680  -10.5190    7.6480 C.3   135  TYR135      0.0574
    107  CG         3.9790  -11.0870    9.0520 C.ar  135  TYR135     -0.0198
    108  CD1        4.1230  -10.2510   10.1660 C.ar  135  TYR135     -0.0009
    109  CD2        3.8690  -12.4670    9.2690 C.ar  135  TYR135     -0.0009
    110  CE1        4.1500  -10.7680   11.4430 C.ar  135  TYR135      0.0417
    111  CE2        3.8930  -12.9990   10.5660 C.ar  135  TYR135      0.0417
    112  CZ         4.0410  -12.1360   11.6450 C.ar  135  TYR135      0.1957
    113  OH         4.0610  -12.6570   12.9180 O.3   135  TYR135     -0.2866
    114  N          7.0780  -11.9330    7.9100 N.am  136  LYS136     -0.1977
    115  CA         7.6850  -13.2130    8.2750 C.3   136  LYS136      0.1596
    116  C          8.0230  -13.2070    9.7640 C.2   136  LYS136      0.2287
    117  O          8.7290  -12.3050   10.2100 O.2   136  LYS136     -0.2864
    118  CB         8.9410  -13.4770    7.4320 C.3   136  LYS136      0.0298
    119  CG         9.6920  -14.7440    7.8380 C.3   136  LYS136      0.0038
    120  CD        10.2500  -15.4870    6.6360 C.3   136  LYS136      0.0206
    121  CE        11.2840  -16.5310    7.0630 C.3   136  LYS136      0.1093
    122  NZ        10.7450  -17.5000    8.0760 N.3   136  LYS136     -0.1314
@<TRIPOS>BOND
     1    85    87   ar
     2    85    83   ar
     3    87    86   ar
     4    93    92    1
     5    93    94    1
     6    63    62    2
     7    92    89    1
     8   100    99    1
     9    66    65   ar
    10    66    68   ar
    11    64    65    1
    12    64    61    1
    13    94    88    1
    14    83    82   ar
    15    12    10    1
    16    86    84   ar
    17    62    61    1
    18    65    67   ar
    19    10     9    1
    20    68    69   ar
    21    60    61    1
    22     2     3    1
    23     2     1    1
    24    99   101    1
    25    99    96    1
    26    82    84   ar
    27    82    81    1
    28    89    88    1
    29    89    90    1
    30    88    79   am
    31    95    90   am
    32    95    96    1
    33    90    91    2
    34    67    69   ar
    35     5     3   am
    36     5     6    1
    37     3     4    2
    38    96    97    1
    39     9     6    1
    40     9    11    1
    41    78    79    1
    42    78    81    1
    43    78    77    1
    44    79    80    2
    45     6     7    1
    46    97    98    2
    47    97   102   am
    48     7     8    2
    49     7    13   am
    50   102   103    1
    51    49    50   ar
    52    49    47   ar
    53    13    14    1
    54    50    48   ar
    55   105   104    2
    56   120   121    1
    57   120   119    1
    58    24    23    2
    59   103   104    1
    60   103   106    1
    61   121   122    1
    62   104   114   am
    63    47    46   ar
    64   118   119    1
    65   118   115    1
    66    18    20    1
    67    18    19    1
    68    18    17    1
    69    48    46   ar
    70   106   107    1
    71    23    22    1
    72    14    17    1
    73    14    15    1
    74   114   115    1
    75    21    15   am
    76    21    22    1
    77    73    72    2
    78    72    71    1
    79   115   116    1
    80    46    45    1
    81    58    57   ar
    82    15    16    2
    83    59    57   ar
    84    70    71    1
    85    22    25    1
    86   107   109   ar
    87   107   108   ar
    88    57    56    1
    89    71    74    1
    90   109   111   ar
    91    44    43    2
    92   116   117    2
    93    45    42    1
    94   108   110   ar
    95    43    42    1
    96    43    51   am
    97   111   112   ar
    98    42    41    1
    99    74    75    1
   100    74    76    1
   101    56    55    1
   102    54    53    2
   103    52    51    1
   104    52    53    1
   105    52    55    1
   106    40    38    1
   107   110   112   ar
   108   112   113    1
   109    37    36    2
   110    39    38    1
   111    38    35    1
   112    35    36    1
   113    35    34    1
   114    29    28    2
   115    34    28   am
   116    28    27    1
   117    32    31    1
   118    30    31    1
   119    30    27    1
   120    33    31    1
   121    27    26    1
