@<TRIPOS>MOLECULE
tmp/3lkbB00.pdb
 96 93 0 0 0
SMALL
GASTEIGER

@<TRIPOS>ATOM
      1  N         46.5140   65.9540    7.3550 N.3    18  THR18      -0.1218
      2  CA        47.4800   66.7650    8.0700 C.3    18  THR18       0.1862
      3  C         48.7330   66.0520    8.4770 C.2    18  THR18       0.2287
      4  O         49.5570   66.6870    9.1100 O.2    18  THR18      -0.2866
      5  CB        46.9330   67.5710    9.3010 C.3    18  THR18       0.1770
      6  OG1       46.8570   66.6950   10.4260 O.3    18  THR18      -0.2211
      7  CG2       45.5840   68.2180    9.0020 C.3    18  THR18       0.0375
      8  N         43.6030   61.8130   12.2740 N.3    56  TYR56      -0.1241
      9  CA        42.7640   63.0000   12.2290 C.3    56  TYR56       0.1605
     10  C         41.2460   62.7110   12.4290 C.2    56  TYR56       0.2264
     11  O         40.4050   63.5490   12.1420 O.2    56  TYR56      -0.2867
     12  CB        43.0270   63.7970   10.9390 C.3    56  TYR56       0.0534
     13  CG        42.9930   65.2970   11.1540 C.ar   56  TYR56      -0.0201
     14  CD1       43.9380   65.9210   11.9980 C.ar   56  TYR56      -0.0009
     15  CD2       42.0510   66.1090   10.4940 C.ar   56  TYR56      -0.0009
     16  CE1       43.9740   67.2980   12.1540 C.ar   56  TYR56       0.0417
     17  CE2       42.0620   67.5230   10.6650 C.ar   56  TYR56       0.0417
     18  CZ        43.0350   68.0770   11.5200 C.ar   56  TYR56       0.1957
     19  OH        43.0920   69.4100   11.7280 O.3    56  TYR56      -0.2866
     20  N         46.4210   67.0430   19.5100 N.3    80  TYR80      -0.1227
     21  CA        46.8080   67.3910   18.1560 C.3    80  TYR80       0.1736
     22  C         45.7590   68.1900   17.4000 C.2    80  TYR80       0.2595
     23  O         45.9080   69.3770   17.3010 O.2    80  TYR80      -0.2718
     24  CB        47.2630   66.1540   17.4140 C.3    80  TYR80       0.0548
     25  CG        47.6690   66.3680   15.9860 C.ar   80  TYR80      -0.0200
     26  CD1       48.9010   66.9360   15.6940 C.ar   80  TYR80      -0.0009
     27  CD2       46.8500   65.9570   14.9270 C.ar   80  TYR80      -0.0009
     28  CE1       49.3220   67.1590   14.3890 C.ar   80  TYR80       0.0417
     29  CE2       47.2760   66.1530   13.5550 C.ar   80  TYR80       0.0417
     30  CZ        48.5270   66.7670   13.3130 C.ar   80  TYR80       0.1957
     31  OH        49.0460   67.0010   12.0390 O.3    80  TYR80      -0.2866
     32  N         44.7280   67.5610   16.8500 N.am   81  ALA81      -0.1966
     33  CA        43.8030   68.2460   15.9210 C.3    81  ALA81       0.1728
     34  C         43.0230   69.3890   16.5870 C.2    81  ALA81       0.2616
     35  O         42.6290   69.2700   17.7540 O.2    81  ALA81      -0.2715
     36  CB        42.8710   67.2630   15.2860 C.3    81  ALA81       0.0334
     37  N         42.8420   70.5180   15.8930 N.am   82  THR82      -0.1951
     38  CA        42.0640   71.5590   16.4810 C.3    82  THR82       0.1897
     39  C         40.6800   71.0500   16.7340 C.2    82  THR82       0.2313
     40  O         40.2070   71.1940   17.8370 O.2    82  THR82      -0.2863
     41  CB        42.0700   72.9970   15.8070 C.3    82  THR82       0.1794
     42  OG1       40.9340   73.2160   14.9730 O.3    82  THR82      -0.2208
     43  CG2       43.3240   73.4030   15.1350 C.3    82  THR82       0.0378
     44  N         49.2710   70.4830   19.7320 N.3   102  ALA102     -0.1231
     45  CA        49.8550   70.9200   18.4460 C.3   102  ALA102      0.1694
     46  C         49.0320   72.0030   17.7750 C.2   102  ALA102      0.2592
     47  O         49.5870   72.8900   17.0890 O.2   102  ALA102     -0.2718
     48  CB        49.9170   69.7120   17.4810 C.3   102  ALA102      0.0304
     49  N         47.7120   71.8510   17.8540 N.am  103  SER103     -0.1952
     50  CA        46.7940   72.8950   17.4750 C.3   103  SER103      0.1924
     51  C         47.1200   74.2280   18.1990 C.2   103  SER103      0.2314
     52  O         47.2690   74.2600   19.4130 O.2   103  SER103     -0.2863
     53  CB        45.3730   72.4850   17.8380 C.3   103  SER103      0.2116
     54  OG        44.4930   73.6070   17.7160 O.3   103  SER103     -0.2180
     55  N         47.0140   80.7340   15.6050 N.3   124  TYR124     -0.1241
     56  CA        46.7770   80.8830   14.1800 C.3   124  TYR124      0.1605
     57  C         46.3110   82.2920   13.8330 C.2   124  TYR124      0.2264
     58  O         46.6740   82.8670   12.7990 O.2   124  TYR124     -0.2867
     59  CB        45.7040   79.8720   13.7180 C.3   124  TYR124      0.0534
     60  CG        46.0720   78.4090   13.8850 C.ar  124  TYR124     -0.0201
     61  CD1       47.3390   77.9500   13.5590 C.ar  124  TYR124     -0.0009
     62  CD2       45.1450   77.4970   14.3370 C.ar  124  TYR124     -0.0009
     63  CE1       47.6670   76.6260   13.6650 C.ar  124  TYR124      0.0417
     64  CE2       45.4430   76.2000   14.4620 C.ar  124  TYR124      0.0417
     65  CZ        46.7130   75.7580   14.1260 C.ar  124  TYR124      0.1957
     66  OH        47.0310   74.4280   14.2730 O.3   124  TYR124     -0.2866
     67  N         40.5120   73.3500   11.9830 N.3   153  PHE153     -0.1241
     68  CA        41.8870   73.8110   11.8740 C.3   153  PHE153      0.1605
     69  C         42.0680   74.9220   10.8220 C.2   153  PHE153      0.2264
     70  O         42.7240   75.9520   11.0690 O.2   153  PHE153     -0.2867
     71  CB        42.7470   72.5920   11.5540 C.3   153  PHE153      0.0534
     72  CG        44.0520   72.8980   10.8310 C.ar  153  PHE153     -0.0203
     73  CD1       44.9800   73.8000   11.3510 C.ar  153  PHE153     -0.0042
     74  CD2       44.3500   72.2310    9.6160 C.ar  153  PHE153     -0.0042
     75  CE1       46.2010   74.0500   10.6530 C.ar  153  PHE153     -0.0003
     76  CE2       45.5270   72.4570    8.9260 C.ar  153  PHE153     -0.0003
     77  CZ        46.4720   73.3810    9.4250 C.ar  153  PHE153     -0.0000
     78  N         48.2830   72.7830    5.9410 N.3   205  VAL205     -0.1245
     79  CA        49.5570   72.0900    5.9760 C.3   205  VAL205      0.1561
     80  C         50.2670   72.3090    4.6330 C.2   205  VAL205      0.2260
     81  O         49.6930   72.8910    3.6660 O.2   205  VAL205     -0.2867
     82  CB        49.4540   70.5430    6.3180 C.3   205  VAL205      0.0252
     83  CG1       49.1320   70.3050    7.8120 C.3   205  VAL205      0.0019
     84  CG2       48.4400   69.8430    5.4530 C.3   205  VAL205      0.0019
     85  N         51.7960   76.0940   10.0340 N.3   230  TYR230     -0.1241
     86  CA        51.8510   74.7000    9.5310 C.3   230  TYR230      0.1605
     87  C         52.0410   74.5990    8.0350 C.2   230  TYR230      0.2264
     88  O         52.1380   73.5080    7.4790 O.2   230  TYR230     -0.2867
     89  CB        50.6150   73.8710   10.0000 C.3   230  TYR230      0.0534
     90  CG        50.7810   73.3680   11.4240 C.ar  230  TYR230     -0.0201
     91  CD1       50.0590   73.9300   12.4630 C.ar  230  TYR230     -0.0009
     92  CD2       51.6880   72.3600   11.7390 C.ar  230  TYR230     -0.0009
     93  CE1       50.2080   73.5230   13.7540 C.ar  230  TYR230      0.0417
     94  CE2       51.8430   71.9200   13.0830 C.ar  230  TYR230      0.0417
     95  CZ        51.0990   72.5220   14.0750 C.ar  230  TYR230      0.1957
     96  OH        51.1840   72.1130   15.3950 O.3   230  TYR230     -0.2866
@<TRIPOS>BOND
     1    81    80    2
     2    80    79    1
     3    84    82    1
     4    78    79    1
     5    79    82    1
     6    82    83    1
     7     1     2    1
     8    88    87    2
     9    87    86    1
    10     2     3    1
    11     2     5    1
    12     3     4    2
    13    76    77   ar
    14    76    74   ar
    15     7     5    1
    16     5     6    1
    17    77    75   ar
    18    86    89    1
    19    86    85    1
    20    74    72   ar
    21    89    90    1
    22    15    17   ar
    23    15    13   ar
    24    75    73   ar
    25    17    18   ar
    26    69    70    2
    27    69    68    1
    28    72    73   ar
    29    72    71    1
    30    12    13    1
    31    12     9    1
    32    13    14   ar
    33    90    92   ar
    34    90    91   ar
    35    18    19    1
    36    18    16   ar
    37    71    68    1
    38    92    94   ar
    39    68    67    1
    40    14    16   ar
    41    31    30    1
    42    11    10    2
    43     9     8    1
    44     9    10    1
    45    91    93   ar
    46    58    57    2
    47    94    95   ar
    48    30    29   ar
    49    30    28   ar
    50    29    27   ar
    51    61    63   ar
    52    61    60   ar
    53    63    65   ar
    54    59    60    1
    55    59    56    1
    56    93    95   ar
    57    57    56    1
    58    60    62   ar
    59    95    96    1
    60    65    66    1
    61    65    64   ar
    62    56    55    1
    63    62    64   ar
    64    28    26   ar
    65    27    25   ar
    66    42    41    1
    67    43    41    1
    68    36    33    1
    69    26    25   ar
    70    41    38    1
    71    37    38    1
    72    37    34   am
    73    33    34    1
    74    33    32    1
    75    25    24    1
    76    38    39    1
    77    34    35    2
    78    39    40    2
    79    32    22   am
    80    47    46    2
    81    23    22    2
    82    22    21    1
    83    24    21    1
    84    50    53    1
    85    50    49    1
    86    50    51    1
    87    48    45    1
    88    54    53    1
    89    46    49   am
    90    46    45    1
    91    21    20    1
    92    51    52    2
    93    45    44    1
