@<TRIPOS>MOLECULE
tmp/3lkfA00.pdb
 88 86 0 0 0
SMALL
GASTEIGER

@<TRIPOS>ATOM
      1  N         28.9930   32.3870  110.0820 N.3   166  ASN166     -0.1225
      2  CA        28.0740   33.1680  110.8860 C.3   166  ASN166      0.1785
      3  C         28.7680   34.5340  111.0360 C.2   166  ASN166      0.2597
      4  O         28.4770   35.4750  110.2760 O.2   166  ASN166     -0.2718
      5  CB        27.8340   32.4660  112.2170 C.3   166  ASN166      0.1169
      6  CG        26.7770   33.1450  113.0470 C.2   166  ASN166      0.2627
      7  OD1       26.9100   34.3190  113.3630 O.2   166  ASN166     -0.2716
      8  ND2       25.7170   32.4130  113.4080 N.am  166  ASN166     -0.0877
      9  N         29.6740   34.6620  111.9970 N.am  167  ASN167     -0.1974
     10  CA        30.4290   35.9130  112.1050 C.3   167  ASN167      0.1688
     11  C         31.7850   35.4650  111.5650 C.2   167  ASN167      0.2292
     12  O         32.0870   35.6130  110.3740 O.2   167  ASN167     -0.2864
     13  CB        30.5400   36.3670  113.5510 C.3   167  ASN167      0.1181
     14  CG        29.1930   36.8150  114.0920 C.2   167  ASN167      0.2629
     15  OD1       28.4680   37.6100  113.4780 O.2   167  ASN167     -0.2716
     16  ND2       28.8130   36.3110  115.2600 N.am  167  ASN167     -0.0877
     17  N         32.5350   32.4260  112.7930 N.3   169  TRP169     -0.1241
     18  CA        32.2330   31.0360  113.1220 C.3   169  TRP169      0.1605
     19  C         31.8150   30.2270  111.9050 C.2   169  TRP169      0.2264
     20  O         31.1990   30.7460  110.9800 O.2   169  TRP169     -0.2867
     21  CB        31.1380   30.9730  114.1830 C.3   169  TRP169      0.0550
     22  CG        31.5110   31.6340  115.4390 C.ar  169  TRP169      0.0003
     23  CD1       31.4340   32.9640  115.7160 C.ar  169  TRP169      0.0946
     24  CD2       32.0350   31.0190  116.6120 C.ar  169  TRP169      0.0152
     25  NE1       31.8760   33.2110  116.9850 N.ar  169  TRP169     -0.2442
     26  CE2       32.2500   32.0290  117.5590 C.ar  169  TRP169      0.0810
     27  CE3       32.3390   29.6910  116.9540 C.ar  169  TRP169      0.0012
     28  CZ2       32.7680   31.7720  118.8410 C.ar  169  TRP169      0.0191
     29  CZ3       32.8550   29.4300  118.2320 C.ar  169  TRP169      0.0001
     30  CH2       33.0580   30.4660  119.1530 C.ar  169  TRP169      0.0015
     31  N         29.2550   26.5280  108.3760 N.3   172  TYR172     -0.1241
     32  CA        28.1370   25.6710  108.7600 C.3   172  TYR172      0.1605
     33  C         27.3550   25.2310  107.5240 C.2   172  TYR172      0.2264
     34  O         27.4110   25.8750  106.4660 O.2   172  TYR172     -0.2867
     35  CB        27.1900   26.4210  109.7060 C.3   172  TYR172      0.0534
     36  CG        27.8190   26.8440  111.0260 C.ar  172  TYR172     -0.0201
     37  CD1       28.3490   25.8940  111.9130 C.ar  172  TYR172     -0.0009
     38  CD2       27.8700   28.1940  111.3960 C.ar  172  TYR172     -0.0009
     39  CE1       28.9110   26.2880  113.1440 C.ar  172  TYR172      0.0417
     40  CE2       28.4260   28.5910  112.6160 C.ar  172  TYR172      0.0417
     41  CZ        28.9450   27.6370  113.4780 C.ar  172  TYR172      0.1957
     42  OH        29.5150   28.0390  114.6620 O.3   172  TYR172     -0.2866
     43  N         24.1780   25.7760  114.5260 N.3   184  GLU184     -0.1245
     44  CA        24.3260   27.2070  114.7890 C.3   184  GLU184      0.1567
     45  C         24.3410   28.1410  113.5890 C.2   184  GLU184      0.2260
     46  O         24.6840   29.3240  113.7110 O.2   184  GLU184     -0.2867
     47  CB        25.5790   27.4360  115.6210 C.3   184  GLU184      0.0388
     48  CG        25.5670   26.6420  116.9330 C.3   184  GLU184      0.1160
     49  CD        26.7060   27.0260  117.8490 C.2   184  GLU184      0.3649
     50  OE1       26.5860   28.0560  118.5400 O.co2 184  GLU184     -0.2457
     51  OE2       27.7160   26.3040  117.8750 O.co2 184  GLU184     -0.2457
     52  N         22.2280   31.2770  114.3590 N.3   187  LEU187     -0.1231
     53  CA        22.1150   31.6650  115.7680 C.3   187  LEU187      0.1693
     54  C         23.0410   32.8660  116.0600 C.2   187  LEU187      0.2592
     55  O         24.2410   32.8240  115.7860 O.2   187  LEU187     -0.2718
     56  CB        22.4750   30.4670  116.6700 C.3   187  LEU187      0.0284
     57  CG        22.4580   30.6640  118.1960 C.3   187  LEU187      0.0019
     58  CD1       21.0630   31.0060  118.6740 C.3   187  LEU187      0.0001
     59  CD2       22.9900   29.4010  118.8830 C.3   187  LEU187      0.0001
     60  N         22.4830   33.9500  116.5880 N.am  188  ALA188     -0.1966
     61  CA        23.2930   35.1340  116.8880 C.3   188  ALA188      0.1728
     62  C         24.1610   34.9920  118.1490 C.2   188  ALA188      0.2617
     63  O         25.3250   35.3960  118.1560 O.2   188  ALA188     -0.2715
     64  CB        22.4090   36.3570  117.0060 C.3   188  ALA188      0.0334
     65  N         23.6140   34.4020  119.2060 N.am  189  GLY189     -0.1940
     66  CA        24.3780   34.2590  120.4360 C.3   189  GLY189      0.2014
     67  C         23.9340   33.0600  121.2340 C.2   189  GLY189      0.2639
     68  O         22.7530   32.7120  121.2700 O.2   189  GLY189     -0.2714
     69  N         24.8960   32.3960  121.8500 N.am  190  ARG190     -0.1963
     70  CA        24.6050   31.2250  122.6400 C.3   190  ARG190      0.1729
     71  C         23.9600   31.5530  123.9820 C.2   190  ARG190      0.2616
     72  O         23.2280   30.7350  124.5310 O.2   190  ARG190     -0.2715
     73  CB        25.8820   30.4250  122.8580 C.3   190  ARG190      0.0348
     74  CG        26.4790   29.8480  121.5800 C.3   190  ARG190      0.0492
     75  CD        27.7690   29.1190  121.8920 C.3   190  ARG190      0.2205
     76  NE        28.3100   28.3460  120.7700 N.pl3 190  ARG190     -0.0865
     77  CZ        29.5380   27.8360  120.7450 C.cat 190  ARG190      0.5346
     78  NH1       30.3490   28.0270  121.7750 N.pl3 190  ARG190      0.1354
     79  NH2       29.9350   27.0830  119.7210 N.pl3 190  ARG190      0.1354
     80  N         24.2130   32.7530  124.4920 N.am  191  GLN191     -0.1977
     81  CA        23.6950   33.1710  125.7990 C.3   191  GLN191      0.1601
     82  C         22.9340   34.4850  125.7720 C.2   191  GLN191      0.2287
     83  O         22.7270   35.0920  126.8310 O.2   191  GLN191     -0.2864
     84  CB        24.8640   33.3610  126.7690 C.3   191  GLN191      0.0394
     85  CG        25.8550   32.2300  126.8390 C.3   191  GLN191      0.0908
     86  CD        25.2620   30.9780  127.4330 C.2   191  GLN191      0.2608
     87  OE1       25.7420   29.8740  127.1700 O.2   191  GLN191     -0.2717
     88  NE2       24.2070   31.1340  128.2340 N.am  191  GLN191     -0.0878
@<TRIPOS>BOND
     1    34    33    2
     2    33    32    1
     3    31    32    1
     4    32    35    1
     5    35    36    1
     6     1     2    1
     7     4     3    2
     8    12    11    2
     9     2     3    1
    10     2     5    1
    11    20    19    2
    12    36    38   ar
    13    36    37   ar
    14     3     9   am
    15    38    40   ar
    16    11    10    1
    17    19    18    1
    18    37    39   ar
    19     9    10    1
    20    10    13    1
    21     5     6    1
    22    40    41   ar
    23    17    18    1
    24     6     7    2
    25     6     8   am
    26    18    21    1
    27    39    41   ar
    28    41    42    1
    29    15    14    2
    30    13    14    1
    31    45    46    2
    32    45    44    1
    33    14    16   am
    34    21    22    1
    35    52    53    1
    36    43    44    1
    37    44    47    1
    38    22    23   ar
    39    22    24   ar
    40    47    48    1
    41    23    25   ar
    42    53    54    1
    43    53    56    1
    44    55    54    2
    45    54    60   am
    46    60    61    1
    47    24    27   ar
    48    24    26   ar
    49    56    57    1
    50    61    64    1
    51    61    62    1
    52    48    49    1
    53    27    29   ar
    54    25    26   ar
    55    26    28   ar
    56    49    51   ar
    57    49    50   ar
    58    62    63    2
    59    62    65   am
    60    57    58    1
    61    57    59    1
    62    29    30   ar
    63    28    30   ar
    64    65    66    1
    65    79    77    1
    66    66    67    1
    67    77    76    2
    68    77    78    1
    69    76    75    1
    70    67    68    2
    71    67    69   am
    72    74    75    1
    73    74    73    1
    74    69    70    1
    75    70    73    1
    76    70    71    1
    77    71    80   am
    78    71    72    2
    79    80    81    1
    80    82    81    1
    81    82    83    2
    82    81    84    1
    83    84    85    1
    84    85    86    1
    85    87    86    2
    86    86    88   am
