@<TRIPOS>MOLECULE
tmp/3lkhA00.pdb
 201 199 0 0 0
SMALL
GASTEIGER

@<TRIPOS>ATOM
      1  N         25.9840   34.0840   41.4220 N.3   187  GLY187     -0.1210
      2  CA        25.7260   34.9070   42.6000 C.3   187  GLY187      0.1956
      3  C         24.4070   35.6120   42.6400 C.2   187  GLY187      0.2612
      4  O         23.8290   35.8120   43.7000 O.2   187  GLY187     -0.2717
      5  N         23.9220   36.0000   41.4730 N.am  188  PHE188     -0.1962
      6  CA        22.7090   36.8170   41.3730 C.3   188  PHE188      0.1771
      7  C         21.4030   36.1330   41.7320 C.2   188  PHE188      0.2619
      8  O         20.3700   36.8030   41.7900 O.2   188  PHE188     -0.2715
      9  CB        22.6120   37.4470   39.9650 C.3   188  PHE188      0.0574
     10  CG        23.5480   38.6100   39.7350 C.ar  188  PHE188     -0.0200
     11  CD1       23.6530   39.6410   40.6520 C.ar  188  PHE188     -0.0042
     12  CD2       24.2940   38.6850   38.5650 C.ar  188  PHE188     -0.0042
     13  CE1       24.5210   40.7290   40.4250 C.ar  188  PHE188     -0.0003
     14  CE2       25.1530   39.7730   38.3200 C.ar  188  PHE188     -0.0003
     15  CZ        25.2300   40.8080   39.2130 C.ar  188  PHE188     -0.0000
     16  N         21.4490   34.8290   42.0260 N.am  189  GLN189     -0.1963
     17  CA        20.2560   34.0830   42.4640 C.3   189  GLN189      0.1733
     18  C         20.0130   34.2720   43.9660 C.2   189  GLN189      0.2616
     19  O         18.9500   33.9170   44.4540 O.2   189  GLN189     -0.2715
     20  CB        20.4160   32.5600   42.2330 C.3   189  GLN189      0.0408
     21  CG        21.4030   31.8830   43.2210 C.3   189  GLN189      0.0908
     22  CD        21.6980   30.4230   42.8510 C.2   189  GLN189      0.2608
     23  OE1       20.9150   29.5370   43.1620 O.2   189  GLN189     -0.2717
     24  NE2       22.8070   30.1830   42.1500 N.am  189  GLN189     -0.0878
     25  N         21.0490   34.7020   44.6970 N.am  190  TYR190     -0.1960
     26  CA        21.0140   34.7980   46.1650 C.3   190  TYR190      0.1771
     27  C         20.5100   36.1290   46.7750 C.2   190  TYR190      0.2620
     28  O         20.9090   37.2100   46.3650 O.2   190  TYR190     -0.2715
     29  CB        22.4300   34.5300   46.7440 C.3   190  TYR190      0.0574
     30  CG        22.9900   33.1400   46.4420 C.ar  190  TYR190     -0.0198
     31  CD1       22.2450   31.9880   46.7050 C.ar  190  TYR190     -0.0009
     32  CD2       24.2700   32.9930   45.8970 C.ar  190  TYR190     -0.0009
     33  CE1       22.7640   30.7270   46.4240 C.ar  190  TYR190      0.0417
     34  CE2       24.7810   31.7520   45.5900 C.ar  190  TYR190      0.0417
     35  CZ        24.0240   30.6290   45.8480 C.ar  190  TYR190      0.1957
     36  OH        24.5760   29.4260   45.5820 O.3   190  TYR190     -0.2866
     37  N         19.7060   36.0160   47.8270 N.am  191  SER191     -0.1936
     38  CA        19.3010   37.1720   48.6280 C.3   191  SER191      0.2040
     39  C         20.5650   37.4420   49.4880 C.2   191  SER191      0.2485
     40  O         21.4660   36.5940   49.5330 O.2   191  SER191     -0.2729
     41  CB        18.1400   36.7410   49.5460 C.3   191  SER191      0.2129
     42  OG        18.6180   35.8040   50.5150 O.3   191  SER191     -0.2179
     43  N         20.6560   38.5940   50.1900 N.am  192  PRO192     -0.2726
     44  CA        21.8930   38.7210   51.0150 C.3   192  PRO192      0.1402
     45  C         22.1630   37.5660   52.0450 C.2   192  PRO192      0.2269
     46  O         23.2710   37.0180   52.1080 O.2   192  PRO192     -0.2865
     47  CB        21.6840   40.0690   51.7330 C.3   192  PRO192      0.0296
     48  CG        20.6840   40.8000   50.8580 C.3   192  PRO192      0.0237
     49  CD        19.7590   39.7480   50.4050 C.3   192  PRO192      0.0939
     50  N         23.4950   34.6080   50.2810 N.3   195  ARG195     -0.1245
     51  CA        24.8780   34.7810   49.7780 C.3   195  ARG195      0.1563
     52  C         25.8180   34.5070   50.9530 C.2   195  ARG195      0.2260
     53  O         26.8800   33.8740   50.8030 O.2   195  ARG195     -0.2867
     54  CB        25.1260   36.2350   49.2830 C.3   195  ARG195      0.0307
     55  CG        26.5570   36.4390   48.7690 C.3   195  ARG195      0.0489
     56  CD        26.9060   37.9140   48.4270 C.3   195  ARG195      0.2205
     57  NE        28.3180   38.0220   48.0140 N.pl3 195  ARG195     -0.0865
     58  CZ        28.7680   37.7990   46.7680 C.cat 195  ARG195      0.5346
     59  NH1       27.9190   37.5450   45.7550 N.pl3 195  ARG195      0.1354
     60  NH2       30.0670   37.9140   46.5090 N.pl3 195  ARG195      0.1354
     61  N         29.2700   37.4180   40.2260 N.3   311  ASN311     -0.1240
     62  CA        28.1470   38.3390   40.0450 C.3   311  ASN311      0.1653
     63  C         28.6840   39.3420   39.0120 C.2   311  ASN311      0.2266
     64  O         29.4090   40.2700   39.3790 O.2   311  ASN311     -0.2867
     65  CB        27.8780   39.1310   41.3540 C.3   311  ASN311      0.1155
     66  CG        27.3200   38.2850   42.4520 C.2   311  ASN311      0.2627
     67  OD1       27.9260   37.3040   42.8480 O.2   311  ASN311     -0.2716
     68  ND2       26.1650   38.6910   42.9970 N.am  311  ASN311     -0.0877
     69  N         31.7130   41.7930   45.9690 N.3   361  CYS361     -0.1235
     70  CA        30.4810   42.5510   45.7530 C.3   361  CYS361      0.1677
     71  C         30.5010   43.8200   46.6170 C.2   361  CYS361      0.2270
     72  O         29.4760   44.2740   47.1230 O.2   361  CYS361     -0.2867
     73  CB        29.2520   41.6880   46.0060 C.3   361  CYS361      0.0956
     74  SG        28.7860   40.8550   44.4700 S.3   361  CYS361     -0.0801
     75  N         31.4360   44.0950   49.5060 N.3   363  SER363     -0.1217
     76  CA        31.0220   43.7740   50.8700 C.3   363  SER363      0.1889
     77  C         31.8770   42.7030   51.5220 C.2   363  SER363      0.2288
     78  O         32.6330   41.9620   50.8500 O.2   363  SER363     -0.2866
     79  CB        29.5550   43.3250   50.8590 C.3   363  SER363      0.2089
     80  OG        28.8340   44.0600   49.8840 O.3   363  SER363     -0.2183
     81  N         26.2540   40.6780   55.7090 N.3   379  LEU379     -0.1245
     82  CA        27.1410   41.4470   54.8390 C.3   379  LEU379      0.1561
     83  C         27.1310   42.9440   55.1990 C.2   379  LEU379      0.2260
     84  O         26.0800   43.5460   55.4200 O.2   379  LEU379     -0.2867
     85  CB        26.6940   41.3050   53.3790 C.3   379  LEU379      0.0270
     86  CG        26.8150   39.8980   52.8340 C.3   379  LEU379      0.0019
     87  CD1       26.0380   39.8360   51.5100 C.3   379  LEU379      0.0001
     88  CD2       28.3240   39.5480   52.6500 C.3   379  LEU379      0.0001
     89  N         17.8020   48.1440   52.1600 N.3   408  ILE408     -0.1231
     90  CA        17.3270   46.7780   51.9860 C.3   408  ILE408      0.1692
     91  C         18.5330   45.8370   51.9270 C.2   408  ILE408      0.2592
     92  O         18.5520   44.8110   52.5990 O.2   408  ILE408     -0.2718
     93  CB        16.4840   46.6370   50.7140 C.3   408  ILE408      0.0266
     94  CG1       15.1470   47.4110   50.8150 C.3   408  ILE408      0.0019
     95  CG2       16.2950   45.1690   50.3530 C.3   408  ILE408      0.0020
     96  CD1       14.4710   47.6070   49.4170 C.3   408  ILE408      0.0001
     97  N         19.5520   46.2020   51.1500 N.am  409  MET409     -0.1965
     98  CA        20.7270   45.3460   51.0260 C.3   409  MET409      0.1736
     99  C         21.5150   45.2330   52.3190 C.2   409  MET409      0.2616
    100  O         22.0420   44.1580   52.6320 O.2   409  MET409     -0.2715
    101  CB        21.6760   45.8570   49.9270 C.3   409  MET409      0.0427
    102  CG        21.1910   45.5810   48.4930 C.3   409  MET409      0.0599
    103  SD        22.2920   46.4010   47.2920 S.3   409  MET409     -0.1393
    104  CE        23.9090   45.4070   47.5430 C.3   409  MET409      0.0692
    105  N         21.5890   46.3380   53.0620 N.am  410  TYR410     -0.1974
    106  CA        22.4210   46.4170   54.2740 C.3   410  TYR410      0.1639
    107  C         21.6830   46.5790   55.5650 C.2   410  TYR410      0.2290
    108  O         22.2580   47.0660   56.5520 O.2   410  TYR410     -0.2864
    109  CB        23.4740   47.5110   54.1490 C.3   410  TYR410      0.0560
    110  CG        24.4720   47.2050   53.0570 C.ar  410  TYR410     -0.0198
    111  CD1       25.4350   46.2000   53.2310 C.ar  410  TYR410     -0.0009
    112  CD2       24.3950   47.8410   51.8150 C.ar  410  TYR410     -0.0009
    113  CE1       26.2960   45.8430   52.2090 C.ar  410  TYR410      0.0417
    114  CE2       25.2710   47.5110   50.7920 C.ar  410  TYR410      0.0417
    115  CZ        26.2250   46.5100   51.0010 C.ar  410  TYR410      0.1957
    116  OH        27.1110   46.1850   50.0070 O.3   410  TYR410     -0.2866
    117  N         18.4660   49.3840   42.0970 N.3   442  ILE442     -0.1231
    118  CA        19.2810   48.3730   42.7640 C.3   442  ILE442      0.1692
    119  C         20.1660   47.7930   41.6440 C.2   442  ILE442      0.2592
    120  O         19.6770   47.1240   40.7250 O.2   442  ILE442     -0.2718
    121  CB        18.3840   47.3020   43.4550 C.3   442  ILE442      0.0266
    122  CG1       17.6810   47.8920   44.6840 C.3   442  ILE442      0.0019
    123  CG2       19.2160   46.0610   43.8200 C.3   442  ILE442      0.0020
    124  CD1       17.1820   46.8340   45.6740 C.3   442  ILE442      0.0001
    125  N         21.4500   48.1320   41.6650 N.am  443  TYR443     -0.1976
    126  CA        22.3480   47.8400   40.5360 C.3   443  TYR443      0.1639
    127  C         21.7570   48.5840   39.3290 C.2   443  TYR443      0.2290
    128  O         21.4480   49.7740   39.4360 O.2   443  TYR443     -0.2864
    129  CB        22.4830   46.3430   40.2680 C.3   443  TYR443      0.0560
    130  CG        23.1380   45.6110   41.4210 C.ar  443  TYR443     -0.0198
    131  CD1       22.7390   44.3320   41.7790 C.ar  443  TYR443     -0.0009
    132  CD2       24.0900   46.2470   42.2130 C.ar  443  TYR443     -0.0009
    133  CE1       23.3270   43.6760   42.8470 C.ar  443  TYR443      0.0417
    134  CE2       24.6550   45.6130   43.3000 C.ar  443  TYR443      0.0417
    135  CZ        24.2960   44.3130   43.5910 C.ar  443  TYR443      0.1957
    136  OH        24.8660   43.6690   44.6680 O.3   443  TYR443     -0.2866
    137  N         12.7430   48.8600   40.9570 N.3   447  TYR447     -0.1241
    138  CA        11.6510   48.2970   41.7670 C.3   447  TYR447      0.1605
    139  C         10.8480   49.4090   42.3950 C.2   447  TYR447      0.2264
    140  O         11.4120   50.3400   42.9680 O.2   447  TYR447     -0.2867
    141  CB        12.2220   47.4240   42.8970 C.3   447  TYR447      0.0534
    142  CG        13.3110   46.5030   42.4180 C.ar  447  TYR447     -0.0201
    143  CD1       14.5860   46.9860   42.1690 C.ar  447  TYR447     -0.0009
    144  CD2       13.0270   45.1910   42.0730 C.ar  447  TYR447     -0.0009
    145  CE1       15.5650   46.1740   41.6270 C.ar  447  TYR447      0.0417
    146  CE2       13.9980   44.3630   41.5400 C.ar  447  TYR447      0.0417
    147  CZ        15.2710   44.8550   41.3170 C.ar  447  TYR447      0.1957
    148  OH        16.2480   44.0300   40.7740 O.3   447  TYR447     -0.2866
    149  N         14.5920   39.0170   53.4400 N.3   461  LEU461     -0.1245
    150  CA        15.9260   39.0610   52.8500 C.3   461  LEU461      0.1561
    151  C         17.0650   38.7320   53.7860 C.2   461  LEU461      0.2260
    152  O         18.1880   38.3940   53.3310 O.2   461  LEU461     -0.2867
    153  CB        16.1910   40.4110   52.1920 C.3   461  LEU461      0.0270
    154  CG        15.9270   40.3970   50.6950 C.3   461  LEU461      0.0019
    155  CD1       14.4900   40.0360   50.4470 C.3   461  LEU461      0.0001
    156  CD2       16.3070   41.7380   50.0580 C.3   461  LEU461      0.0001
    157  N          9.3760   38.3960   41.7280 N.3   540  GLY540     -0.1210
    158  CA        10.1570   39.1360   40.7490 C.3   540  GLY540      0.1956
    159  C         11.6160   39.2370   41.1450 C.2   540  GLY540      0.2612
    160  O         12.4820   39.5880   40.3460 O.2   540  GLY540     -0.2717
    161  N         11.8810   38.9050   42.3990 N.am  541  TRP541     -0.1962
    162  CA        13.2200   38.9370   42.9550 C.3   541  TRP541      0.1771
    163  C         13.7760   37.5220   43.0040 C.2   541  TRP541      0.2619
    164  O         14.8940   37.2580   42.5630 O.2   541  TRP541     -0.2715
    165  CB        13.1590   39.4780   44.3890 C.3   541  TRP541      0.0590
    166  CG        13.2000   40.9590   44.4790 C.ar  541  TRP541      0.0006
    167  CD1       13.3300   41.8420   43.4410 C.ar  541  TRP541      0.0946
    168  CD2       13.1350   41.7520   45.6750 C.ar  541  TRP541      0.0152
    169  NE1       13.3760   43.1390   43.9210 N.ar  541  TRP541     -0.2442
    170  CE2       13.2750   43.1080   45.2880 C.ar  541  TRP541      0.0810
    171  CE3       13.0790   41.4460   47.0380 C.ar  541  TRP541      0.0012
    172  CZ2       13.2760   44.1510   46.2120 C.ar  541  TRP541      0.0191
    173  CZ3       13.1020   42.4810   47.9530 C.ar  541  TRP541      0.0001
    174  CH2       13.1670   43.8130   47.5380 C.ar  541  TRP541      0.0015
    175  N         12.9860   36.6230   43.5750 N.am  542  PHE542     -0.1974
    176  CA        13.4070   35.2590   43.8090 C.3   542  PHE542      0.1639
    177  C         13.4140   34.2540   42.6780 C.2   542  PHE542      0.2290
    178  O         14.2550   33.3400   42.6680 O.2   542  PHE542     -0.2864
    179  CB        12.7040   34.6860   45.0320 C.3   542  PHE542      0.0560
    180  CG        13.1550   35.3090   46.3280 C.ar  542  PHE542     -0.0200
    181  CD1       12.5540   36.4630   46.8070 C.ar  542  PHE542     -0.0042
    182  CD2       14.2180   34.7680   47.0360 C.ar  542  PHE542     -0.0042
    183  CE1       12.9860   37.0370   48.0040 C.ar  542  PHE542     -0.0003
    184  CE2       14.6420   35.3380   48.2340 C.ar  542  PHE542     -0.0003
    185  CZ        14.0280   36.4650   48.7160 C.ar  542  PHE542     -0.0000
    186  N         16.2680   36.1200   40.3540 N.3   545  GLY545     -0.1210
    187  CA        17.2600   36.9840   40.9550 C.3   545  GLY545      0.1956
    188  C         17.4110   38.2730   40.1430 C.2   545  GLY545      0.2611
    189  O         16.4230   38.8250   39.6090 O.2   545  GLY545     -0.2717
    190  N         18.6540   38.7550   40.0650 N.am  546  TYR546     -0.1976
    191  CA        18.9980   39.9690   39.3500 C.3   546  TYR546      0.1639
    192  C         19.4570   39.4690   38.0060 C.2   546  TYR546      0.2290
    193  O         20.5390   38.8780   37.8710 O.2   546  TYR546     -0.2864
    194  CB        20.1590   40.7260   40.0370 C.3   546  TYR546      0.0560
    195  CG        20.6530   41.9080   39.2290 C.ar  546  TYR546     -0.0198
    196  CD1       19.9070   43.0940   39.1690 C.ar  546  TYR546     -0.0009
    197  CD2       21.8040   41.8090   38.4370 C.ar  546  TYR546     -0.0009
    198  CE1       20.3300   44.1560   38.4420 C.ar  546  TYR546      0.0417
    199  CE2       22.2530   42.8960   37.6880 C.ar  546  TYR546      0.0417
    200  CZ        21.4850   44.0550   37.6650 C.ar  546  TYR546      0.1957
    201  OH        21.8700   45.1220   36.8790 O.3   546  TYR546     -0.2866
@<TRIPOS>BOND
     1   201   200    1
     2   200   199   ar
     3   200   198   ar
     4   199   197   ar
     5   193   192    2
     6   192   191    1
     7    14    12   ar
     8    14    15   ar
     9   197   195   ar
    10   198   196   ar
    11    12    10   ar
    12    63    64    2
    13    63    62    1
    14   196   195   ar
    15    15    13   ar
    16   195   194    1
    17   127   128    2
    18   127   126    1
    19   191   194    1
    20   191   190    1
    21   189   188    2
    22    10     9    1
    23    10    11   ar
    24     9     6    1
    25    62    61    1
    26    62    65    1
    27   190   188   am
    28   188   187    1
    29   129   126    1
    30   129   130    1
    31   160   159    2
    32   186   187    1
    33    13    11   ar
    34   126   125    1
    35   120   119    2
    36   158   159    1
    37   158   157    1
    38   148   147    1
    39   137   138    1
    40   159   161   am
    41   147   146   ar
    42   147   145   ar
    43    65    66    1
    44     6     5    1
    45     6     7    1
    46   130   131   ar
    47   130   132   ar
    48     1     2    1
    49     5     3   am
    50   146   144   ar
    51   145   143   ar
    52   119   125   am
    53   119   118    1
    54     7     8    2
    55     7    16   am
    56   138   139    1
    57   138   141    1
    58   131   133   ar
    59    16    17    1
    60   144   142   ar
    61   117   118    1
    62    24    22   am
    63   143   142   ar
    64   132   134   ar
    65    20    17    1
    66    20    21    1
    67   139   140    2
    68   161   162    1
    69   142   141    1
    70    66    67    2
    71    66    68   am
    72    17    18    1
    73   164   163    2
    74     2     3    1
    75     3     4    2
    76   178   177    2
    77   177   176    1
    78   118   121    1
    79   133   135   ar
    80    22    23    2
    81    22    21    1
    82   162   163    1
    83   162   165    1
    84   163   175   am
    85   134   135   ar
    86   167   169   ar
    87   167   166   ar
    88   121   123    1
    89   121   122    1
    90   175   176    1
    91   135   136    1
    92   176   179    1
    93   169   170   ar
    94    18    19    2
    95    18    25   am
    96   165   166    1
    97    74    73    1
    98   166   168   ar
    99   122   124    1
   100    25    26    1
   101   179   180    1
   102   170   168   ar
   103   170   172   ar
   104    36    35    1
   105    34    35   ar
   106    34    32   ar
   107   168   171   ar
   108    70    69    1
   109    70    73    1
   110    70    71    1
   111    59    58    1
   112    35    33   ar
   113    32    30   ar
   114    26    29    1
   115    26    27    1
   116   172   174   ar
   117   180   181   ar
   118   180   182   ar
   119    28    27    2
   120    33    31   ar
   121    30    31   ar
   122    30    29    1
   123    60    58    1
   124    71    72    2
   125    58    57    2
   126    27    37   am
   127   181   183   ar
   128   182   184   ar
   129   171   173   ar
   130   103   104    1
   131   103   102    1
   132   174   173   ar
   133    37    38    1
   134   183   185   ar
   135    57    56    1
   136   184   185   ar
   137    56    55    1
   138   102   101    1
   139    38    39    1
   140    38    41    1
   141    55    54    1
   142    54    51    1
   143    96    94    1
   144    39    40    2
   145    39    43   am
   146    75    76    1
   147    41    42    1
   148    51    50    1
   149    51    52    1
   150    80    79    1
   151   101    98    1
   152   116   115    1
   153   156   154    1
   154    43    49    1
   155    43    44    1
   156    95    93    1
   157    49    48    1
   158   155   154    1
   159   154   153    1
   160    93    94    1
   161    93    90    1
   162   114   115   ar
   163   114   112   ar
   164    53    52    2
   165    78    77    2
   166    48    47    1
   167    79    76    1
   168    76    77    1
   169   115   113   ar
   170    44    47    1
   171    44    45    1
   172    98    97    1
   173    98    99    1
   174    97    91   am
   175    87    86    1
   176   112   110   ar
   177    91    90    1
   178    91    92    2
   179    90    89    1
   180    45    46    2
   181   153   150    1
   182   113   111   ar
   183    99   100    2
   184    99   105   am
   185    88    86    1
   186    86    85    1
   187   150   149    1
   188   150   151    1
   189   110   111   ar
   190   110   109    1
   191   105   106    1
   192   152   151    2
   193    85    82    1
   194   109   106    1
   195   106   107    1
   196    82    83    1
   197    82    81    1
   198    83    84    2
   199   107   108    2
