@<TRIPOS>MOLECULE
tmp/3lkiB00.pdb
 197 184 0 0 0
SMALL
GASTEIGER

@<TRIPOS>ATOM
      1  N         25.5140   -7.7270   29.4120 N.3    91  ARG91      -0.1245
      2  CA        25.2550   -6.6150   30.3240 C.3    91  ARG91       0.1563
      3  C         23.8830   -6.8230   30.9760 C.2    91  ARG91       0.2260
      4  O         22.8440   -6.6230   30.3440 O.2    91  ARG91      -0.2867
      5  CB        25.3060   -5.2960   29.5330 C.3    91  ARG91       0.0307
      6  CG        24.8630   -4.0440   30.2830 C.3    91  ARG91       0.0489
      7  CD        25.7400   -2.8710   29.8400 C.3    91  ARG91       0.2205
      8  NE        24.9970   -1.7210   29.3110 N.pl3  91  ARG91      -0.0865
      9  CZ        25.5260   -0.8300   28.4670 C.cat  91  ARG91       0.5346
     10  NH1       26.7890   -0.9690   28.0590 N.pl3  91  ARG91       0.1354
     11  NH2       24.8050    0.2130   28.0370 N.pl3  91  ARG91       0.1354
     12  N         12.5920    5.2370   23.8850 N.3   154  ASN154     -0.1240
     13  CA        13.4500    4.7270   24.9470 C.3   154  ASN154      0.1653
     14  C         12.7420    3.6040   25.7170 C.2   154  ASN154      0.2266
     15  O         12.7180    3.5790   26.9480 O.2   154  ASN154     -0.2867
     16  CB        13.7990    5.8790   25.8900 C.3   154  ASN154      0.1155
     17  CG        15.0840    5.6490   26.6380 C.2   154  ASN154      0.2627
     18  OD1       15.1070    4.9970   27.6850 O.2   154  ASN154     -0.2716
     19  ND2       16.1740    6.1740   26.0970 N.am  154  ASN154     -0.0877
     20  N         12.0130    0.3820   27.5750 N.3   156  ARG156     -0.1245
     21  CA        12.7290   -0.5470   28.4490 C.3   156  ARG156      0.1563
     22  C         11.6760   -1.4790   29.0550 C.2   156  ARG156      0.2260
     23  O         11.1680   -1.2270   30.1470 O.2   156  ARG156     -0.2867
     24  CB        13.4500    0.2170   29.5590 C.3   156  ARG156      0.0307
     25  CG        14.4920    1.2110   29.0470 C.3   156  ARG156      0.0489
     26  CD        15.6630    0.4990   28.3830 C.3   156  ARG156      0.2205
     27  NE        16.6600    1.4320   27.8620 N.pl3 156  ARG156     -0.0865
     28  CZ        16.5710    2.0610   26.6930 C.cat 156  ARG156      0.5346
     29  NH1       15.5270    1.8590   25.9010 N.pl3 156  ARG156      0.1354
     30  NH2       17.5300    2.9020   26.3200 N.pl3 156  ARG156      0.1354
     31  N         11.8340   10.0460   18.1820 N.3   180  LYS180     -0.1245
     32  CA        13.1140    9.3760   18.0150 C.3   180  LYS180      0.1561
     33  C         12.9460    7.9170   18.4200 C.2   180  LYS180      0.2260
     34  O         12.5000    7.6150   19.5280 O.2   180  LYS180     -0.2867
     35  CB        14.1810   10.0700   18.8720 C.3   180  LYS180      0.0271
     36  CG        15.5960    9.5200   18.7260 C.3   180  LYS180      0.0035
     37  CD        15.8520    8.4000   19.7070 C.3   180  LYS180      0.0206
     38  CE        17.3290    8.0280   19.7660 C.3   180  LYS180      0.1093
     39  NZ        17.5350    6.9080   20.7280 N.3   180  LYS180     -0.1314
     40  N         14.6370    3.6670   17.8970 N.3   182  SER182     -0.1217
     41  CA        15.8010    2.8600   17.5600 C.3   182  SER182      0.1889
     42  C         15.2990    1.8900   16.4990 C.2   182  SER182      0.2288
     43  O         14.0900    1.7370   16.3240 O.2   182  SER182     -0.2866
     44  CB        16.2930    2.0820   18.7810 C.3   182  SER182      0.2089
     45  OG        15.3620    1.0760   19.1340 O.3   182  SER182     -0.2183
     46  N         15.3230   -1.2270   16.5650 N.3   184  GLU184     -0.1245
     47  CA        14.5940   -2.2710   17.2720 C.3   184  GLU184      0.1567
     48  C         13.1810   -1.8310   17.6230 C.2   184  GLU184      0.2260
     49  O         12.2230   -2.5850   17.4400 O.2   184  GLU184     -0.2867
     50  CB        15.3370   -2.6610   18.5560 C.3   184  GLU184      0.0388
     51  CG        16.8250   -2.9610   18.3830 C.3   184  GLU184      0.1160
     52  CD        17.6830   -1.7020   18.2990 C.2   184  GLU184      0.3649
     53  OE1       17.6430   -1.0060   17.2590 O.co2 184  GLU184     -0.2457
     54  OE2       18.3980   -1.4070   19.2820 O.co2 184  GLU184     -0.2457
     55  N         17.3670    5.3530   14.7880 N.3   215  THR215     -0.1203
     56  CA        18.7910    5.1030   14.9610 C.3   215  THR215      0.1994
     57  C         19.1870    3.6370   14.9980 C.2   215  THR215      0.2618
     58  O         18.3600    2.7380   14.8550 O.2   215  THR215     -0.2717
     59  CB        19.3260    5.7500   16.2630 C.3   215  THR215      0.1784
     60  OG1       18.6960    5.1360   17.3940 O.3   215  THR215     -0.2211
     61  CG2       19.0440    7.2480   16.2780 C.3   215  THR215      0.0376
     62  N         20.4880    3.4440   15.1870 N.am  216  ASP216     -0.1959
     63  CA        21.1620    2.1560   15.3080 C.3   216  ASP216      0.1840
     64  C         22.6010    2.5890   15.5960 C.2   216  ASP216      0.2622
     65  O         22.9180    3.7650   15.4330 O.2   216  ASP216     -0.2715
     66  CB        21.0550    1.3320   14.0180 C.3   216  ASP216      0.1450
     67  CG        21.4120    2.1230   12.7860 C.2   216  ASP216      0.3671
     68  OD1       21.4330    1.5160   11.6910 O.co2 216  ASP216     -0.2456
     69  OD2       21.6610    3.3430   12.9120 O.co2 216  ASP216     -0.2456
     70  N         23.4540    1.6700   16.0430 N.am  217  ALA217     -0.1963
     71  CA        24.8390    2.0010   16.3960 C.3   217  ALA217      0.1728
     72  C         25.5910    2.9590   15.4620 C.2   217  ALA217      0.2616
     73  O         25.2240    4.1320   15.3140 O.2   217  ALA217     -0.2715
     74  CB        25.6470    0.7140   16.5750 C.3   217  ALA217      0.0334
     75  N         26.6580    2.4620   14.8440 N.am  218  ALA218     -0.1977
     76  CA        27.4620    3.2830   13.9430 C.3   218  ALA218      0.1597
     77  C         26.7890    3.4630   12.5820 C.2   218  ALA218      0.2287
     78  O         27.2490    4.2430   11.7500 O.2   218  ALA218     -0.2864
     79  CB        28.8440    2.6620   13.7750 C.3   218  ALA218      0.0319
     80  N         21.8490    7.2870   10.7860 N.3   221  VAL221     -0.1245
     81  CA        20.5200    7.4720   11.3450 C.3   221  VAL221      0.1561
     82  C         19.6320    7.8680   10.1840 C.2   221  VAL221      0.2260
     83  O         20.0700    8.5820    9.2800 O.2   221  VAL221     -0.2867
     84  CB        20.4620    8.6020   12.3980 C.3   221  VAL221      0.0252
     85  CG1       21.2850    8.2220   13.5980 C.3   221  VAL221      0.0019
     86  CG2       20.9540    9.9140   11.7990 C.3   221  VAL221      0.0019
     87  N         27.3760    9.0020   10.2430 N.3   234  THR234     -0.1203
     88  CA        27.8490    9.3410   11.5700 C.3   234  THR234      0.1994
     89  C         29.3470    9.6270   11.5290 C.2   234  THR234      0.2618
     90  O         29.9670    9.6380   10.4640 O.2   234  THR234     -0.2717
     91  CB        27.5730    8.1890   12.5570 C.3   234  THR234      0.1784
     92  OG1       28.1380    6.9780   12.0370 O.3   234  THR234     -0.2211
     93  CG2       26.0690    7.9990   12.7500 C.3   234  THR234      0.0376
     94  N         29.9220    9.8790   12.6950 N.am  235  PHE235     -0.1961
     95  CA        31.3450   10.1470   12.7850 C.3   235  PHE235      0.1771
     96  C         32.0400    8.8510   13.1690 C.2   235  PHE235      0.2619
     97  O         31.4180    7.9510   13.7260 O.2   235  PHE235     -0.2715
     98  CB        31.5900   11.2380   13.8220 C.3   235  PHE235      0.0574
     99  CG        31.1260   12.5880   13.3760 C.ar  235  PHE235     -0.0200
    100  CD1       31.9510   13.3970   12.6000 C.ar  235  PHE235     -0.0042
    101  CD2       29.8370   13.0230   13.6610 C.ar  235  PHE235     -0.0042
    102  CE1       31.4970   14.6180   12.1090 C.ar  235  PHE235     -0.0003
    103  CE2       29.3730   14.2410   13.1760 C.ar  235  PHE235     -0.0003
    104  CZ        30.2040   15.0410   12.3960 C.ar  235  PHE235     -0.0000
    105  N         33.3210    8.7430   12.8470 N.am  236  ARG236     -0.1963
    106  CA        34.0730    7.5430   13.1780 C.3   236  ARG236      0.1729
    107  C         34.8440    7.7550   14.4730 C.2   236  ARG236      0.2616
    108  O         35.7770    8.5530   14.5280 O.2   236  ARG236     -0.2715
    109  CB        35.0480    7.1860   12.0520 C.3   236  ARG236      0.0348
    110  CG        36.0660    8.2700   11.7520 C.3   236  ARG236      0.0492
    111  CD        37.3750    7.6810   11.2490 C.3   236  ARG236      0.2205
    112  NE        38.4000    8.7060   11.0680 N.pl3 236  ARG236     -0.0865
    113  CZ        38.3530    9.6580   10.1410 C.cat 236  ARG236      0.5346
    114  NH1       37.3280    9.7200    9.3010 N.pl3 236  ARG236      0.1354
    115  NH2       39.3310   10.5520   10.0540 N.pl3 236  ARG236      0.1354
    116  N         34.4430    7.0480   15.5220 N.am  237  VAL237     -0.1977
    117  CA        35.1230    7.1660   16.8020 C.3   237  VAL237      0.1596
    118  C         35.2960    5.8090   17.4660 C.2   237  VAL237      0.2287
    119  O         34.6470    4.8290   17.0940 O.2   237  VAL237     -0.2864
    120  CB        34.3620    8.1020   17.7710 C.3   237  VAL237      0.0276
    121  CG1       34.5010    9.5470   17.3150 C.3   237  VAL237      0.0022
    122  CG2       32.8970    7.7020   17.8430 C.3   237  VAL237      0.0022
    123  N         34.6690    3.5420   20.4640 N.3   239  VAL239     -0.1245
    124  CA        33.7570    3.4260   21.5930 C.3   239  VAL239      0.1561
    125  C         34.5030    3.0360   22.8630 C.2   239  VAL239      0.2260
    126  O         35.3950    2.1870   22.8370 O.2   239  VAL239     -0.2867
    127  CB        32.6530    2.3810   21.3220 C.3   239  VAL239      0.0252
    128  CG1       31.7490    2.2420   22.5410 C.3   239  VAL239      0.0019
    129  CG2       31.8390    2.7970   20.1130 C.3   239  VAL239      0.0019
    130  N         29.2290    3.1410   25.3920 N.3   242  SER242     -0.1202
    131  CA        28.1150    3.6330   24.5800 C.3   242  SER242      0.2020
    132  C         26.9270    4.0800   25.4400 C.2   242  SER242      0.2619
    133  O         25.8590    4.4150   24.9210 O.2   242  SER242     -0.2717
    134  CB        27.6360    2.5740   23.5870 C.3   242  SER242      0.2103
    135  OG        27.2700    1.4220   24.3030 O.3   242  SER242     -0.2182
    136  N         27.1170    4.1060   26.7550 N.am  243  ASN243     -0.1960
    137  CA        26.0460    4.4900   27.6830 C.3   243  ASN243      0.1819
    138  C         25.4890    5.9010   27.3940 C.2   243  ASN243      0.2621
    139  O         26.2410    6.8290   27.1710 O.2   243  ASN243     -0.2715
    140  CB        26.5770    4.3740   29.1280 C.3   243  ASN243      0.1195
    141  CG        25.5260    4.6950   30.1800 C.2   243  ASN243      0.2630
    142  OD1       24.3550    4.3630   30.0210 O.2   243  ASN243     -0.2716
    143  ND2       25.9500    5.3300   31.2710 N.am  243  ASN243     -0.0877
    144  N         24.1730    6.0740   27.3580 N.am  244  ALA244     -0.1963
    145  CA        23.6250    7.4150   27.1020 C.3   244  ALA244      0.1728
    146  C         23.9950    8.0120   25.7310 C.2   244  ALA244      0.2616
    147  O         23.9550    9.2360   25.5640 O.2   244  ALA244     -0.2715
    148  CB        24.0830    8.3910   28.2210 C.3   244  ALA244      0.0334
    149  N         24.3450    7.1650   24.7610 N.am  245  ALA245     -0.1963
    150  CA        24.7010    7.6360   23.4210 C.3   245  ALA245      0.1728
    151  C         23.5040    8.3070   22.7460 C.2   245  ALA245      0.2617
    152  O         23.6160    9.4150   22.2160 O.2   245  ALA245     -0.2715
    153  CB        25.1890    6.4650   22.5620 C.3   245  ALA245      0.0334
    154  N         22.3620    7.6200   22.7770 N.am  246  GLY246     -0.1940
    155  CA        21.1480    8.1370   22.1770 C.3   246  GLY246      0.2014
    156  C         20.6540    9.4230   22.8120 C.2   246  GLY246      0.2638
    157  O         20.1850   10.3220   22.1150 O.2   246  GLY246     -0.2714
    158  N         20.7550    9.5160   24.1350 N.am  247  ASP247     -0.1971
    159  CA        20.3050   10.7120   24.8380 C.3   247  ASP247      0.1709
    160  C         21.1800   11.9020   24.4670 C.2   247  ASP247      0.2293
    161  O         20.6970   13.0260   24.3790 O.2   247  ASP247     -0.2864
    162  CB        20.3370   10.5020   26.3550 C.3   247  ASP247      0.1436
    163  CG        19.4230    9.3690   26.8110 C.2   247  ASP247      0.3671
    164  OD1       18.2990    9.2270   26.2600 O.co2 247  ASP247     -0.2456
    165  OD2       19.8320    8.6390   27.7360 O.co2 247  ASP247     -0.2456
    166  N         22.6600   12.2800   21.6150 N.3   249  PHE249     -0.1241
    167  CA        22.2240   12.6040   20.2630 C.3   249  PHE249      0.1605
    168  C         21.0090   13.5250   20.3860 C.2   249  PHE249      0.2264
    169  O         20.9660   14.5940   19.7770 O.2   249  PHE249     -0.2867
    170  CB        21.8250   11.3300   19.5090 C.3   249  PHE249      0.0534
    171  CG        21.3410   11.5730   18.1020 C.ar  249  PHE249     -0.0203
    172  CD1       22.2410   11.6390   17.0430 C.ar  249  PHE249     -0.0042
    173  CD2       19.9850   11.7360   17.8350 C.ar  249  PHE249     -0.0042
    174  CE1       21.8060   11.8580   15.7440 C.ar  249  PHE249     -0.0003
    175  CE2       19.5360   11.9570   16.5320 C.ar  249  PHE249     -0.0003
    176  CZ        20.4480   12.0150   15.4870 C.ar  249  PHE249     -0.0000
    177  N         24.7300   14.0600   15.6580 N.3   284  ALA284     -0.1245
    178  CA        25.5280   12.8450   15.5190 C.3   284  ALA284      0.1562
    179  C         26.9040   13.0700   16.1440 C.2   284  ALA284      0.2260
    180  O         27.4700   12.1580   16.7540 O.2   284  ALA284     -0.2867
    181  CB        25.6750   12.4690   14.0430 C.3   284  ALA284      0.0290
    182  N         26.6250   12.7750   19.9150 N.3   287  GLY287     -0.1210
    183  CA        26.5150   11.3650   20.2570 C.3   287  GLY287      0.1956
    184  C         27.8480   10.6380   20.1650 C.2   287  GLY287      0.2611
    185  O         28.1620    9.8080   21.0150 O.2   287  GLY287     -0.2717
    186  N         28.6340   10.9530   19.1380 N.am  288  ALA288     -0.1979
    187  CA        29.9330   10.3140   18.9590 C.3   288  ALA288      0.1597
    188  C         30.9030   10.6450   20.0940 C.2   288  ALA288      0.2287
    189  O         31.6180    9.7710   20.5740 O.2   288  ALA288     -0.2864
    190  CB        30.5430   10.7160   17.6150 C.3   288  ALA288      0.0319
    191  N         29.9260    8.6730   23.4570 N.3   291  VAL291     -0.1245
    192  CA        30.2650    7.2520   23.4780 C.3   291  VAL291      0.1561
    193  C         31.7550    6.9860   23.7120 C.2   291  VAL291      0.2260
    194  O         32.1470    5.8720   24.0740 O.2   291  VAL291     -0.2867
    195  CB        29.8280    6.5500   22.1590 C.3   291  VAL291      0.0252
    196  CG1       30.6690    7.0410   20.9870 C.3   291  VAL291      0.0019
    197  CG2       29.9610    5.0480   22.3080 C.3   291  VAL291      0.0019
@<TRIPOS>BOND
     1    83    82    2
     2   114   113    1
     3   115   113    1
     4   113   112    2
     5    82    81    1
     6    87    88    1
     7    90    89    2
     8    80    81    1
     9   112   111    1
    10   111   110    1
    11    81    84    1
    12    89    88    1
    13    89    94   am
    14    88    91    1
    15    68    67   ar
    16    78    77    2
    17   110   109    1
    18    86    84    1
    19    92    91    1
    20   109   106    1
    21   102   104   ar
    22   102   100   ar
    23   104   103   ar
    24    84    85    1
    25    91    93    1
    26    77    76    1
    27   100    99   ar
    28    94    95    1
    29    95    96    1
    30    95    98    1
    31    67    69   ar
    32    67    66    1
    33   105    96   am
    34   105   106    1
    35    96    97    2
    36   103   101   ar
    37   106   107    1
    38    99   101   ar
    39    99    98    1
    40    79    76    1
    41    76    75    1
    42    66    63    1
    43   181   178    1
    44   107   108    2
    45   107   116   am
    46    55    56    1
    47    75    72   am
    48    58    57    2
    49    56    57    1
    50    56    59    1
    51    57    62   am
    52    62    63    1
    53    63    64    1
    54    73    72    2
    55    65    64    2
    56    72    71    1
    57   176   174   ar
    58   176   175   ar
    59   178   177    1
    60   178   179    1
    61   116   117    1
    62    64    70   am
    63   174   172   ar
    64    70    71    1
    65   179   180    2
    66    59    61    1
    67    59    60    1
    68    43    42    2
    69    71    74    1
    70    42    41    1
    71   175   173   ar
    72    46    47    1
    73   117   118    1
    74   117   120    1
    75   172   171   ar
    76   119   118    2
    77    53    52   ar
    78    47    48    1
    79    47    50    1
    80   121   120    1
    81    49    48    2
    82    41    40    1
    83    41    44    1
    84   190   187    1
    85   120   122    1
    86   173   171   ar
    87    32    31    1
    88    32    33    1
    89    32    35    1
    90   171   170    1
    91    52    51    1
    92    52    54   ar
    93    51    50    1
    94    33    34    2
    95    36    35    1
    96    36    37    1
    97    44    45    1
    98   187   186    1
    99   187   188    1
   100   186   184   am
   101   170   167    1
   102    37    38    1
   103    38    39    1
   104   169   168    2
   105   182   183    1
   106   188   189    2
   107   129   127    1
   108   184   183    1
   109   184   185    2
   110   167   168    1
   111   167   166    1
   112   123   124    1
   113   196   195    1
   114   127   124    1
   115   127   128    1
   116   124   125    1
   117   157   156    2
   118   195   197    1
   119   195   192    1
   120   155   154    1
   121   155   156    1
   122   152   151    2
   123   153   150    1
   124   151   154   am
   125   151   150    1
   126   156   158   am
   127   126   125    2
   128   150   149    1
   129   191   192    1
   130   192   193    1
   131   134   135    1
   132   134   131    1
   133   193   194    2
   134    12    13    1
   135   158   159    1
   136   161   160    2
   137   160   159    1
   138   131   130    1
   139   131   132    1
   140   149   146   am
   141   159   162    1
   142   133   132    2
   143    13    14    1
   144    13    16    1
   145   132   136   am
   146   147   146    2
   147    14    15    2
   148   146   145    1
   149    16    17    1
   150    29    28    1
   151    19    17   am
   152   164   163   ar
   153    30    28    1
   154   162   163    1
   155    17    18    2
   156    28    27    2
   157   136   137    1
   158   163   165   ar
   159   145   144    1
   160   145   148    1
   161   139   138    2
   162   144   138   am
   163   138   137    1
   164    20    21    1
   165   137   140    1
   166    27    26    1
   167    11     9    1
   168    10     9    1
   169    26    25    1
   170    21    22    1
   171    21    24    1
   172     9     8    2
   173    25    24    1
   174    22    23    2
   175   140   141    1
   176     8     7    1
   177     1     2    1
   178     5     6    1
   179     5     2    1
   180     7     6    1
   181   142   141    2
   182   141   143   am
   183     2     3    1
   184     4     3    2
