@<TRIPOS>MOLECULE
tmp/3lkjC00.pdb
 150 148 0 0 0
SMALL
GASTEIGER

@<TRIPOS>ATOM
      1  N         42.2850   28.3360   15.3440 N.3     1  GLN1       -0.1245
      2  CA        40.8410   28.5630   15.6860 C.3     1  GLN1        0.1566
      3  C         40.5890   28.4180   17.1870 C.2     1  GLN1        0.2260
      4  O         41.0460   27.4470   17.7980 O.2     1  GLN1       -0.2867
      5  CB        39.9280   27.6100   14.9030 C.3     1  GLN1        0.0367
      6  CG        38.6770   27.1530   15.6880 C.3     1  GLN1        0.0905
      7  CD        37.4950   28.1460   15.6700 C.2     1  GLN1        0.2608
      8  OE1       36.3270   27.7040   15.6820 O.2     1  GLN1       -0.2717
      9  NE2       37.7810   29.4810   15.6550 N.am    1  GLN1       -0.0878
     10  N         38.0830   28.0560   20.3560 N.3     3  ALA3       -0.1231
     11  CA        36.7920   27.5240   20.7540 C.3     3  ALA3        0.1694
     12  C         36.9330   26.6520   21.9740 C.2     3  ALA3        0.2592
     13  O         37.8890   25.9070   22.1030 O.2     3  ALA3       -0.2718
     14  CB        36.1690   26.7240   19.6290 C.3     3  ALA3        0.0304
     15  N         35.9650   26.7420   22.8650 N.am    4  ALA4       -0.1966
     16  CA        35.8620   25.8220   23.9780 C.3     4  ALA4        0.1728
     17  C         34.4500   25.2620   23.9330 C.2     4  ALA4        0.2616
     18  O         33.5060   25.9800   23.6010 O.2     4  ALA4       -0.2715
     19  CB        36.0980   26.5190   25.2670 C.3     4  ALA4        0.0334
     20  N         34.3220   23.9760   24.2290 N.am    5  HIS5       -0.1973
     21  CA        33.0470   23.3970   24.5030 C.3     5  HIS5        0.1656
     22  C         33.1350   22.5710   25.7580 C.2     5  HIS5        0.2291
     23  O         33.8920   21.6140   25.8350 O.2     5  HIS5       -0.2864
     24  CB        32.5760   22.5250   23.3530 C.3     5  HIS5        0.0771
     25  CG        31.2250   21.9320   23.5890 C.ar    5  HIS5        0.0820
     26  ND1       30.0640   22.5230   23.1350 N.ar    5  HIS5       -0.2267
     27  CD2       30.8430   20.8310   24.2790 C.ar    5  HIS5        0.1154
     28  CE1       29.0240   21.7980   23.5190 C.ar    5  HIS5        0.1986
     29  NE2       29.4700   20.7590   24.2050 N.ar    5  HIS5       -0.2212
     30  N         31.1830   20.7560   29.4280 N.3     7  ILE7       -0.1245
     31  CA        29.9890   19.9800   29.8590 C.3     7  ILE7        0.1561
     32  C         29.6240   20.0720   31.3310 C.2     7  ILE7        0.2260
     33  O         30.4790   20.1480   32.1900 O.2     7  ILE7       -0.2867
     34  CB        30.1370   18.4910   29.5110 C.3     7  ILE7        0.0252
     35  CG1       29.7930   18.2660   28.0450 C.3     7  ILE7        0.0019
     36  CG2       29.1990   17.6220   30.3570 C.3     7  ILE7        0.0019
     37  CD1       30.9920   18.1200   27.1820 C.3     7  ILE7        0.0001
     38  N         34.7700   17.5440   27.2780 N.3    24  GLY24      -0.1210
     39  CA        34.4450   17.6000   25.8530 C.3    24  GLY24       0.1956
     40  C         35.0900   16.5950   24.9180 C.2    24  GLY24       0.2612
     41  O         36.0040   15.8550   25.2770 O.2    24  GLY24      -0.2717
     42  N         34.5900   16.5640   23.6970 N.am   25  TYR25      -0.1962
     43  CA        35.1230   15.6650   22.6610 C.3    25  TYR25       0.1771
     44  C         36.1660   16.3460   21.8190 C.2    25  TYR25       0.2619
     45  O         36.6290   15.7730   20.8530 O.2    25  TYR25      -0.2715
     46  CB        34.0050   15.1470   21.7670 C.3    25  TYR25       0.0574
     47  CG        33.3260   13.9380   22.3490 C.ar   25  TYR25      -0.0198
     48  CD1       33.1530   12.7720   21.5980 C.ar   25  TYR25      -0.0009
     49  CD2       32.8610   13.9580   23.6720 C.ar   25  TYR25      -0.0009
     50  CE1       32.5210   11.6520   22.1640 C.ar   25  TYR25       0.0417
     51  CE2       32.2490   12.8680   24.2360 C.ar   25  TYR25       0.0417
     52  CZ        32.0780   11.7200   23.4920 C.ar   25  TYR25       0.1957
     53  OH        31.4360   10.6660   24.1040 O.3    25  TYR25      -0.2866
     54  N         36.4950   17.5840   22.1820 N.am   26  TYR26      -0.1974
     55  CA        37.6370   18.2730   21.6190 C.3    26  TYR26       0.1639
     56  C         38.6120   18.7880   22.6860 C.2    26  TYR26       0.2290
     57  O         38.2530   19.1170   23.8230 O.2    26  TYR26      -0.2864
     58  CB        37.1950   19.4130   20.6680 C.3    26  TYR26       0.0560
     59  CG        36.5550   18.9050   19.4080 C.ar   26  TYR26      -0.0198
     60  CD1       35.2040   18.5980   19.3830 C.ar   26  TYR26      -0.0009
     61  CD2       37.2940   18.7200   18.2480 C.ar   26  TYR26      -0.0009
     62  CE1       34.6140   18.1360   18.2710 C.ar   26  TYR26       0.0417
     63  CE2       36.7000   18.2300   17.0970 C.ar   26  TYR26       0.0417
     64  CZ        35.3500   17.9340   17.1330 C.ar   26  TYR26       0.1957
     65  OH        34.6860   17.4450   16.0310 O.3    26  TYR26      -0.2866
     66  N         30.8040   33.9410   19.2270 N.3    50  TYR50      -0.1241
     67  CA        29.4740   33.3880   19.2800 C.3    50  TYR50       0.1605
     68  C         29.4930   32.5090   20.5290 C.2    50  TYR50       0.2264
     69  O         30.2930   31.5710   20.6140 O.2    50  TYR50      -0.2867
     70  CB        29.0910   32.5930   18.0100 C.3    50  TYR50       0.0534
     71  CG        27.7410   31.9180   18.1380 C.ar   50  TYR50      -0.0201
     72  CD1       26.5670   32.6280   17.8750 C.ar   50  TYR50      -0.0009
     73  CD2       27.6280   30.5730   18.5480 C.ar   50  TYR50      -0.0009
     74  CE1       25.2800   32.0230   18.0130 C.ar   50  TYR50       0.0417
     75  CE2       26.3580   29.9440   18.6980 C.ar   50  TYR50       0.0417
     76  CZ        25.1780   30.6880   18.4270 C.ar   50  TYR50       0.1957
     77  OH        23.9020   30.1440   18.5650 O.3    50  TYR50      -0.2866
     78  N         27.3160   30.2810   23.5310 N.3    52  TYR52      -0.1227
     79  CA        26.1260   29.4820   23.5740 C.3    52  TYR52       0.1736
     80  C         26.0670   28.6520   24.8100 C.2    52  TYR52       0.2595
     81  O         27.0920   28.3260   25.4220 O.2    52  TYR52      -0.2718
     82  CB        26.0370   28.5630   22.3330 C.3    52  TYR52       0.0548
     83  CG        27.1560   27.5690   22.1980 C.ar   52  TYR52      -0.0200
     84  CD1       28.2690   27.8750   21.4520 C.ar   52  TYR52      -0.0009
     85  CD2       27.0960   26.3200   22.7910 C.ar   52  TYR52      -0.0009
     86  CE1       29.3060   26.9850   21.2980 C.ar   52  TYR52       0.0417
     87  CE2       28.1570   25.4030   22.6560 C.ar   52  TYR52       0.0417
     88  CZ        29.2490   25.7580   21.8950 C.ar   52  TYR52       0.1957
     89  OH        30.3300   24.9190   21.7290 O.3    52  TYR52      -0.2866
     90  N         24.8470   28.2820   25.1470 N.am   53  ALA53      -0.1966
     91  CA        24.6050   27.2650   26.1270 C.3    53  ALA53       0.1728
     92  C         23.3680   26.5320   25.7370 C.2    53  ALA53       0.2616
     93  O         22.4860   27.0540   25.0230 O.2    53  ALA53      -0.2715
     94  CB        24.4060   27.8800   27.4960 C.3    53  ALA53       0.0334
     95  N         23.2920   25.3170   26.2510 N.am   54  GLN54      -0.1977
     96  CA        22.0430   24.6020   26.3410 C.3    54  GLN54       0.1601
     97  C         21.9210   24.1270   27.7620 C.2    54  GLN54       0.2287
     98  O         22.8600   23.6010   28.3250 O.2    54  GLN54      -0.2864
     99  CB        22.0310   23.4330   25.3810 C.3    54  GLN54       0.0394
    100  CG        20.9180   22.4360   25.5910 C.3    54  GLN54       0.0908
    101  CD        21.1120   21.2010   24.7500 C.2    54  GLN54       0.2608
    102  OE1       21.4870   21.3020   23.5770 O.2    54  GLN54      -0.2717
    103  NE2       20.8980   20.0340   25.3340 N.am   54  GLN54      -0.0878
    104  N         17.8490   27.1330   25.2270 N.3    92  HIS92      -0.1226
    105  CA        19.0460   27.4290   24.4520 C.3    92  HIS92       0.1752
    106  C         19.2730   28.8880   24.3750 C.2    92  HIS92       0.2596
    107  O         18.3580   29.6410   24.0740 O.2    92  HIS92      -0.2718
    108  CB        18.9460   26.9060   23.0450 C.3    92  HIS92       0.0759
    109  CG        18.6800   25.4450   22.9780 C.ar   92  HIS92       0.0818
    110  ND1       17.4250   24.9310   22.7290 N.ar   92  HIS92      -0.2268
    111  CD2       19.5040   24.3820   23.1430 C.ar   92  HIS92       0.1154
    112  CE1       17.4930   23.6100   22.7140 C.ar   92  HIS92       0.1986
    113  NE2       18.7410   23.2530   22.9690 N.ar   92  HIS92      -0.2212
    114  N         20.5190   29.2620   24.6460 N.am   93  LEU93      -0.1966
    115  CA        20.9950   30.6120   24.5460 C.3    93  LEU93       0.1728
    116  C         22.0910   30.6000   23.5120 C.2    93  LEU93       0.2616
    117  O         22.8550   29.6240   23.4440 O.2    93  LEU93      -0.2715
    118  CB        21.5730   31.0400   25.8870 C.3    93  LEU93       0.0311
    119  CG        20.6590   30.9600   27.1340 C.3    93  LEU93       0.0022
    120  CD1       21.4830   31.0450   28.4040 C.3    93  LEU93       0.0001
    121  CD2       19.6340   32.0520   27.1430 C.3    93  LEU93       0.0001
    122  N         22.1650   31.6540   22.6940 N.am   94  GLY94      -0.1955
    123  CA        23.3050   31.8650   21.8010 C.3    94  GLY94       0.1869
    124  C         23.3120   33.2550   21.2150 C.2    94  GLY94       0.2309
    125  O         22.2910   33.7650   20.8660 O.2    94  GLY94      -0.2863
    126  N         32.9350   30.1580   20.3040 N.3   127  LEU127     -0.1231
    127  CA        33.8850   30.1060   19.2430 C.3   127  LEU127      0.1693
    128  C         34.0750   31.4730   18.6220 C.2   127  LEU127      0.2592
    129  O         33.1210   32.1770   18.3130 O.2   127  LEU127     -0.2718
    130  CB        33.4740   29.0810   18.2160 C.3   127  LEU127      0.0284
    131  CG        32.0650   29.0360   17.6840 C.3   127  LEU127      0.0019
    132  CD1       32.1500   28.6520   16.2020 C.3   127  LEU127      0.0001
    133  CD2       31.3030   27.9740   18.4420 C.3   127  LEU127      0.0001
    134  N         35.3400   31.8340   18.4640 N.am  128  LYS128     -0.1966
    135  CA        35.7130   33.1330   17.9520 C.3   128  LYS128      0.1728
    136  C         35.3180   33.2380   16.4940 C.2   128  LYS128      0.2616
    137  O         35.4160   32.2610   15.7580 O.2   128  LYS128     -0.2715
    138  CB        37.2130   33.3540   18.1480 C.3   128  LYS128      0.0311
    139  CG        37.6480   34.7840   17.9530 C.3   128  LYS128      0.0038
    140  CD        38.8700   35.0820   18.7320 C.3   128  LYS128      0.0206
    141  CE        39.8220   35.9520   17.9260 C.3   128  LYS128      0.1093
    142  NZ        39.2840   37.3070   17.7900 N.3   128  LYS128     -0.1314
    143  N         34.8390   34.4140   16.0910 N.am  129  LEU129     -0.1977
    144  CA        34.4460   34.6590   14.6940 C.3   129  LEU129      0.1596
    145  C         35.5900   35.1990   13.8400 C.2   129  LEU129      0.2287
    146  O         36.4270   36.0000   14.3090 O.2   129  LEU129     -0.2864
    147  CB        33.2720   35.6190   14.5870 C.3   129  LEU129      0.0297
    148  CG        31.9780   35.4170   15.3630 C.3   129  LEU129      0.0022
    149  CD1       30.9520   36.3100   14.7040 C.3   129  LEU129      0.0001
    150  CD2       31.5400   33.9830   15.3630 C.3   129  LEU129      0.0001
@<TRIPOS>BOND
     1   145   146    2
     2   145   144    1
     3   147   144    1
     4   147   148    1
     5   144   143    1
     6   149   148    1
     7     5     2    1
     8     5     6    1
     9     1     2    1
    10   150   148    1
    11     9     7   am
    12     7     8    2
    13     7     6    1
    14     2     3    1
    15   137   136    2
    16    65    64    1
    17   143   136   am
    18   132   131    1
    19   136   135    1
    20    63    64   ar
    21    63    61   ar
    22    64    62   ar
    23     3     4    2
    24   131   130    1
    25   131   133    1
    26   142   141    1
    27    72    74   ar
    28    72    71   ar
    29   141   140    1
    30   135   138    1
    31   135   134    1
    32   139   138    1
    33   139   140    1
    34    70    71    1
    35    70    67    1
    36    74    76   ar
    37    71    73   ar
    38   130   127    1
    39    61    59   ar
    40    62    60   ar
    41   129   128    2
    42    76    77    1
    43    76    75   ar
    44   134   128   am
    45    73    75   ar
    46   128   127    1
    47    66    67    1
    48   127   126    1
    49    67    68    1
    50    60    59   ar
    51    59    58    1
    52    14    11    1
    53    10    11    1
    54    68    69    2
    55    58    55    1
    56    11    12    1
    57    45    44    2
    58   125   124    2
    59   124   123    1
    60    86    84   ar
    61    86    88   ar
    62    84    83   ar
    63    48    50   ar
    64    48    47   ar
    65    55    54    1
    66    55    56    1
    67    89    88    1
    68    46    47    1
    69    46    43    1
    70   123   122    1
    71    44    54   am
    72    44    43    1
    73    88    87   ar
    74    12    13    2
    75    12    15   am
    76    50    52   ar
    77    83    82    1
    78    83    85   ar
    79    82    79    1
    80    47    49   ar
    81    87    85   ar
    82    43    42    1
    83    56    57    2
    84   122   116   am
    85   112   110   ar
    86   112   113   ar
    87   110   109   ar
    88    15    16    1
    89   113   111   ar
    90   109   108    1
    91   109   111   ar
    92   108   105    1
    93    26    28   ar
    94    26    25   ar
    95    24    25    1
    96    24    21    1
    97   117   116    2
    98    52    53    1
    99    52    51   ar
   100   116   115    1
   101    28    29   ar
   102    78    79    1
   103    79    80    1
   104   102   101    2
   105    25    27   ar
   106    18    17    2
   107    49    51   ar
   108    42    40   am
   109    17    16    1
   110    17    20   am
   111    16    19    1
   112   107   106    2
   113    29    27   ar
   114    20    21    1
   115   106   105    1
   116   106   114   am
   117   105   104    1
   118    21    22    1
   119   115   114    1
   120   115   118    1
   121   101   103   am
   122   101   100    1
   123    80    90   am
   124    80    81    2
   125    40    41    2
   126    40    39    1
   127    93    92    2
   128    90    91    1
   129    99   100    1
   130    99    96    1
   131    92    91    1
   132    92    95   am
   133    22    23    2
   134    39    38    1
   135   118   119    1
   136    91    94    1
   137    95    96    1
   138    96    97    1
   139   119   121    1
   140   119   120    1
   141    37    35    1
   142    97    98    2
   143    35    34    1
   144    30    31    1
   145    34    31    1
   146    34    36    1
   147    31    32    1
   148    32    33    2
