@<TRIPOS>MOLECULE
tmp/3lkjA01.pdb
 90 86 0 0 0
SMALL
GASTEIGER

@<TRIPOS>ATOM
      1  N         31.2650   26.9880    2.0510 N.3     1  GLN1       -0.1245
      2  CA        30.3330   26.9720    3.2260 C.3     1  GLN1        0.1566
      3  C         29.1420   26.0710    2.9480 C.2     1  GLN1        0.2260
      4  O         28.4380   26.2500    1.9490 O.2     1  GLN1       -0.2867
      5  CB        29.8180   28.3670    3.5570 C.3     1  GLN1        0.0367
      6  CG        28.9780   28.4040    4.8470 C.3     1  GLN1        0.0905
      7  CD        29.7560   27.9680    6.1320 C.2     1  GLN1        0.2608
      8  OE1       29.6290   26.8100    6.6150 O.2     1  GLN1       -0.2717
      9  NE2       30.5520   28.8870    6.6740 N.am    1  GLN1       -0.0878
     10  N         31.5430   18.1780   11.2720 N.3    48  LEU48      -0.1245
     11  CA        30.7940   18.6810   12.4010 C.3    48  LEU48       0.1561
     12  C         29.6930   19.6100   11.9170 C.2    48  LEU48       0.2260
     13  O         29.9690   20.7150   11.4040 O.2    48  LEU48      -0.2867
     14  CB        31.7420   19.4360   13.3420 C.3    48  LEU48       0.0270
     15  CG        31.2570   19.7750   14.7620 C.3    48  LEU48       0.0019
     16  CD1       30.9180   18.5150   15.5540 C.3    48  LEU48       0.0001
     17  CD2       32.2760   20.6080   15.5320 C.3    48  LEU48       0.0001
     18  N         25.9490   21.5940   12.7630 N.3    50  TYR50      -0.1241
     19  CA        24.8400   22.0310   13.5840 C.3    50  TYR50       0.1605
     20  C         23.5590   21.7390   12.7640 C.2    50  TYR50       0.2264
     21  O         23.4050   22.2220   11.6360 O.2    50  TYR50      -0.2867
     22  CB        24.9700   23.5410   13.9530 C.3    50  TYR50       0.0534
     23  CG        23.7380   24.1310   14.6390 C.ar   50  TYR50      -0.0201
     24  CD1       23.4710   23.8940   16.0020 C.ar   50  TYR50      -0.0009
     25  CD2       22.8230   24.9110   13.8990 C.ar   50  TYR50      -0.0009
     26  CE1       22.3160   24.4220   16.6090 C.ar   50  TYR50       0.0417
     27  CE2       21.6830   25.4430   14.4770 C.ar   50  TYR50       0.0417
     28  CZ        21.4190   25.1870   15.8290 C.ar   50  TYR50       0.1957
     29  OH        20.2780   25.7450   16.3700 O.3    50  TYR50      -0.2866
     30  N         11.1540   22.7020   18.9290 N.3    96  HIS96      -0.1241
     31  CA        12.4810   22.6990   18.3230 C.3    96  HIS96       0.1621
     32  C         13.3450   21.5140   18.7610 C.2    96  HIS96       0.2264
     33  O         13.2980   21.0610   19.9050 O.2    96  HIS96      -0.2867
     34  CB        13.2350   24.0550   18.4600 C.3    96  HIS96       0.0745
     35  CG        13.5660   24.4710   19.8740 C.ar   96  HIS96       0.0817
     36  ND1       12.6920   25.1980   20.6660 N.ar   96  HIS96      -0.2268
     37  CD2       14.7010   24.3190   20.6150 C.ar   96  HIS96       0.1154
     38  CE1       13.2590   25.4390   21.8420 C.ar   96  HIS96       0.1986
     39  NE2       14.4880   24.9400   21.8320 N.ar   96  HIS96      -0.2212
     40  N         17.5300   20.4190   17.8840 N.3    98  GLY98      -0.1210
     41  CA        18.7790   20.8750   17.3070 C.3    98  GLY98       0.1956
     42  C         19.9930   20.4740   18.1280 C.2    98  GLY98       0.2612
     43  O         19.9050   20.2600   19.3370 O.2    98  GLY98      -0.2717
     44  N         21.1380   20.4130   17.4600 N.am   99  GLY99      -0.1942
     45  CA        22.4090   20.2420   18.1170 C.3    99  GLY99       0.2014
     46  C         23.5050   19.9600   17.1010 C.2    99  GLY99       0.2639
     47  O         23.3190   20.1030   15.8660 O.2    99  GLY99      -0.2714
     48  N         24.6480   19.5240   17.6190 N.am  100  VAL100     -0.1963
     49  CA        25.8320   19.3970   16.8130 C.3   100  VAL100      0.1727
     50  C         26.2480   17.9460   16.8310 C.2   100  VAL100      0.2616
     51  O         26.1440   17.3050   17.8260 O.2   100  VAL100     -0.2715
     52  CB        26.9320   20.3370   17.3490 C.3   100  VAL100      0.0290
     53  CG1       28.2720   19.9560   16.7940 C.3   100  VAL100      0.0023
     54  CG2       26.5840   21.7840   16.9980 C.3   100  VAL100      0.0023
     55  N         26.6950   17.4300   15.7050 N.am  101  PHE101     -0.1960
     56  CA        26.8760   16.0060   15.5390 C.3   101  PHE101      0.1771
     57  C         27.9430   15.8570   14.4880 C.2   101  PHE101      0.2619
     58  O         28.1140   16.7230   13.6590 O.2   101  PHE101     -0.2715
     59  CB        25.5880   15.3590   14.9950 C.3   101  PHE101      0.0574
     60  CG        24.4120   15.4650   15.9210 C.ar  101  PHE101     -0.0200
     61  CD1       24.2830   14.5990   17.0030 C.ar  101  PHE101     -0.0042
     62  CD2       23.4380   16.4220   15.7150 C.ar  101  PHE101     -0.0042
     63  CE1       23.2330   14.6840   17.8900 C.ar  101  PHE101     -0.0003
     64  CE2       22.3320   16.5190   16.6050 C.ar  101  PHE101     -0.0003
     65  CZ        22.2450   15.6240   17.6900 C.ar  101  PHE101     -0.0000
     66  N         28.6460   14.7350   14.5360 N.am  102  GLU102     -0.1977
     67  CA        29.7030   14.4300   13.6280 C.3   102  GLU102      0.1602
     68  C         29.1020   13.4680   12.6620 C.2   102  GLU102      0.2287
     69  O         28.7070   12.3690   13.0470 O.2   102  GLU102     -0.2864
     70  CB        30.8560   13.7460   14.3650 C.3   102  GLU102      0.0415
     71  CG        31.8500   14.7290   14.9980 C.3   102  GLU102      0.1163
     72  CD        32.8440   14.0790   15.9480 C.2   102  GLU102      0.3649
     73  OE1       32.5750   12.9320   16.4000 O.co2 102  GLU102     -0.2457
     74  OE2       33.8810   14.7260   16.2560 O.co2 102  GLU102     -0.2457
     75  N         24.2120   23.2580    9.0140 N.3   131  LEU131     -0.1245
     76  CA        25.3050   24.1610    8.8470 C.3   131  LEU131      0.1561
     77  C         26.5480   23.4200    9.2700 C.2   131  LEU131      0.2260
     78  O         26.6390   23.0200   10.4280 O.2   131  LEU131     -0.2867
     79  CB        25.0710   25.3320    9.7710 C.3   131  LEU131      0.0270
     80  CG        26.1780   26.3580    9.7390 C.3   131  LEU131      0.0019
     81  CD1       26.5250   26.7860    8.2830 C.3   131  LEU131      0.0001
     82  CD2       25.6630   27.5400   10.5950 C.3   131  LEU131      0.0001
     83  N         30.1450   23.1410   10.6330 N.3   133  LEU133     -0.1245
     84  CA        31.0010   23.9980   11.4700 C.3   133  LEU133      0.1561
     85  C         32.4960   23.8130   11.1680 C.2   133  LEU133      0.2260
     86  O         32.8770   22.9450   10.3490 O.2   133  LEU133     -0.2867
     87  CB        30.7600   23.7400   12.9510 C.3   133  LEU133      0.0270
     88  CG        29.3330   24.0250   13.4310 C.3   133  LEU133      0.0019
     89  CD1       29.1150   23.4650   14.8400 C.3   133  LEU133      0.0001
     90  CD2       29.0520   25.5270   13.3640 C.3   133  LEU133      0.0001
@<TRIPOS>BOND
     1     4     3    2
     2     1     2    1
     3     3     2    1
     4     2     5    1
     5     5     6    1
     6     6     7    1
     7     7     8    2
     8     7     9   am
     9    81    80    1
    10    76    75    1
    11    76    77    1
    12    76    79    1
    13    77    78    2
    14    80    79    1
    15    80    82    1
    16    86    85    2
    17    83    84    1
    18    85    84    1
    19    10    11    1
    20    13    12    2
    21    84    87    1
    22    21    20    2
    23    12    11    1
    24    11    14    1
    25    68    69    2
    26    68    67    1
    27    18    19    1
    28    20    19    1
    29    87    88    1
    30    14    15    1
    31    90    88    1
    32    88    89    1
    33    19    22    1
    34    67    70    1
    35    67    66    1
    36    58    57    2
    37    25    27   ar
    38    25    23   ar
    39    22    23    1
    40    70    71    1
    41    27    28   ar
    42    57    66   am
    43    57    56    1
    44    23    24   ar
    45    15    17    1
    46    15    16    1
    47    59    56    1
    48    59    60    1
    49    71    72    1
    50    56    55    1
    51    55    50   am
    52    62    60   ar
    53    62    64   ar
    54    28    29    1
    55    28    26   ar
    56    47    46    2
    57    60    61   ar
    58    72    74   ar
    59    72    73   ar
    60    24    26   ar
    61    64    65   ar
    62    53    52    1
    63    49    50    1
    64    49    52    1
    65    49    48    1
    66    50    51    2
    67    54    52    1
    68    61    63   ar
    69    46    48   am
    70    46    45    1
    71    41    40    1
    72    41    42    1
    73    44    45    1
    74    44    42   am
    75    65    63   ar
    76    42    43    2
    77    31    34    1
    78    31    32    1
    79    31    30    1
    80    34    35    1
    81    32    33    2
    82    35    37   ar
    83    35    36   ar
    84    37    39   ar
    85    36    38   ar
    86    39    38   ar
