@<TRIPOS>MOLECULE
tmp/3lkkB00.pdb
 168 160 0 0 0
SMALL
GASTEIGER

@<TRIPOS>ATOM
      1  N         17.4090  -26.4980  -10.2290 N.3     7  LYS7       -0.1245
      2  CA        17.4940  -26.4670  -11.7000 C.3     7  LYS7        0.1561
      3  C         17.2460  -27.8810  -12.2340 C.2     7  LYS7        0.2260
      4  O         17.8900  -28.7970  -11.8030 O.2     7  LYS7       -0.2867
      5  CB        18.8700  -25.9930  -12.1890 C.3     7  LYS7        0.0271
      6  CG        18.9890  -26.0620  -13.7260 C.3     7  LYS7        0.0035
      7  CD        20.3620  -25.8610  -14.2810 C.3     7  LYS7        0.0206
      8  CE        20.3000  -26.0220  -15.7950 C.3     7  LYS7        0.1093
      9  NZ        21.6080  -26.0730  -16.4990 N.3     7  LYS7       -0.1314
     10  N         18.1060  -30.0200  -15.2450 N.3     9  GLY9       -0.1210
     11  CA        19.0190  -30.0120  -16.3750 C.3     9  GLY9        0.1956
     12  C         18.2940  -30.4840  -17.6460 C.2     9  GLY9        0.2612
     13  O         17.5240  -31.4280  -17.5910 O.2     9  GLY9       -0.2717
     14  N         18.5350  -29.8510  -18.7850 N.am   10  GLY10      -0.1942
     15  CA        18.0590  -30.4140  -20.0480 C.3    10  GLY10       0.2014
     16  C         18.5560  -31.8490  -20.3000 C.2    10  GLY10       0.2639
     17  O         17.9300  -32.6140  -21.0100 O.2    10  GLY10      -0.2714
     18  N         19.6950  -32.2250  -19.7470 N.am   11  SER11      -0.1949
     19  CA        20.2120  -33.5830  -20.0060 C.3    11  SER11       0.1924
     20  C         19.2010  -34.6190  -19.5290 C.2    11  SER11       0.2314
     21  O         19.1180  -35.6970  -20.0840 O.2    11  SER11      -0.2863
     22  CB        21.5670  -33.8110  -19.3460 C.3    11  SER11       0.2116
     23  OG        21.4980  -33.7210  -17.9230 O.3    11  SER11      -0.2180
     24  N         19.0550  -35.2110  -25.5710 N.3    16  LYS16      -0.1245
     25  CA        19.9760  -34.1730  -26.0490 C.3    16  LYS16       0.1561
     26  C         20.4730  -34.4020  -27.4870 C.2    16  LYS16       0.2260
     27  O         20.9200  -33.4600  -28.1470 O.2    16  LYS16      -0.2867
     28  CB        21.1610  -34.0320  -25.0790 C.3    16  LYS16       0.0271
     29  CG        20.7630  -33.3630  -23.7410 C.3    16  LYS16       0.0035
     30  CD        21.9770  -32.9450  -22.8870 C.3    16  LYS16       0.0206
     31  CE        21.6600  -31.6550  -22.1180 C.3    16  LYS16       0.1093
     32  NZ        22.8310  -30.7660  -21.8630 N.3    16  LYS16      -0.1314
     33  N         17.1810  -26.1540  -18.0360 N.3    46  GLY46      -0.1210
     34  CA        18.0400  -25.9530  -19.1970 C.3    46  GLY46       0.1956
     35  C         17.3030  -26.4300  -20.4220 C.2    46  GLY46       0.2612
     36  O         16.1160  -26.6980  -20.3310 O.2    46  GLY46      -0.2717
     37  N         17.9970  -26.5400  -21.5540 N.am   47  GLY47      -0.1942
     38  CA        17.3590  -26.8220  -22.8220 C.3    47  GLY47       0.2014
     39  C         17.7620  -28.1290  -23.4880 C.2    47  GLY47       0.2639
     40  O         17.0200  -28.6600  -24.2850 O.2    47  GLY47      -0.2714
     41  N         18.9020  -28.7020  -23.1740 N.am   48  GLY48      -0.1954
     42  CA        19.2520  -29.8930  -23.9340 C.3    48  GLY48       0.1869
     43  C         18.8590  -29.6340  -25.4050 C.2    48  GLY48       0.2309
     44  O         19.2900  -28.6310  -25.9990 O.2    48  GLY48      -0.2863
     45  N         20.5230  -26.3300  -27.4560 N.3    52  HIS52      -0.1241
     46  CA        21.9370  -26.2530  -27.8070 C.3    52  HIS52       0.1621
     47  C         22.1770  -26.5980  -29.2710 C.2    52  HIS52       0.2264
     48  O         23.1820  -26.1560  -29.8650 O.2    52  HIS52      -0.2867
     49  CB        22.8090  -27.1290  -26.9150 C.3    52  HIS52       0.0745
     50  CG        22.7250  -26.8010  -25.4550 C.ar   52  HIS52       0.0817
     51  ND1       22.4420  -25.5380  -24.9820 N.ar   52  HIS52      -0.2268
     52  CD2       22.8870  -27.5820  -24.3570 C.ar   52  HIS52       0.1154
     53  CE1       22.4130  -25.5610  -23.6610 C.ar   52  HIS52       0.1986
     54  NE2       22.6820  -26.7880  -23.2560 N.ar   52  HIS52      -0.2212
     55  N         22.6550  -19.3120  -19.7970 N.3   144  SER144     -0.1202
     56  CA        22.2800  -20.6820  -19.5030 C.3   144  SER144      0.2020
     57  C         21.4610  -20.7680  -18.1980 C.2   144  SER144      0.2619
     58  O         21.4130  -19.8260  -17.4050 O.2   144  SER144     -0.2717
     59  CB        23.5530  -21.5510  -19.3840 C.3   144  SER144      0.2103
     60  OG        24.2430  -21.2100  -18.1850 O.3   144  SER144     -0.2182
     61  N         20.8730  -21.9220  -17.9490 N.am  145  GLY145     -0.1956
     62  CA        20.0990  -22.1150  -16.7450 C.3   145  GLY145      0.1869
     63  C         21.0250  -22.0950  -15.5520 C.2   145  GLY145      0.2309
     64  O         20.6070  -21.6880  -14.5040 O.2   145  GLY145     -0.2863
     65  N         19.8010  -30.8210  -11.0050 N.3   164  LEU164     -0.1231
     66  CA        19.4740  -32.1840  -11.3860 C.3   164  LEU164      0.1693
     67  C         20.1170  -32.4400  -12.7520 C.2   164  LEU164      0.2593
     68  O         19.9380  -31.6300  -13.6630 O.2   164  LEU164     -0.2718
     69  CB        17.9490  -32.3530  -11.4480 C.3   164  LEU164      0.0284
     70  CG        17.1510  -32.2020  -10.1220 C.3   164  LEU164      0.0019
     71  CD1       15.6880  -32.5440  -10.3650 C.3   164  LEU164      0.0001
     72  CD2       17.6700  -33.1230   -9.0480 C.3   164  LEU164      0.0001
     73  N         20.9340  -33.4900  -12.8940 N.am  165  THR165     -0.1939
     74  CA        21.4530  -33.8610  -14.2270 C.3   165  THR165      0.2028
     75  C         21.1640  -35.3200  -14.4320 C.2   165  THR165      0.2642
     76  O         20.4620  -35.9450  -13.6520 O.2   165  THR165     -0.2714
     77  CB        22.9940  -33.6560  -14.4110 C.3   165  THR165      0.1808
     78  OG1       23.7290  -34.6200  -13.6290 O.3   165  THR165     -0.2208
     79  CG2       23.4150  -32.2590  -14.0060 C.3   165  THR165      0.0379
     80  N         21.6890  -35.8870  -15.4840 N.am  166  ASP166     -0.1957
     81  CA        21.3600  -37.2770  -15.7580 C.3   166  ASP166      0.1840
     82  C         22.4240  -38.2540  -15.1820 C.2   166  ASP166      0.2621
     83  O         22.3340  -39.4520  -15.4150 O.2   166  ASP166     -0.2715
     84  CB        21.1860  -37.4940  -17.2620 C.3   166  ASP166      0.1450
     85  CG        22.4700  -37.2600  -18.0300 C.2   166  ASP166      0.3671
     86  OD1       23.4000  -36.6010  -17.5040 O.co2 166  ASP166     -0.2456
     87  OD2       22.5600  -37.7250  -19.1680 O.co2 166  ASP166     -0.2456
     88  N         23.4010  -37.7430  -14.4300 N.am  167  VAL167     -0.1977
     89  CA        24.3220  -38.6060  -13.6590 C.3   167  VAL167      0.1596
     90  C         24.2400  -38.3330  -12.1400 C.2   167  VAL167      0.2287
     91  O         23.6130  -37.3530  -11.7040 O.2   167  VAL167     -0.2864
     92  CB        25.7700  -38.4600  -14.1640 C.3   167  VAL167      0.0276
     93  CG1       25.8300  -38.8440  -15.6540 C.3   167  VAL167      0.0022
     94  CG2       26.2890  -37.0630  -13.9620 C.3   167  VAL167      0.0022
     95  N         26.2500  -37.3350   -9.8450 N.3   169  GLY169     -0.1210
     96  CA        26.9310  -36.2040   -9.2510 C.3   169  GLY169      0.1956
     97  C         28.1910  -35.8880  -10.0260 C.2   169  GLY169      0.2612
     98  O         28.3370  -36.3330  -11.1310 O.2   169  GLY169     -0.2717
     99  N         29.0760  -35.0830   -9.4460 N.am  170  ILE170     -0.1965
    100  CA        30.3760  -34.8350  -10.0330 C.3   170  ILE170      0.1727
    101  C         31.2480  -36.0700   -9.8340 C.2   170  ILE170      0.2616
    102  O         31.3500  -36.5700   -8.7050 O.2   170  ILE170     -0.2715
    103  CB        31.0960  -33.7110   -9.3240 C.3   170  ILE170      0.0290
    104  CG1       30.3040  -32.4090   -9.4210 C.3   170  ILE170      0.0022
    105  CG2       32.4970  -33.5620   -9.8950 C.3   170  ILE170      0.0023
    106  CD1       30.3210  -31.8130  -10.8230 C.3   170  ILE170      0.0001
    107  N         31.8630  -36.5540  -10.9150 N.am  171  TYR171     -0.1974
    108  CA        32.8130  -37.6860  -10.8670 C.3   171  TYR171      0.1639
    109  C         34.2170  -37.1800  -11.1480 C.2   171  TYR171      0.2290
    110  O         34.3930  -36.1370  -11.7670 O.2   171  TYR171     -0.2864
    111  CB        32.4870  -38.7410  -11.9330 C.3   171  TYR171      0.0560
    112  CG        31.2920  -39.5980  -11.6360 C.ar  171  TYR171     -0.0198
    113  CD1       31.4540  -40.9060  -11.1910 C.ar  171  TYR171     -0.0009
    114  CD2       30.0020  -39.1110  -11.7860 C.ar  171  TYR171     -0.0009
    115  CE1       30.3590  -41.7070  -10.9010 C.ar  171  TYR171      0.0417
    116  CE2       28.8890  -39.9110  -11.5150 C.ar  171  TYR171      0.0417
    117  CZ        29.0760  -41.2030  -11.0750 C.ar  171  TYR171      0.1957
    118  OH        28.0020  -42.0120  -10.7800 O.3   171  TYR171     -0.2866
    119  N         36.0470  -38.2870  -13.3110 N.3   173  LYS173     -0.1231
    120  CA        36.0340  -38.0890  -14.7660 C.3   173  LYS173      0.1693
    121  C         34.6750  -38.4630  -15.3640 C.2   173  LYS173      0.2592
    122  O         33.8150  -39.0210  -14.6760 O.2   173  LYS173     -0.2718
    123  CB        37.1510  -38.8810  -15.4650 C.3   173  LYS173      0.0285
    124  CG        37.5460  -40.1910  -14.8010 C.3   173  LYS173      0.0035
    125  CD        38.5800  -40.9030  -15.6630 C.3   173  LYS173      0.0206
    126  CE        39.7920  -41.3510  -14.8790 C.3   173  LYS173      0.1093
    127  NZ        40.9140  -41.6690  -15.8310 N.3   173  LYS173     -0.1314
    128  N         34.4690  -38.1490  -16.6380 N.am  174  ASP174     -0.1960
    129  CA        33.1740  -38.4190  -17.2580 C.3   174  ASP174      0.1825
    130  C         32.7230  -39.8520  -16.9840 C.2   174  ASP174      0.2464
    131  O         33.3320  -40.7930  -17.4830 O.2   174  ASP174     -0.2730
    132  CB        33.2440  -38.2040  -18.7570 C.3   174  ASP174      0.1450
    133  CG        31.8770  -38.2820  -19.4210 C.2   174  ASP174      0.3671
    134  OD1       31.0070  -39.0600  -18.9740 O.co2 174  ASP174     -0.2456
    135  OD2       31.6660  -37.5590  -20.4030 O.co2 174  ASP174     -0.2456
    136  N         31.6380  -40.0270  -16.2120 N.am  175  PRO175     -0.2715
    137  CA        31.1710  -41.3760  -15.8780 C.3   175  PRO175      0.1536
    138  C         30.7060  -42.1950  -17.0590 C.2   175  PRO175      0.2598
    139  O         30.7280  -43.4290  -17.0000 O.2   175  PRO175     -0.2715
    140  CB        29.9950  -41.1220  -14.9340 C.3   175  PRO175      0.0310
    141  CG        29.5690  -39.7380  -15.1980 C.3   175  PRO175      0.0237
    142  CD        30.8110  -38.9910  -15.5720 C.3   175  PRO175      0.0939
    143  N         30.2510  -41.5300  -18.1090 N.am  176  LYS176     -0.1978
    144  CA        29.6850  -42.2340  -19.2560 C.3   176  LYS176      0.1596
    145  C         30.7860  -42.7990  -20.1500 C.2   176  LYS176      0.2287
    146  O         30.6090  -43.8320  -20.8030 O.2   176  LYS176     -0.2864
    147  CB        28.7960  -41.3010  -20.0630 C.3   176  LYS176      0.0298
    148  CG        27.5050  -40.9330  -19.3700 C.3   176  LYS176      0.0038
    149  CD        26.5230  -40.3290  -20.3700 C.3   176  LYS176      0.0206
    150  CE        25.6390  -39.2670  -19.7260 C.3   176  LYS176      0.1093
    151  NZ        24.7570  -38.6010  -20.7380 N.3   176  LYS176     -0.1314
    152  N         30.9360  -29.7840  -18.0540 N.3   195  ILE195     -0.1245
    153  CA        30.5580  -29.7700  -16.6420 C.3   195  ILE195      0.1561
    154  C         31.6020  -28.9820  -15.8670 C.2   195  ILE195      0.2260
    155  O         31.4230  -28.6760  -14.6790 O.2   195  ILE195     -0.2867
    156  CB        30.4360  -31.1850  -16.0470 C.3   195  ILE195      0.0252
    157  CG1       29.7760  -31.1190  -14.6730 C.3   195  ILE195      0.0019
    158  CG2       31.8010  -31.8260  -15.9340 C.3   195  ILE195      0.0019
    159  CD1       29.0980  -32.3810  -14.2750 C.3   195  ILE195      0.0001
    160  N         29.9490  -25.6570  -15.2390 N.3   198  LYS198     -0.1245
    161  CA        28.9060  -25.8080  -14.2450 C.3   198  LYS198      0.1565
    162  C         29.5410  -25.8610  -12.8600 C.2   198  LYS198      0.2260
    163  O         29.0500  -25.2260  -11.9030 O.2   198  LYS198     -0.2867
    164  CB        28.0530  -27.0610  -14.4990 C.3   198  LYS198      0.0317
    165  CG        26.9480  -27.2300  -13.4600 C.3   198  LYS198      0.0294
    166  CD        26.4570  -28.6760  -13.2910 C.2   198  LYS198     -0.0067
    167  CE        25.3890  -29.1520  -14.2890 C.2   198  LYS198      0.1012
    168  NZ        24.8390  -28.1600  -15.2320 N.pl3 198  LYS198     -0.1270
@<TRIPOS>BOND
     1    48    47    2
     2    47    46    1
     3    27    26    2
     4    46    45    1
     5    46    49    1
     6    26    25    1
     7    49    50    1
     8    25    24    1
     9    25    28    1
    10    44    43    2
    11    50    51   ar
    12    50    52   ar
    13    43    42    1
    14    28    29    1
    15    51    53   ar
    16    52    54   ar
    17    40    39    2
    18    42    41    1
    19    29    30    1
    20    53    54   ar
    21    39    41   am
    22    39    38    1
    23    30    31    1
    24    38    37    1
    25    31    32    1
    26    37    35   am
    27    17    16    2
    28   146   145    2
    29   151   150    1
    30    35    36    2
    31    35    34    1
    32   135   133   ar
    33   149   150    1
    34   149   148    1
    35    16    15    1
    36    16    18   am
    37   145   144    1
    38    21    20    2
    39   147   148    1
    40   147   144    1
    41    15    14    1
    42    19    18    1
    43    19    20    1
    44    19    22    1
    45    55    56    1
    46    56    59    1
    47    56    57    1
    48   133   134   ar
    49   133   132    1
    50    59    60    1
    51    22    23    1
    52   144   143    1
    53    34    33    1
    54    87    85   ar
    55    14    12   am
    56   132   129    1
    57    57    61   am
    58    57    58    2
    59   143   138   am
    60   152   153    1
    61    85    86   ar
    62    85    84    1
    63    61    62    1
    64    12    13    2
    65    12    11    1
    66   131   130    2
    67    84    81    1
    68   129   130    1
    69   129   128    1
    70   138   139    2
    71   138   137    1
    72   130   136   am
    73    62    63    1
    74   153   156    1
    75   153   154    1
    76   128   121   am
    77     9     8    1
    78    11    10    1
    79   136   137    1
    80   136   142    1
    81   156   158    1
    82   156   157    1
    83   137   140    1
    84   154   155    2
    85   127   126    1
    86     8     7    1
    87    81    80    1
    88    81    82    1
    89   125   126    1
    90   125   124    1
    91    93    92    1
    92   142   141    1
    93    63    64    2
    94    80    75   am
    95   123   124    1
    96   123   120    1
    97    83    82    2
    98   121   120    1
    99   121   122    2
   100   160   161    1
   101   168   167    1
   102   141   140    1
   103    82    88   am
   104   120   119    1
   105   157   159    1
   106   164   161    1
   107   164   165    1
   108    75    74    1
   109    75    76    2
   110    88    89    1
   111    77    74    1
   112    77    79    1
   113    77    78    1
   114   167   166    2
   115     7     6    1
   116   161   162    1
   117    74    73    1
   118    92    94    1
   119    92    89    1
   120     6     5    1
   121    68    67    2
   122    89    90    1
   123   165   166    1
   124    73    67   am
   125   162   163    2
   126    67    66    1
   127     3     4    2
   128     3     2    1
   129     5     2    1
   130    90    91    2
   131   111   112    1
   132   111   108    1
   133   114   112   ar
   134   114   116   ar
   135   110   109    2
   136     2     1    1
   137   112   113   ar
   138   116   117   ar
   139    69    66    1
   140    69    70    1
   141    66    65    1
   142   113   115   ar
   143   109   108    1
   144    98    97    2
   145   117   115   ar
   146   117   118    1
   147   107   108    1
   148   107   101   am
   149   106   104    1
   150    71    70    1
   151    70    72    1
   152   100   101    1
   153   100    99    1
   154   100   103    1
   155    97    99   am
   156    97    96    1
   157   105   103    1
   158    95    96    1
   159   101   102    2
   160   104   103    1
