@<TRIPOS>MOLECULE
tmp/3lkkB01.pdb
 113 103 0 0 0
SMALL
GASTEIGER

@<TRIPOS>ATOM
      1  N         17.4090  -26.4980  -10.2290 N.3     7  LYS7       -0.1245
      2  CA        17.4940  -26.4670  -11.7000 C.3     7  LYS7        0.1561
      3  C         17.2460  -27.8810  -12.2340 C.2     7  LYS7        0.2260
      4  O         17.8900  -28.7970  -11.8030 O.2     7  LYS7       -0.2867
      5  CB        18.8700  -25.9930  -12.1890 C.3     7  LYS7        0.0271
      6  CG        18.9890  -26.0620  -13.7260 C.3     7  LYS7        0.0035
      7  CD        20.3620  -25.8610  -14.2810 C.3     7  LYS7        0.0206
      8  CE        20.3000  -26.0220  -15.7950 C.3     7  LYS7        0.1093
      9  NZ        21.6080  -26.0730  -16.4990 N.3     7  LYS7       -0.1314
     10  N         18.5350  -29.8510  -18.7850 N.3    10  GLY10      -0.1225
     11  CA        18.0590  -30.4140  -20.0480 C.3    10  GLY10       0.1811
     12  C         18.5560  -31.8490  -20.3000 C.2    10  GLY10       0.2280
     13  O         17.9300  -32.6140  -21.0100 O.2    10  GLY10      -0.2866
     14  N         19.0550  -35.2110  -25.5710 N.3    16  LYS16      -0.1245
     15  CA        19.9760  -34.1730  -26.0490 C.3    16  LYS16       0.1561
     16  C         20.4730  -34.4020  -27.4870 C.2    16  LYS16       0.2260
     17  O         20.9200  -33.4600  -28.1470 O.2    16  LYS16      -0.2867
     18  CB        21.1610  -34.0320  -25.0790 C.3    16  LYS16       0.0271
     19  CG        20.7630  -33.3630  -23.7410 C.3    16  LYS16       0.0035
     20  CD        21.9770  -32.9450  -22.8870 C.3    16  LYS16       0.0206
     21  CE        21.6600  -31.6550  -22.1180 C.3    16  LYS16       0.1093
     22  NZ        22.8310  -30.7660  -21.8630 N.3    16  LYS16      -0.1314
     23  N         17.1810  -26.1540  -18.0360 N.3    46  GLY46      -0.1210
     24  CA        18.0400  -25.9530  -19.1970 C.3    46  GLY46       0.1956
     25  C         17.3030  -26.4300  -20.4220 C.2    46  GLY46       0.2612
     26  O         16.1160  -26.6980  -20.3310 O.2    46  GLY46      -0.2717
     27  N         17.9970  -26.5400  -21.5540 N.am   47  GLY47      -0.1942
     28  CA        17.3590  -26.8220  -22.8220 C.3    47  GLY47       0.2014
     29  C         17.7620  -28.1290  -23.4880 C.2    47  GLY47       0.2639
     30  O         17.0200  -28.6600  -24.2850 O.2    47  GLY47      -0.2714
     31  N         18.9020  -28.7020  -23.1740 N.am   48  GLY48      -0.1954
     32  CA        19.2520  -29.8930  -23.9340 C.3    48  GLY48       0.1869
     33  C         18.8590  -29.6340  -25.4050 C.2    48  GLY48       0.2309
     34  O         19.2900  -28.6310  -25.9990 O.2    48  GLY48      -0.2863
     35  N         17.3840  -26.3560  -27.0540 N.3    51  GLY51      -0.1210
     36  CA        18.2900  -25.2260  -27.2760 C.3    51  GLY51       0.1956
     37  C         19.6230  -25.5110  -28.0180 C.2    51  GLY51       0.2611
     38  O         19.8410  -24.9360  -29.0770 O.2    51  GLY51      -0.2717
     39  N         20.5230  -26.3300  -27.4560 N.am   52  HIS52      -0.1975
     40  CA        21.9370  -26.2530  -27.8070 C.3    52  HIS52       0.1656
     41  C         22.1770  -26.5980  -29.2710 C.2    52  HIS52       0.2291
     42  O         23.1820  -26.1560  -29.8650 O.2    52  HIS52      -0.2864
     43  CB        22.8090  -27.1290  -26.9150 C.3    52  HIS52       0.0771
     44  CG        22.7250  -26.8010  -25.4550 C.ar   52  HIS52       0.0820
     45  ND1       22.4420  -25.5380  -24.9820 N.ar   52  HIS52      -0.2267
     46  CD2       22.8870  -27.5820  -24.3570 C.ar   52  HIS52       0.1154
     47  CE1       22.4130  -25.5610  -23.6610 C.ar   52  HIS52       0.1986
     48  NE2       22.6820  -26.7880  -23.2560 N.ar   52  HIS52      -0.2212
     49  N         20.9910  -23.7170  -31.4830 N.3    55  ALA55      -0.1245
     50  CA        21.6540  -22.4860  -31.1530 C.3    55  ALA55       0.1562
     51  C         22.9660  -22.4650  -31.8850 C.2    55  ALA55       0.2260
     52  O         23.3180  -21.4800  -32.5330 O.2    55  ALA55      -0.2867
     53  CB        21.8850  -22.3360  -29.6430 C.3    55  ALA55       0.0290
     54  N         14.9770  -20.1980  -31.3790 N.3    75  VAL75      -0.1245
     55  CA        15.4980  -20.8390  -30.1550 C.3    75  VAL75       0.1561
     56  C         14.5660  -20.4640  -29.0200 C.2    75  VAL75       0.2260
     57  O         14.2550  -21.2780  -28.1310 O.2    75  VAL75      -0.2867
     58  CB        16.9280  -20.3570  -29.7840 C.3    75  VAL75       0.0252
     59  CG1       17.2680  -20.6920  -28.3080 C.3    75  VAL75       0.0019
     60  CG2       17.9870  -20.9790  -30.7180 C.3    75  VAL75       0.0019
     61  N         12.3630  -23.0940  -26.7400 N.3    79  MET79      -0.1245
     62  CA        12.6280  -23.1230  -25.2770 C.3    79  MET79       0.1570
     63  C         11.2930  -23.0010  -24.5230 C.2    79  MET79       0.2261
     64  O         11.0370  -23.7430  -23.5350 O.2    79  MET79      -0.2867
     65  CB        13.6080  -22.0200  -24.8220 C.3    79  MET79       0.0387
     66  CG        15.1060  -22.3670  -25.0860 C.3    79  MET79       0.0595
     67  SD        15.6920  -23.9660  -24.3650 S.3    79  MET79      -0.1393
     68  CE        15.0000  -23.8620  -22.6400 C.3    79  MET79       0.0692
     69  N         17.1530  -21.3570  -19.4870 N.3   130  GLY130     -0.1210
     70  CA        18.2310  -20.8750  -20.3430 C.3   130  GLY130      0.1956
     71  C         17.6060  -20.3120  -21.6010 C.2   130  GLY130      0.2612
     72  O         16.6870  -20.9070  -22.1430 O.2   130  GLY130     -0.2717
     73  N         18.1110  -19.1800  -22.1150 N.am  131  ASP131     -0.1959
     74  CA        17.3400  -18.4510  -23.1400 C.3   131  ASP131      0.1840
     75  C         18.3020  -17.5010  -23.8710 C.2   131  ASP131      0.2621
     76  O         19.4670  -17.2530  -23.4250 O.2   131  ASP131     -0.2715
     77  CB        16.2180  -17.6550  -22.3930 C.3   131  ASP131      0.1450
     78  CG        15.0200  -17.2740  -23.2600 C.2   131  ASP131      0.3671
     79  OD1       15.0130  -17.5680  -24.4640 O.co2 131  ASP131     -0.2456
     80  OD2       14.0320  -16.6620  -22.7140 O.co2 131  ASP131     -0.2456
     81  N         17.8130  -16.9410  -24.9570 N.am  132  VAL132     -0.1977
     82  CA        18.5310  -15.9260  -25.7480 C.3   132  VAL132      0.1596
     83  C         18.2710  -14.5880  -25.1640 C.2   132  VAL132      0.2287
     84  O         17.2360  -14.4020  -24.5200 O.2   132  VAL132     -0.2864
     85  CB        18.0300  -15.8940  -27.2300 C.3   132  VAL132      0.0276
     86  CG1       18.5880  -17.0870  -27.9790 C.3   132  VAL132      0.0022
     87  CG2       16.4910  -15.9230  -27.2780 C.3   132  VAL132      0.0022
     88  N         23.4520  -16.1750  -25.1050 N.3   142  ILE142     -0.1245
     89  CA        22.6580  -17.2460  -24.4690 C.3   142  ILE142      0.1561
     90  C         22.9890  -17.2710  -22.9570 C.2   142  ILE142      0.2260
     91  O         24.1290  -17.4050  -22.6070 O.2   142  ILE142     -0.2867
     92  CB        22.9200  -18.6290  -25.0920 C.3   142  ILE142      0.0252
     93  CG1       22.2690  -18.6620  -26.5110 C.3   142  ILE142      0.0019
     94  CG2       22.3520  -19.8250  -24.1460 C.3   142  ILE142      0.0019
     95  CD1       22.3640  -19.9560  -27.1520 C.3   142  ILE142      0.0001
     96  N         22.6550  -19.3120  -19.7970 N.3   144  SER144     -0.1202
     97  CA        22.2800  -20.6820  -19.5030 C.3   144  SER144      0.2020
     98  C         21.4610  -20.7680  -18.1980 C.2   144  SER144      0.2619
     99  O         21.4130  -19.8260  -17.4050 O.2   144  SER144     -0.2717
    100  CB        23.5530  -21.5510  -19.3840 C.3   144  SER144      0.2103
    101  OG        24.2430  -21.2100  -18.1850 O.3   144  SER144     -0.2182
    102  N         20.8730  -21.9220  -17.9490 N.am  145  GLY145     -0.1942
    103  CA        20.0990  -22.1150  -16.7450 C.3   145  GLY145      0.2014
    104  C         21.0250  -22.0950  -15.5520 C.2   145  GLY145      0.2638
    105  O         20.6070  -21.6880  -14.5040 O.2   145  GLY145     -0.2714
    106  N         22.2700  -22.5290  -15.7150 N.am  146  ASP146     -0.1971
    107  CA        23.3080  -22.4080  -14.6790 C.3   146  ASP146      0.1709
    108  C         23.5680  -20.9300  -14.3270 C.2   146  ASP146      0.2293
    109  O         23.6960  -20.5720  -13.1350 O.2   146  ASP146     -0.2864
    110  CB        24.6350  -23.1010  -15.1270 C.3   146  ASP146      0.1436
    111  CG        24.5600  -24.6670  -15.1180 C.2   146  ASP146      0.3671
    112  OD1       23.5080  -25.2740  -14.8570 O.co2 146  ASP146     -0.2456
    113  OD2       25.5840  -25.3130  -15.4030 O.co2 146  ASP146     -0.2456
@<TRIPOS>BOND
     1    52    51    2
     2    51    50    1
     3    49    50    1
     4    54    55    1
     5    50    53    1
     6    60    58    1
     7    55    58    1
     8    55    56    1
     9    42    41    2
    10    58    59    1
    11    41    40    1
    12    38    37    2
    13    56    57    2
    14    17    16    2
    15    37    39   am
    16    37    36    1
    17    86    85    1
    18    40    39    1
    19    40    43    1
    20    16    15    1
    21    87    85    1
    22    36    35    1
    23    85    82    1
    24    95    93    1
    25    43    44    1
    26    61    62    1
    27    93    92    1
    28    15    14    1
    29    15    18    1
    30    34    33    2
    31    82    83    1
    32    82    81    1
    33    44    45   ar
    34    44    46   ar
    35    33    32    1
    36    62    65    1
    37    62    63    1
    38    83    84    2
    39    88    89    1
    40    92    89    1
    41    92    94    1
    42    66    65    1
    43    66    67    1
    44    18    19    1
    45    45    47   ar
    46    81    75   am
    47    63    64    2
    48    89    90    1
    49    79    78   ar
    50    67    68    1
    51    46    48   ar
    52    30    29    2
    53    32    31    1
    54    75    76    2
    55    75    74    1
    56    19    20    1
    57    47    48   ar
    58    29    31   am
    59    29    28    1
    60    78    80   ar
    61    78    77    1
    62    74    77    1
    63    74    73    1
    64    90    91    2
    65    20    21    1
    66    28    27    1
    67    72    71    2
    68    21    22    1
    69    73    71   am
    70    71    70    1
    71    27    25   am
    72    13    12    2
    73    25    26    2
    74    25    24    1
    75    70    69    1
    76    12    11    1
    77    11    10    1
    78    96    97    1
    79    97   100    1
    80    97    98    1
    81   100   101    1
    82    24    23    1
    83    98   102   am
    84    98    99    2
    85   102   103    1
    86   103   104    1
    87     9     8    1
    88     8     7    1
    89   106   104   am
    90   106   107    1
    91   104   105    2
    92   113   111   ar
    93   110   111    1
    94   110   107    1
    95   111   112   ar
    96   107   108    1
    97   108   109    2
    98     7     6    1
    99     6     5    1
   100     3     4    2
   101     3     2    1
   102     5     2    1
   103     2     1    1
