@<TRIPOS>MOLECULE
tmp/3lkoA00.pdb
 105 102 0 0 0
SMALL
GASTEIGER

@<TRIPOS>ATOM
      1  N         14.3330  -19.1500  -28.7800 N.3     5  MET5       -0.1245
      2  CA        13.9280  -17.8670  -29.3570 C.3     5  MET5        0.1570
      3  C         12.5210  -17.5500  -28.8710 C.2     5  MET5        0.2261
      4  O         11.7020  -18.4660  -28.7530 O.2     5  MET5       -0.2867
      5  CB        13.9430  -17.9170  -30.8890 C.3     5  MET5        0.0387
      6  CG        13.5650  -16.5760  -31.5130 C.3     5  MET5        0.0595
      7  SD        14.0470  -16.4770  -33.2340 S.3     5  MET5       -0.1393
      8  CE        12.7810  -17.5180  -34.0460 C.3     5  MET5        0.0692
      9  N          9.3430  -14.3240  -29.0770 N.3     7  TYR7       -0.1241
     10  CA         8.8230  -13.0110  -29.3550 C.3     7  TYR7        0.1605
     11  C          7.7850  -12.7050  -28.2980 C.2     7  TYR7        0.2264
     12  O          7.0150  -13.5870  -27.8830 O.2     7  TYR7       -0.2867
     13  CB         8.2010  -12.9420  -30.7450 C.3     7  TYR7        0.0534
     14  CG         9.2400  -12.8970  -31.8360 C.ar    7  TYR7       -0.0201
     15  CD1        9.7520  -11.6720  -32.2820 C.ar    7  TYR7       -0.0009
     16  CD2        9.7180  -14.0700  -32.4070 C.ar    7  TYR7       -0.0009
     17  CE1       10.7070  -11.6230  -33.3160 C.ar    7  TYR7        0.0417
     18  CE2       10.7000  -14.0410  -33.4340 C.ar    7  TYR7        0.0417
     19  CZ        11.1850  -12.8230  -33.8610 C.ar    7  TYR7        0.1957
     20  OH        12.1180  -12.8000  -34.8650 O.3     7  TYR7       -0.2866
     21  N         14.7860   -8.6610  -45.1420 N.3    59  TYR59      -0.1241
     22  CA        14.4990   -9.0980  -43.7780 C.3    59  TYR59       0.1605
     23  C         13.7590   -7.9910  -43.0080 C.2    59  TYR59       0.2264
     24  O         12.7010   -8.2380  -42.4180 O.2    59  TYR59      -0.2867
     25  CB        15.7990   -9.4930  -43.0500 C.3    59  TYR59       0.0534
     26  CG        15.6370   -9.9140  -41.5810 C.ar   59  TYR59      -0.0201
     27  CD1       15.4370  -11.2510  -41.2290 C.ar   59  TYR59      -0.0009
     28  CD2       15.7270   -8.9790  -40.5470 C.ar   59  TYR59      -0.0009
     29  CE1       15.2920  -11.6350  -39.8620 C.ar   59  TYR59       0.0417
     30  CE2       15.6170   -9.3520  -39.2120 C.ar   59  TYR59       0.0417
     31  CZ        15.3890  -10.6810  -38.8730 C.ar   59  TYR59       0.1957
     32  OH        15.2690  -11.0860  -37.5370 O.3    59  TYR59      -0.2866
     33  N         10.2210   -7.4860  -44.3740 N.3    62  ARG62      -0.1231
     34  CA         9.3570   -8.6170  -44.0260 C.3    62  ARG62       0.1694
     35  C          8.8890   -8.5200  -42.5650 C.2    62  ARG62       0.2592
     36  O          7.7020   -8.6970  -42.2590 O.2    62  ARG62      -0.2718
     37  CB        10.0880   -9.9330  -44.2760 C.3    62  ARG62       0.0321
     38  CG         9.2690  -11.1850  -44.0010 C.3    62  ARG62       0.0489
     39  CD         7.9460  -11.2360  -44.7730 C.3    62  ARG62       0.2205
     40  NE         7.3400  -12.5710  -44.7170 N.pl3  62  ARG62      -0.0865
     41  CZ         6.0290  -12.7980  -44.7330 C.cat  62  ARG62       0.5346
     42  NH1        5.1740  -11.7800  -44.7990 N.pl3  62  ARG62       0.1354
     43  NH2        5.5710  -14.0400  -44.6850 N.pl3  62  ARG62       0.1354
     44  N          9.8190   -8.2130  -41.6760 N.am   63  ASN63      -0.1974
     45  CA         9.4800   -8.0460  -40.2650 C.3    63  ASN63       0.1688
     46  C          8.4620   -6.9200  -40.0820 C.2    63  ASN63       0.2292
     47  O          7.4480   -7.0730  -39.3860 O.2    63  ASN63      -0.2864
     48  CB        10.7350   -7.7610  -39.4430 C.3    63  ASN63       0.1181
     49  CG        11.4390   -9.0140  -39.0020 C.2    63  ASN63       0.2629
     50  OD1       11.2450   -9.4610  -37.8860 O.2    63  ASN63      -0.2716
     51  ND2       12.2390   -9.6070  -39.8840 N.am   63  ASN63      -0.0877
     52  N          4.9310   -7.7340  -41.2620 N.3    66  ILE66      -0.1245
     53  CA         4.2900   -8.6150  -40.2620 C.3    66  ILE66       0.1561
     54  C          3.8300   -7.8270  -39.0410 C.2    66  ILE66       0.2260
     55  O          2.6840   -7.9550  -38.6140 O.2    66  ILE66      -0.2867
     56  CB         5.2260   -9.8040  -39.8240 C.3    66  ILE66       0.0252
     57  CG1        5.3780  -10.8310  -40.9510 C.3    66  ILE66       0.0019
     58  CG2        4.7030  -10.4870  -38.5120 C.3    66  ILE66       0.0019
     59  CD1        6.6300  -11.7570  -40.8220 C.3    66  ILE66       0.0001
     60  N          5.4490  -23.3940  -38.4350 N.3   159  TYR159     -0.1241
     61  CA         6.4070  -22.3430  -38.0700 C.3   159  TYR159      0.1605
     62  C          7.3720  -22.7970  -36.9600 C.2   159  TYR159      0.2264
     63  O          8.5930  -22.6730  -37.0810 O.2   159  TYR159     -0.2867
     64  CB         5.6570  -21.0770  -37.6230 C.3   159  TYR159      0.0534
     65  CG         6.5430  -20.0570  -36.9680 C.ar  159  TYR159     -0.0201
     66  CD1        7.3200  -19.1870  -37.7330 C.ar  159  TYR159     -0.0009
     67  CD2        6.5990  -19.9470  -35.5690 C.ar  159  TYR159     -0.0009
     68  CE1        8.1530  -18.2310  -37.1280 C.ar  159  TYR159      0.0417
     69  CE2        7.4250  -19.0070  -34.9500 C.ar  159  TYR159      0.0417
     70  CZ         8.1990  -18.1420  -35.7320 C.ar  159  TYR159      0.1957
     71  OH         9.0130  -17.1960  -35.1200 O.3   159  TYR159     -0.2866
     72  N         10.5790  -22.6420  -39.6830 N.3   163  LEU163     -0.1245
     73  CA        11.2420  -21.3270  -39.6640 C.3   163  LEU163      0.1561
     74  C         11.8120  -20.9240  -38.3160 C.2   163  LEU163      0.2260
     75  O         12.8990  -20.3430  -38.2490 O.2   163  LEU163     -0.2867
     76  CB        10.3060  -20.2150  -40.1420 C.3   163  LEU163      0.0270
     77  CG        10.0190  -20.2180  -41.6540 C.3   163  LEU163      0.0019
     78  CD1        8.9920  -19.1460  -42.0160 C.3   163  LEU163      0.0001
     79  CD2       11.3100  -20.0410  -42.4430 C.3   163  LEU163      0.0001
     80  N         15.6900  -20.1960  -38.1820 N.3   167  TRP167     -0.1241
     81  CA        16.1850  -18.8420  -37.8850 C.3   167  TRP167      0.1605
     82  C         16.9370  -18.7740  -36.5710 C.2   167  TRP167      0.2264
     83  O         17.9580  -18.1090  -36.5120 O.2   167  TRP167     -0.2867
     84  CB        15.0850  -17.7690  -37.9840 C.3   167  TRP167      0.0550
     85  CG        14.7610  -17.4380  -39.4430 C.ar  167  TRP167      0.0003
     86  CD1       13.8450  -18.0600  -40.2330 C.ar  167  TRP167      0.0946
     87  CD2       15.3880  -16.4340  -40.2570 C.ar  167  TRP167      0.0152
     88  NE1       13.8480  -17.4960  -41.4970 N.ar  167  TRP167     -0.2442
     89  CE2       14.7850  -16.4940  -41.5330 C.ar  167  TRP167      0.0810
     90  CE3       16.3880  -15.4750  -40.0250 C.ar  167  TRP167      0.0012
     91  CZ2       15.1630  -15.6390  -42.5860 C.ar  167  TRP167      0.0191
     92  CZ3       16.7600  -14.6310  -41.0600 C.ar  167  TRP167      0.0001
     93  CH2       16.1530  -14.7250  -42.3330 C.ar  167  TRP167      0.0015
     94  N         20.7210  -17.3010  -36.2050 N.3   171  TYR171     -0.1241
     95  CA        21.1080  -16.3180  -35.1920 C.3   171  TYR171      0.1605
     96  C         22.2110  -16.8230  -34.2670 C.2   171  TYR171      0.2264
     97  O         23.1800  -16.0910  -34.0100 O.2   171  TYR171     -0.2867
     98  CB        19.9050  -15.8410  -34.3560 C.3   171  TYR171      0.0534
     99  CG        18.7530  -15.2810  -35.1660 C.ar  171  TYR171     -0.0201
    100  CD1       18.9740  -14.5720  -36.3410 C.ar  171  TYR171     -0.0009
    101  CD2       17.4310  -15.4170  -34.7050 C.ar  171  TYR171     -0.0009
    102  CE1       17.8940  -14.0480  -37.0780 C.ar  171  TYR171      0.0417
    103  CE2       16.3760  -14.9060  -35.4040 C.ar  171  TYR171      0.0417
    104  CZ        16.5950  -14.2220  -36.5880 C.ar  171  TYR171      0.1957
    105  OH        15.5170  -13.7480  -37.2930 O.3   171  TYR171     -0.2866
@<TRIPOS>BOND
     1    21    22    1
     2    42    41    1
     3    39    40    1
     4    39    38    1
     5    41    40    2
     6    41    43    1
     7    33    34    1
     8    37    34    1
     9    37    38    1
    10    34    35    1
    11    22    25    1
    12    22    23    1
    13    25    26    1
    14    23    24    2
    15    91    93   ar
    16    91    89   ar
    17    35    36    2
    18    35    44   am
    19    79    77    1
    20    93    92   ar
    21    78    77    1
    22    44    45    1
    23    77    76    1
    24    26    27   ar
    25    26    28   ar
    26    89    88   ar
    27    89    87   ar
    28    88    86   ar
    29    52    53    1
    30    27    29   ar
    31    92    90   ar
    32    57    59    1
    33    57    56    1
    34    28    30   ar
    35    45    46    1
    36    45    48    1
    37    53    56    1
    38    53    54    1
    39    87    90   ar
    40    87    85   ar
    41    86    85   ar
    42    76    73    1
    43    46    47    2
    44    51    49   am
    45    29    31   ar
    46    56    58    1
    47    72    73    1
    48    73    74    1
    49    85    84    1
    50    48    49    1
    51    30    31   ar
    52    54    55    2
    53    49    50    2
    54    31    32    1
    55    60    61    1
    56    74    75    2
    57    80    81    1
    58    61    64    1
    59    61    62    1
    60    84    81    1
    61    81    82    1
    62    66    68   ar
    63    66    65   ar
    64    64    65    1
    65   105   104    1
    66    68    70   ar
    67    63    62    2
    68   102   104   ar
    69   102   100   ar
    70    65    67   ar
    71   104   103   ar
    72    82    83    2
    73   100    99   ar
    74    94    95    1
    75    70    71    1
    76    70    69   ar
    77    67    69   ar
    78   103   101   ar
    79    95    98    1
    80    95    96    1
    81    99   101   ar
    82    99    98    1
    83    20    19    1
    84    96    97    2
    85     8     7    1
    86    19    18   ar
    87    19    17   ar
    88    18    16   ar
    89    17    15   ar
    90     7     6    1
    91    16    14   ar
    92    15    14   ar
    93    14    13    1
    94     6     5    1
    95     5     2    1
    96    13    10    1
    97     2     3    1
    98     2     1    1
    99    10     9    1
   100    10    11    1
   101     3     4    2
   102    11    12    2
