@<TRIPOS>MOLECULE
tmp/3lkvA00.pdb
 127 118 0 0 0
SMALL
GASTEIGER

@<TRIPOS>ATOM
      1  N         78.7880   75.4380   34.5330 N.3    13  HIS13      -0.1241
      2  CA        80.0540   75.0190   35.1180 C.3    13  HIS13       0.1621
      3  C         81.0540   76.1510   34.9350 C.2    13  HIS13       0.2264
      4  O         80.8400   77.0220   34.1030 O.2    13  HIS13      -0.2867
      5  CB        80.5430   73.6450   34.5820 C.3    13  HIS13       0.0745
      6  CG        80.8420   73.5710   33.1100 C.ar   13  HIS13       0.0817
      7  ND1       82.0310   74.0000   32.5690 N.ar   13  HIS13      -0.2268
      8  CD2       80.1610   72.9980   32.0890 C.ar   13  HIS13       0.1154
      9  CE1       82.0460   73.7460   31.2700 C.ar   13  HIS13       0.1986
     10  NE2       80.9250   73.1340   30.9520 N.ar   13  HIS13      -0.2212
     11  N         83.8930   77.0890   33.5820 N.3    15  ALA15      -0.1231
     12  CA        84.3970   77.5970   32.2930 C.3    15  ALA15       0.1694
     13  C         83.3140   78.3560   31.5170 C.2    15  ALA15       0.2591
     14  O         83.5600   79.4260   30.9100 O.2    15  ALA15      -0.2718
     15  CB        84.9840   76.5150   31.4270 C.3    15  ALA15       0.0304
     16  N         82.1130   77.8110   31.5050 N.am   16  LEU16      -0.1980
     17  CA        81.0590   78.4650   30.7130 C.3    16  LEU16       0.1596
     18  C         80.5570   79.7210   31.3810 C.2    16  LEU16       0.2287
     19  O         80.2080   80.6940   30.6840 O.2    16  LEU16      -0.2864
     20  CB        79.9100   77.5370   30.4490 C.3    16  LEU16       0.0297
     21  CG        80.3070   76.2350   29.7320 C.3    16  LEU16       0.0022
     22  CD1       79.0650   75.4950   29.4460 C.3    16  LEU16       0.0001
     23  CD2       81.0880   76.4960   28.4630 C.3    16  LEU16       0.0001
     24  N         78.6150   76.7410   24.3450 N.3    71  ALA71      -0.1231
     25  CA        78.7840   75.2840   24.3670 C.3    71  ALA71       0.1694
     26  C         77.9970   74.6500   23.2250 C.2    71  ALA71       0.2592
     27  O         77.0520   75.2270   22.6880 O.2    71  ALA71      -0.2718
     28  CB        78.4420   74.6540   25.7420 C.3    71  ALA71       0.0304
     29  N         78.4170   73.4560   22.8430 N.am   72  THR72      -0.1953
     30  CA        77.9680   72.8480   21.5910 C.3    72  THR72       0.1897
     31  C         76.4840   72.4920   21.5380 C.2    72  THR72       0.2313
     32  O         75.8050   72.7890   20.5540 O.2    72  THR72      -0.2863
     33  CB        78.8590   71.6240   21.2330 C.3    72  THR72       0.1794
     34  OG1       80.1640   72.1110   20.9050 O.3    72  THR72      -0.2208
     35  CG2       78.2950   70.8690   20.0310 C.3    72  THR72       0.0378
     36  N         82.8490   78.9840   22.8570 N.3    91  ALA91      -0.1245
     37  CA        83.3710   77.8650   23.5910 C.3    91  ALA91       0.1562
     38  C         82.8710   76.5830   22.9890 C.2    91  ALA91       0.2260
     39  O         82.4870   75.6360   23.7000 O.2    91  ALA91      -0.2867
     40  CB        83.0070   77.9800   25.1320 C.3    91  ALA91       0.0290
     41  N         83.9780   73.3800   20.7500 N.3    93  THR93      -0.1218
     42  CA        85.2080   72.6650   20.4810 C.3    93  THR93       0.1862
     43  C         85.4760   72.5050   18.9660 C.2    93  THR93       0.2287
     44  O         86.5780   72.8190   18.4840 O.2    93  THR93      -0.2866
     45  CB        85.1450   71.2760   21.1600 C.3    93  THR93       0.1770
     46  OG1       85.3050   71.4440   22.5970 O.3    93  THR93      -0.2211
     47  CG2       86.1550   70.3100   20.5390 C.3    93  THR93       0.0375
     48  N         86.9230   76.6740   20.9370 N.3   116  ASP116     -0.1239
     49  CA        87.9520   76.3490   21.9940 C.3   116  ASP116      0.1674
     50  C         88.5680   74.9690   21.7820 C.2   116  ASP116      0.2266
     51  O         88.7430   74.1980   22.7270 O.2   116  ASP116     -0.2867
     52  CB        87.4170   76.4470   23.4300 C.3   116  ASP116      0.1410
     53  CG        86.3240   75.4170   23.7360 C.2   116  ASP116      0.3668
     54  OD1       85.6300   75.0520   22.7830 O.co2 116  ASP116     -0.2456
     55  OD2       86.1440   74.9800   24.9160 O.co2 116  ASP116     -0.2456
     56  N         81.1410   67.7270   20.6700 N.3   147  ASN147     -0.1240
     57  CA        82.4740   68.1490   21.0890 C.3   147  ASN147      0.1653
     58  C         83.3200   67.0020   21.6190 C.2   147  ASN147      0.2266
     59  O         84.5100   66.9130   21.2730 O.2   147  ASN147     -0.2867
     60  CB        82.4650   69.2620   22.1490 C.3   147  ASN147      0.1155
     61  CG        81.4820   69.0320   23.1880 C.2   147  ASN147      0.2627
     62  OD1       80.2710   68.9460   22.8940 O.2   147  ASN147     -0.2716
     63  ND2       81.9450   68.9180   24.4390 N.am  147  ASN147     -0.0877
     64  N         87.4430   68.3490   27.5060 N.3   194  ILE194     -0.1231
     65  CA        86.4800   69.4240   27.2670 C.3   194  ILE194      0.1692
     66  C         85.1380   68.8170   26.8710 C.2   194  ILE194      0.2592
     67  O         84.7460   68.7500   25.6740 O.2   194  ILE194     -0.2718
     68  CB        87.0400   70.4130   26.2310 C.3   194  ILE194      0.0266
     69  CG1       88.3490   70.9920   26.7540 C.3   194  ILE194      0.0019
     70  CG2       86.0210   71.5810   25.8570 C.3   194  ILE194      0.0020
     71  CD1       88.2510   71.7190   28.1340 C.3   194  ILE194      0.0001
     72  N         84.4400   68.3950   27.9100 N.am  195  ASP195     -0.1960
     73  CA        83.1290   67.7920   27.7870 C.3   195  ASP195      0.1840
     74  C         82.3070   68.3710   28.9300 C.2   195  ASP195      0.2622
     75  O         82.7640   68.3650   30.0580 O.2   195  ASP195     -0.2715
     76  CB        83.3160   66.2810   27.9410 C.3   195  ASP195      0.1450
     77  CG        82.0310   65.4880   28.1000 C.2   195  ASP195      0.3671
     78  OD1       81.1910   65.8180   28.9930 O.co2 195  ASP195     -0.2456
     79  OD2       81.8990   64.4560   27.3370 O.co2 195  ASP195     -0.2456
     80  N         81.0900   68.8240   28.6340 N.am  196  ASN196     -0.1972
     81  CA        80.2100   69.4500   29.6280 C.3   196  ASN196      0.1688
     82  C         79.7010   68.5280   30.7320 C.2   196  ASN196      0.2292
     83  O         79.5210   68.9410   31.8650 O.2   196  ASN196     -0.2864
     84  CB        79.0130   70.0910   28.8910 C.3   196  ASN196      0.1181
     85  CG        79.4630   71.1880   27.9340 C.2   196  ASN196      0.2629
     86  OD1       79.9370   72.2560   28.3900 O.2   196  ASN196     -0.2716
     87  ND2       79.3720   70.9290   26.6190 N.am  196  ASN196     -0.0877
     88  N         82.7540   68.1150   32.9170 N.3   199  ALA199     -0.1245
     89  CA        82.9450   69.3750   33.6340 C.3   199  ALA199      0.1562
     90  C         81.9340   69.5010   34.7770 C.2   199  ALA199      0.2260
     91  O         82.2770   69.9250   35.8470 O.2   199  ALA199     -0.2867
     92  CB        82.8740   70.6120   32.6810 C.3   199  ALA199      0.0290
     93  N         91.1160   71.7790   31.0800 N.3   219  ALA219     -0.1245
     94  CA        90.5940   73.0760   31.5150 C.3   219  ALA219      0.1562
     95  C         91.1650   73.3910   32.8850 C.2   219  ALA219      0.2260
     96  O         91.2530   72.5160   33.7340 O.2   219  ALA219     -0.2867
     97  CB        89.0480   73.0530   31.5940 C.3   219  ALA219      0.0290
     98  N         89.6970   75.0710   35.2680 N.3   221  SER221     -0.1202
     99  CA        88.6970   74.7900   36.2860 C.3   221  SER221      0.2020
    100  C         88.9180   73.3630   36.8380 C.2   221  SER221      0.2618
    101  O         88.6120   73.0860   37.9870 O.2   221  SER221     -0.2717
    102  CB        87.2730   74.9750   35.7410 C.3   221  SER221      0.2103
    103  OG        87.0670   74.2200   34.5250 O.3   221  SER221     -0.2182
    104  N         89.4770   72.4600   36.0480 N.am  222  TYR222     -0.1975
    105  CA        89.6660   71.1120   36.5800 C.3   222  TYR222      0.1639
    106  C         90.8200   71.0250   37.6110 C.2   222  TYR222      0.2290
    107  O         90.7190   70.2550   38.5670 O.2   222  TYR222     -0.2864
    108  CB        89.8860   70.1060   35.4760 C.3   222  TYR222      0.0560
    109  CG        88.7970   70.0100   34.4260 C.ar  222  TYR222     -0.0198
    110  CD1       87.5240   70.4730   34.6450 C.ar  222  TYR222     -0.0009
    111  CD2       89.0490   69.3550   33.2380 C.ar  222  TYR222     -0.0009
    112  CE1       86.5560   70.3670   33.6830 C.ar  222  TYR222      0.0417
    113  CE2       88.0860   69.2020   32.2740 C.ar  222  TYR222      0.0417
    114  CZ        86.8480   69.7230   32.4850 C.ar  222  TYR222      0.1957
    115  OH        85.9190   69.5560   31.4990 O.3   222  TYR222     -0.2866
    116  N         88.8070   81.1550   29.5530 N.3   235  TYR235     -0.1241
    117  CA        87.4490   81.2560   29.0150 C.3   235  TYR235      0.1605
    118  C         86.8790   82.6770   29.2100 C.2   235  TYR235      0.2264
    119  O         86.0130   83.1020   28.4510 O.2   235  TYR235     -0.2867
    120  CB        86.5420   80.1440   29.5710 C.3   235  TYR235      0.0534
    121  CG        86.8270   78.8360   28.9050 C.ar  235  TYR235     -0.0201
    122  CD1       87.7710   77.9460   29.4200 C.ar  235  TYR235     -0.0009
    123  CD2       86.2000   78.5060   27.7270 C.ar  235  TYR235     -0.0009
    124  CE1       88.0510   76.7420   28.7470 C.ar  235  TYR235      0.0417
    125  CE2       86.4710   77.3440   27.0560 C.ar  235  TYR235      0.0417
    126  CZ        87.4060   76.4580   27.5420 C.ar  235  TYR235      0.1957
    127  OH        87.6540   75.2820   26.8670 O.3   235  TYR235     -0.2866
@<TRIPOS>BOND
     1    44    43    2
     2    43    42    1
     3    35    33    1
     4    42    41    1
     5    42    45    1
     6    47    45    1
     7    32    31    2
     8    56    57    1
     9    34    33    1
    10    48    49    1
    11    57    58    1
    12    57    60    1
    13    45    46    1
    14    33    30    1
    15    59    58    2
    16    31    30    1
    17    30    29    1
    18    50    49    1
    19    50    51    2
    20    49    52    1
    21    60    61    1
    22    27    26    2
    23    54    53   ar
    24    29    26   am
    25    36    37    1
    26    62    61    2
    27    38    37    1
    28    38    39    2
    29    61    63   am
    30    26    25    1
    31    52    53    1
    32    37    40    1
    33    53    55   ar
    34    24    25    1
    35    25    28    1
    36    67    66    2
    37    70    68    1
    38    68    69    1
    39    68    65    1
    40    87    85   am
    41    69    71    1
    42   127   126    1
    43    66    65    1
    44    66    72   am
    45   125   126   ar
    46   125   123   ar
    47    65    64    1
    48    79    77   ar
    49   126   124   ar
    50   123   121   ar
    51    73    72    1
    52    73    76    1
    53    73    74    1
    54    85    86    2
    55    85    84    1
    56    76    77    1
    57    77    78   ar
    58   119   118    2
    59    23    21    1
    60    80    74   am
    61    80    81    1
    62   124   122   ar
    63    84    81    1
    64   121   122   ar
    65   121   120    1
    66    74    75    2
    67   117   118    1
    68   117   116    1
    69   117   120    1
    70    22    21    1
    71    81    82    1
    72    21    20    1
    73    20    17    1
    74    19    18    2
    75    17    18    1
    76    17    16    1
    77    82    83    2
    78    14    13    2
    79    10     9   ar
    80    10     8   ar
    81    93    94    1
    82     9     7   ar
    83    15    12    1
    84   115   114    1
    85    16    13   am
    86    94    97    1
    87    94    95    1
    88    13    12    1
    89     8     6   ar
    90   113   114   ar
    91   113   111   ar
    92    12    11    1
    93   114   112   ar
    94     7     6   ar
    95    92    89    1
    96    95    96    2
    97    88    89    1
    98     6     5    1
    99   111   109   ar
   100    89    90    1
   101   112   110   ar
   102     4     3    2
   103   109   110   ar
   104   109   108    1
   105   103   102    1
   106     1     2    1
   107     5     2    1
   108    90    91    2
   109     3     2    1
   110    98    99    1
   111   108   105    1
   112   102    99    1
   113   104   105    1
   114   104   100   am
   115    99   100    1
   116   105   106    1
   117   100   101    2
   118   106   107    2
