@<TRIPOS>MOLECULE
tmp/3lkzA00.pdb
 171 166 0 0 0
SMALL
GASTEIGER

@<TRIPOS>ATOM
      1  N          2.0990    8.0080  -10.3160 N.3    52  SER52      -0.1217
      2  CA         2.1780    8.3210   -8.8930 C.3    52  SER52       0.1889
      3  C          3.3600    7.5830   -8.2850 C.2    52  SER52       0.2288
      4  O          4.0150    6.7880   -8.9550 O.2    52  SER52      -0.2866
      5  CB         0.9160    7.8470   -8.1820 C.3    52  SER52       0.2089
      6  OG         0.9700    6.4410   -8.0140 O.3    52  SER52      -0.2183
      7  N          3.0250    5.4270   -6.1740 N.3    54  GLY54      -0.1225
      8  CA         2.5480    4.0870   -5.8930 C.3    54  GLY54       0.1811
      9  C          3.1750    2.9570   -6.6890 C.2    54  GLY54       0.2280
     10  O          3.3130    1.8500   -6.1700 O.2    54  GLY54      -0.2866
     11  N         -7.5820   -4.0210   -8.6760 N.3    75  ASP75      -0.1239
     12  CA        -6.9180   -3.0760   -7.7870 C.3    75  ASP75       0.1674
     13  C         -7.9530   -2.1830   -7.1030 C.2    75  ASP75       0.2266
     14  O         -8.5160   -1.2790   -7.7160 O.2    75  ASP75      -0.2867
     15  CB        -5.9400   -2.2300   -8.5990 C.3    75  ASP75       0.1410
     16  CG        -5.1530   -1.2570   -7.7490 C.2    75  ASP75       0.3668
     17  OD1       -4.5220   -0.3520   -8.3350 O.co2  75  ASP75      -0.2456
     18  OD2       -5.1540   -1.3970   -6.5070 O.co2  75  ASP75      -0.2456
     19  N         -9.1890    0.7340   -4.8210 N.3    77  GLY77      -0.1210
     20  CA        -8.6480    2.0170   -4.4100 C.3    77  GLY77       0.1956
     21  C         -7.4350    2.3280   -5.2620 C.2    77  GLY77       0.2612
     22  O         -6.3690    2.6650   -4.7450 O.2    77  GLY77      -0.2717
     23  N         -7.6080    2.2160   -6.5770 N.am   78  CYS78      -0.1956
     24  CA        -6.5390    2.4440   -7.5380 C.3    78  CYS78       0.1843
     25  C         -6.0660    3.8900   -7.6160 C.2    78  CYS78       0.2626
     26  O         -4.9450    4.1560   -8.0420 O.2    78  CYS78      -0.2714
     27  CB        -6.9820    1.9580   -8.9380 C.3    78  CYS78       0.0997
     28  SG        -8.3270    2.9030   -9.7620 S.3    78  CYS78      -0.0797
     29  N         -6.9140    4.8280   -7.2160 N.am   79  GLY79      -0.1940
     30  CA        -6.5150    6.2230   -7.2720 C.3    79  GLY79       0.2014
     31  C         -6.1080    6.6360   -8.6750 C.2    79  GLY79       0.2639
     32  O         -6.8430    6.4080   -9.6390 O.2    79  GLY79      -0.2714
     33  N         -4.9330    7.2430   -8.7960 N.am   80  ARG80      -0.1963
     34  CA        -4.4360    7.6780  -10.0960 C.3    80  ARG80       0.1729
     35  C         -4.1390    6.4750  -10.9960 C.2    80  ARG80       0.2617
     36  O         -4.2300    6.5750  -12.2250 O.2    80  ARG80      -0.2715
     37  CB        -3.1840    8.5360   -9.9090 C.3    80  ARG80       0.0348
     38  CG        -3.2830    9.8900  -10.5660 C.3    80  ARG80       0.0492
     39  CD        -2.1300   10.7840  -10.1500 C.3    80  ARG80       0.2205
     40  NE        -2.2780   11.2740   -8.7840 N.pl3  80  ARG80      -0.0865
     41  CZ        -1.3190   11.9020   -8.1090 C.cat  80  ARG80       0.5346
     42  NH1       -0.1330   12.1120   -8.6720 N.pl3  80  ARG80       0.1354
     43  NH2       -1.5500   12.3340   -6.8750 N.pl3  80  ARG80       0.1354
     44  N         -3.7650    5.3480  -10.3840 N.am   81  GLY81      -0.1940
     45  CA        -3.5080    4.1360  -11.1500 C.3    81  GLY81       0.2014
     46  C         -2.1040    3.5670  -11.1360 C.2    81  GLY81       0.2639
     47  O         -1.8010    2.6730  -11.9220 O.2    81  GLY81      -0.2714
     48  N         -1.2510    4.0670  -10.2470 N.am   82  GLY82      -0.1939
     49  CA         0.1230    3.5940  -10.1800 C.3    82  GLY82       0.2014
     50  C          0.3250    2.0910  -10.1200 C.2    82  GLY82       0.2638
     51  O          1.2920    1.5730  -10.6820 O.2    82  GLY82      -0.2714
     52  N         -0.5670    1.3850   -9.4320 N.am   83  TRP83      -0.1973
     53  CA        -0.4620   -0.0710   -9.3170 C.3    83  TRP83       0.1640
     54  C         -1.0270   -0.7420  -10.5520 C.2    83  TRP83       0.2290
     55  O         -0.5050   -1.7630  -11.0130 O.2    83  TRP83      -0.2864
     56  CB        -1.2180   -0.5850   -8.0840 C.3    83  TRP83       0.0576
     57  CG        -0.4980   -0.3620   -6.7780 C.ar   83  TRP83       0.0006
     58  CD1        0.5880    0.4450   -6.5600 C.ar   83  TRP83       0.0946
     59  CD2       -0.8100   -0.9630   -5.5130 C.ar   83  TRP83       0.0152
     60  NE1        0.9720    0.3780   -5.2410 N.ar   83  TRP83      -0.2442
     61  CE2        0.1320   -0.4780   -4.5760 C.ar   83  TRP83       0.0810
     62  CE3       -1.7930   -1.8660   -5.0820 C.ar   83  TRP83       0.0012
     63  CZ2        0.1220   -0.8670   -3.2300 C.ar   83  TRP83       0.0191
     64  CZ3       -1.8040   -2.2530   -3.7440 C.ar   83  TRP83       0.0001
     65  CH2       -0.8490   -1.7530   -2.8360 C.ar   83  TRP83       0.0015
     66  N        -11.8810    2.9890   -7.8620 N.3   100  THR100     -0.1203
     67  CA       -11.5080    4.0330   -6.9210 C.3   100  THR100      0.1994
     68  C        -12.7070    4.9530   -6.6810 C.2   100  THR100      0.2617
     69  O        -13.5780    5.0960   -7.5500 O.2   100  THR100     -0.2717
     70  CB       -10.3110    4.8420   -7.4370 C.3   100  THR100      0.1784
     71  OG1       -9.6570    5.4680   -6.3250 O.3   100  THR100     -0.2211
     72  CG2      -10.7660    5.8980   -8.4320 C.3   100  THR100      0.0376
     73  N        -12.7470    5.5740   -5.5060 N.am  101  LYS101     -0.1979
     74  CA       -13.8570    6.4400   -5.1410 C.3   101  LYS101      0.1596
     75  C        -13.9810    7.6880   -5.9980 C.2   101  LYS101      0.2287
     76  O        -15.0730    8.0200   -6.4560 O.2   101  LYS101     -0.2864
     77  CB       -13.7490    6.8280   -3.6610 C.3   101  LYS101      0.0298
     78  CG       -14.9470    7.5870   -3.1230 C.3   101  LYS101      0.0038
     79  CD       -14.8450    7.7590   -1.6320 C.3   101  LYS101      0.0206
     80  CE       -16.0990    8.4020   -1.0530 C.3   101  LYS101      0.1093
     81  NZ       -17.3020    7.5230   -1.1220 N.3   101  LYS101     -0.1314
     82  N        -10.7250   13.3030   -3.6980 N.3   106  HIS106     -0.1226
     83  CA       -10.1030   12.0280   -4.0490 C.3   106  HIS106      0.1752
     84  C         -9.4710   12.0160   -5.4440 C.2   106  HIS106      0.2595
     85  O         -9.9590   12.6690   -6.3680 O.2   106  HIS106     -0.2718
     86  CB       -11.1300   10.8930   -3.9340 C.3   106  HIS106      0.0759
     87  CG       -11.5440   10.5850   -2.5270 C.ar  106  HIS106      0.0818
     88  ND1      -12.4230   11.3760   -1.8140 N.ar  106  HIS106     -0.2268
     89  CD2      -11.1750    9.5880   -1.6900 C.ar  106  HIS106      0.1154
     90  CE1      -12.5760   10.8790   -0.6010 C.ar  106  HIS106      0.1986
     91  NE2      -11.8290    9.7940   -0.4980 N.ar  106  HIS106     -0.2212
     92  N         -8.3790   11.2670   -5.5880 N.am  107  GLU107     -0.1979
     93  CA        -7.6870   11.1690   -6.8700 C.3   107  GLU107      0.1602
     94  C         -8.5580   10.4790   -7.9160 C.2   107  GLU107      0.2287
     95  O         -9.2840    9.5320   -7.6170 O.2   107  GLU107     -0.2864
     96  CB        -6.3680   10.3920   -6.7290 C.3   107  GLU107      0.0415
     97  CG        -5.2410   11.1380   -6.0130 C.3   107  GLU107      0.1163
     98  CD        -5.2940   11.0240   -4.4930 C.2   107  GLU107      0.3649
     99  OE1       -4.4530   11.6590   -3.8260 O.co2 107  GLU107     -0.2457
    100  OE2       -6.1590   10.3040   -3.9570 O.co2 107  GLU107     -0.2457
    101  N        -16.4900    4.7790   -7.5520 N.3   126  VAL126     -0.1231
    102  CA       -16.8320    3.5000   -6.9350 C.3   126  VAL126      0.1692
    103  C        -16.2730    3.3530   -5.5170 C.2   126  VAL126      0.2592
    104  O        -15.0610    3.2170   -5.3220 O.2   126  VAL126     -0.2718
    105  CB       -16.3000    2.3020   -7.7750 C.3   126  VAL126      0.0266
    106  CG1      -16.5330    0.9980   -7.0290 C.3   126  VAL126      0.0020
    107  CG2      -16.9700    2.2670   -9.1450 C.3   126  VAL126      0.0020
    108  N        -17.1570    3.3910   -4.5300 N.am  127  ASP127     -0.1960
    109  CA       -16.7290    3.2080   -3.1570 C.3   127  ASP127      0.1840
    110  C        -16.7700    1.6920   -3.0200 C.2   127  ASP127      0.2622
    111  O        -17.8410    1.0860   -3.0320 O.2   127  ASP127     -0.2715
    112  CB       -17.7070    3.8730   -2.1880 C.3   127  ASP127      0.1450
    113  CG       -17.1760    3.9130   -0.7700 C.2   127  ASP127      0.3671
    114  OD1      -17.2700    4.9780   -0.1180 O.co2 127  ASP127     -0.2456
    115  OD2      -16.6680    2.8730   -0.3040 O.co2 127  ASP127     -0.2456
    116  N        -15.5930    1.0880   -2.9240 N.am  128  VAL128     -0.1963
    117  CA       -15.4560   -0.3580   -2.8430 C.3   128  VAL128      0.1727
    118  C        -16.1530   -1.0310   -1.6600 C.2   128  VAL128      0.2616
    119  O        -16.4170   -2.2360   -1.6900 O.2   128  VAL128     -0.2715
    120  CB       -13.9550   -0.7190   -2.8870 C.3   128  VAL128      0.0290
    121  CG1      -13.7300   -2.1730   -2.5150 C.3   128  VAL128      0.0023
    122  CG2      -13.4240   -0.4560   -4.2990 C.3   128  VAL128      0.0023
    123  N        -16.4760   -0.2660   -0.6240 N.am  129  PHE129     -0.1974
    124  CA       -17.1470   -0.8560    0.5300 C.3   129  PHE129      0.1639
    125  C        -18.5690   -1.3120    0.2120 C.2   129  PHE129      0.2290
    126  O        -19.1220   -2.1400    0.9280 O.2   129  PHE129     -0.2864
    127  CB       -17.1950    0.1280    1.7070 C.3   129  PHE129      0.0560
    128  CG       -15.8730    0.3290    2.3850 C.ar  129  PHE129     -0.0200
    129  CD1      -15.2920    1.5910    2.4480 C.ar  129  PHE129     -0.0042
    130  CD2      -15.2000   -0.7490    2.9600 C.ar  129  PHE129     -0.0042
    131  CE1      -14.0580    1.7760    3.0710 C.ar  129  PHE129     -0.0003
    132  CE2      -13.9670   -0.5720    3.5840 C.ar  129  PHE129     -0.0003
    133  CZ       -13.3970    0.6960    3.6380 C.ar  129  PHE129     -0.0000
    134  N         -4.9990   -0.7170   -1.7070 N.3   142  ASP142     -0.1225
    135  CA        -4.1170    0.2820   -1.1130 C.3   142  ASP142      0.1805
    136  C         -4.9100    1.3660   -0.3810 C.2   142  ASP142      0.2598
    137  O         -4.4860    2.5170   -0.3180 O.2   142  ASP142     -0.2718
    138  CB        -3.2590    0.9170   -2.2070 C.3   142  ASP142      0.1424
    139  CG        -1.9570    1.4870   -1.6750 C.2   142  ASP142      0.3668
    140  OD1       -1.3180    2.2660   -2.4120 O.co2 142  ASP142     -0.2456
    141  OD2       -1.5640    1.1520   -0.5350 O.co2 142  ASP142     -0.2456
    142  N         -6.0610    0.9910    0.1690 N.am  143  ILE143     -0.1966
    143  CA        -6.9100    1.9340    0.8960 C.3   143  ILE143      0.1727
    144  C         -6.5080    2.0390    2.3660 C.2   143  ILE143      0.2617
    145  O         -6.1660    1.0470    2.9980 O.2   143  ILE143     -0.2715
    146  CB        -8.4030    1.5150    0.8320 C.3   143  ILE143      0.0290
    147  CG1       -8.9380    1.7220   -0.5850 C.3   143  ILE143      0.0022
    148  CG2       -9.2400    2.3310    1.8250 C.3   143  ILE143      0.0023
    149  CD1      -10.3360    1.1770   -0.7780 C.3   143  ILE143      0.0001
    150  N         -6.5690    3.2550    2.8960 N.am  144  GLY144     -0.1940
    151  CA        -6.2310    3.4960    4.2880 C.3   144  GLY144      0.2014
    152  C         -6.2050    4.9820    4.5920 C.2   144  GLY144      0.2638
    153  O         -5.1480    5.6130    4.5370 O.2   144  GLY144     -0.2714
    154  N         -7.3670    5.5450    4.9160 N.am  145  GLU145     -0.1977
    155  CA        -7.4720    6.9710    5.2150 C.3   145  GLU145      0.1602
    156  C         -6.9190    7.2770    6.6090 C.2   145  GLU145      0.2287
    157  O         -7.5280    6.9310    7.6210 O.2   145  GLU145     -0.2864
    158  CB        -8.9340    7.4140    5.1090 C.3   145  GLU145      0.0415
    159  CG        -9.5490    7.2090    3.7240 C.3   145  GLU145      0.1163
    160  CD        -9.0220    8.1900    2.6840 C.2   145  GLU145      0.3649
    161  OE1       -8.1340    7.8200    1.8800 O.co2 145  GLU145     -0.2457
    162  OE2       -9.4940    9.3450    2.6770 O.co2 145  GLU145     -0.2457
    163  N         -2.7020   -3.1580    1.6880 N.3   178  LYS178     -0.1245
    164  CA        -2.1230   -2.2390    2.6510 C.3   178  LYS178      0.1561
    165  C         -2.8810   -2.3160    3.9650 C.2   178  LYS178      0.2260
    166  O         -4.1090   -2.3470    3.9850 O.2   178  LYS178     -0.2867
    167  CB        -2.1500   -0.7960    2.1570 C.3   178  LYS178      0.0271
    168  CG        -1.5230    0.1620    3.1770 C.3   178  LYS178      0.0035
    169  CD        -1.3790    1.5600    2.6440 C.3   178  LYS178      0.0206
    170  CE        -2.7150    2.1750    2.3380 C.3   178  LYS178      0.1093
    171  NZ        -2.4970    3.4730    1.6670 N.3   178  LYS178     -0.1314
@<TRIPOS>BOND
     1    36    35    2
     2    47    46    2
     3    45    46    1
     4    45    44    1
     5    46    48   am
     6    55    54    2
     7    35    44   am
     8    35    34    1
     9    51    50    2
    10    38    39    1
    11    38    37    1
    12    54    53    1
    13     1     2    1
    14    48    49    1
    15    49    50    1
    16    39    40    1
    17    50    52   am
    18    34    37    1
    19    34    33    1
    20    28    27    1
    21    32    31    2
    22    52    53    1
    23    53    56    1
    24   107   105    1
    25     4     3    2
    26    27    24    1
    27     2     3    1
    28     2     5    1
    29    33    31   am
    30    40    41    2
    31    11    12    1
    32    31    30    1
    33    42    41    1
    34    15    12    1
    35    15    16    1
    36    72    70    1
    37    17    16   ar
    38     5     6    1
    39    41    43    1
    40    56    57    1
    41    26    25    2
    42    94    95    2
    43    94    93    1
    44    66    67    1
    45    12    13    1
    46   105   106    1
    47   105   102    1
    48    16    18   ar
    49    14    13    2
    50    25    24    1
    51    25    29   am
    52   101   102    1
    53    69    68    2
    54    24    23    1
    55    70    67    1
    56    70    71    1
    57    30    29    1
    58   102   103    1
    59    67    68    1
    60    93    96    1
    61    93    92    1
    62    57    58   ar
    63    57    59   ar
    64    96    97    1
    65     9    10    2
    66     9     8    1
    67    68    73   am
    68    23    21   am
    69    58    60   ar
    70    76    75    2
    71    85    84    2
    72     7     8    1
    73    97    98    1
    74    75    74    1
    75    92    84   am
    76   103   104    2
    77   103   108   am
    78    59    62   ar
    79    59    61   ar
    80    73    74    1
    81    84    83    1
    82    21    22    2
    83    21    20    1
    84    60    61   ar
    85    74    77    1
    86    62    64   ar
    87    19    20    1
    88    61    63   ar
    89   108   109    1
    90    98   100   ar
    91    98    99   ar
    92   122   120    1
    93    83    86    1
    94    83    82    1
    95    86    87    1
    96    64    65   ar
    97    77    78    1
    98    63    65   ar
    99   109   110    1
   100   109   112    1
   101    78    79    1
   102   111   110    2
   103   110   116   am
   104   116   117    1
   105   120   117    1
   106   120   121    1
   107   117   118    1
   108    87    88   ar
   109    87    89   ar
   110   140   139   ar
   111   138   139    1
   112   138   135    1
   113   112   113    1
   114    88    90   ar
   115   134   135    1
   116    89    91   ar
   117   119   118    2
   118   139   141   ar
   119   118   123   am
   120    79    80    1
   121    81    80    1
   122   135   136    1
   123   149   147    1
   124   113   115   ar
   125   113   114   ar
   126   123   124    1
   127    90    91   ar
   128   147   146    1
   129   136   137    2
   130   136   142   am
   131   142   143    1
   132   125   124    1
   133   125   126    2
   134   124   127    1
   135   146   143    1
   136   146   148    1
   137   143   144    1
   138   171   170    1
   139   163   164    1
   140   127   128    1
   141   161   160   ar
   142   167   164    1
   143   167   168    1
   144   170   169    1
   145   144   150   am
   146   144   145    2
   147   128   129   ar
   148   128   130   ar
   149   129   131   ar
   150   169   168    1
   151   164   165    1
   152   162   160   ar
   153   160   159    1
   154   150   151    1
   155   130   132   ar
   156   131   133   ar
   157   132   133   ar
   158   159   158    1
   159   165   166    2
   160   151   152    1
   161   153   152    2
   162   152   154   am
   163   154   155    1
   164   158   155    1
   165   155   156    1
   166   156   157    2
