@<TRIPOS>MOLECULE
tmp/3ll2A00.pdb
 125 119 0 0 0
SMALL
GASTEIGER

@<TRIPOS>ATOM
      1  N         29.8280   51.5440   13.1620 N.3    11  GLY11      -0.1210
      2  CA        29.5720   52.2410   14.4230 C.3    11  GLY11       0.1956
      3  C         28.5950   51.5710   15.3700 C.2    11  GLY11       0.2612
      4  O         28.1050   50.4370   15.0830 O.2    11  GLY11      -0.2717
      5  N         28.2660   52.2470   16.4810 N.am   12  GLY12      -0.1942
      6  CA        27.2880   51.7980   17.4360 C.3    12  GLY12       0.2014
      7  C         27.7940   50.7960   18.4660 C.2    12  GLY12       0.2639
      8  O         28.9460   50.2980   18.3740 O.2    12  GLY12      -0.2714
      9  N         26.9830   50.5380   19.4740 N.am   13  SER13      -0.1949
     10  CA        27.1900   49.4980   20.4770 C.3    13  SER13       0.1924
     11  C         26.4780   48.2410   20.0630 C.2    13  SER13       0.2314
     12  O         25.2760   48.2840   19.7420 O.2    13  SER13      -0.2863
     13  CB        26.5830   49.9320   21.8350 C.3    13  SER13       0.2116
     14  OG        27.3300   50.9110   22.4750 O.3    13  SER13      -0.2180
     15  N         16.8550   57.5740    7.8380 N.3    30  TYR30      -0.1241
     16  CA        17.5360   56.3320    8.1760 C.3    30  TYR30       0.1605
     17  C         16.6670   55.5260    9.1160 C.2    30  TYR30       0.2264
     18  O         15.6140   55.9840    9.5470 O.2    30  TYR30      -0.2867
     19  CB        18.9080   56.5850    8.8880 C.3    30  TYR30       0.0534
     20  CG        19.7800   57.5400    8.1510 C.ar   30  TYR30      -0.0201
     21  CD1       20.0950   57.3530    6.8190 C.ar   30  TYR30      -0.0009
     22  CD2       20.3380   58.6190    8.8420 C.ar   30  TYR30      -0.0009
     23  CE1       20.9250   58.2050    6.1690 C.ar   30  TYR30       0.0417
     24  CE2       21.1780   59.4720    8.2110 C.ar   30  TYR30       0.0417
     25  CZ        21.4510   59.2940    6.8680 C.ar   30  TYR30       0.1957
     26  OH        22.2850   60.1900    6.1930 O.3    30  TYR30      -0.2866
     27  N         16.5470   54.9910   12.7120 N.3    32  ASP32      -0.1239
     28  CA        17.0160   55.5210   13.9610 C.3    32  ASP32       0.1674
     29  C         17.1340   54.4360   15.0100 C.2    32  ASP32       0.2266
     30  O         18.0270   54.4920   15.8900 O.2    32  ASP32      -0.2867
     31  CB        16.0870   56.6150   14.4610 C.3    32  ASP32       0.1410
     32  CG        16.1150   57.8170   13.5370 C.2    32  ASP32       0.3668
     33  OD1       15.4010   57.7910   12.4960 O.co2  32  ASP32      -0.2456
     34  OD2       16.9060   58.7560   13.8410 O.co2  32  ASP32      -0.2456
     35  N         18.5100   55.3380   18.6060 N.3    43  GLY43      -0.1210
     36  CA        18.2320   56.6780   19.1120 C.3    43  GLY43       0.1956
     37  C         16.7660   57.0230   19.1290 C.2    43  GLY43       0.2613
     38  O         15.8810   56.1820   18.9510 O.2    43  GLY43      -0.2717
     39  N         16.5080   58.3030   19.3730 N.am   44  SER44      -0.1938
     40  CA        15.1610   58.8130   19.5800 C.3    44  SER44       0.2055
     41  C         14.6720   59.6860   18.4320 C.2    44  SER44       0.2643
     42  O         13.5330   60.2070   18.5220 O.2    44  SER44      -0.2714
     43  CB        15.0630   59.5710   20.8820 C.3    44  SER44       0.2130
     44  OG        15.9380   60.6850   20.8100 O.3    44  SER44      -0.2179
     45  N         15.4520   59.8330   17.3650 N.am   45  GLY45      -0.1954
     46  CA        15.0020   60.5580   16.2170 C.3    45  GLY45       0.1869
     47  C         14.0310   59.7410   15.3910 C.2    45  GLY45       0.2309
     48  O         13.6440   58.6060   15.7220 O.2    45  GLY45      -0.2863
     49  N         24.2770   51.6620    4.0980 N.3    68  GLY68      -0.1210
     50  CA        25.5440   52.2600    3.7060 C.3    68  GLY68       0.1956
     51  C         26.4060   52.2660    4.9370 C.2    68  GLY68       0.2612
     52  O         26.7720   51.1980    5.4580 O.2    68  GLY68      -0.2717
     53  N         26.6700   53.4540    5.4730 N.am   69  ASP69      -0.1959
     54  CA        27.3220   53.5600    6.7780 C.3    69  ASP69       0.1840
     55  C         26.3540   53.2780    7.9270 C.2    69  ASP69       0.2622
     56  O         26.7870   52.9490    9.0070 O.2    69  ASP69      -0.2715
     57  CB        27.9530   54.9260    6.9620 C.3    69  ASP69       0.1450
     58  CG        29.1690   55.1470    6.0600 C.2    69  ASP69       0.3671
     59  OD1       29.6920   54.1850    5.4770 O.co2  69  ASP69      -0.2456
     60  OD2       29.6040   56.2970    5.9760 O.co2  69  ASP69      -0.2456
     61  N         25.0490   53.4420    7.6750 N.am   70  TYR70      -0.1974
     62  CA        24.0180   53.1030    8.6470 C.3    70  TYR70       0.1639
     63  C         23.0290   52.1390    7.9490 C.2    70  TYR70       0.2290
     64  O         23.1860   51.8040    6.7780 O.2    70  TYR70      -0.2864
     65  CB        23.2010   54.3510    9.0480 C.3    70  TYR70       0.0560
     66  CG        24.0300   55.5410    9.4990 C.ar   70  TYR70      -0.0198
     67  CD1       25.0410   55.4580   10.4780 C.ar   70  TYR70      -0.0009
     68  CD2       23.7540   56.7900    8.9650 C.ar   70  TYR70      -0.0009
     69  CE1       25.7300   56.6160   10.8950 C.ar   70  TYR70       0.0417
     70  CE2       24.4590   57.9340    9.3930 C.ar   70  TYR70       0.0417
     71  CZ        25.4250   57.8290   10.3380 C.ar   70  TYR70       0.1957
     72  OH        26.0900   58.9740   10.7110 O.3    70  TYR70      -0.2866
     73  N         19.6420   52.2520    6.2930 N.3    72  ASP72      -0.1239
     74  CA        18.7530   53.2410    5.6780 C.3    72  ASP72       0.1674
     75  C         17.2740   52.8410    5.7130 C.2    72  ASP72       0.2266
     76  O         16.4080   53.6890    5.8240 O.2    72  ASP72      -0.2867
     77  CB        19.1310   53.5090    4.2280 C.3    72  ASP72       0.1410
     78  CG        20.4740   54.1860    4.1120 C.2    72  ASP72       0.3668
     79  OD1       20.4960   55.4310    3.9680 O.co2  72  ASP72      -0.2456
     80  OD2       21.4990   53.4920    4.2040 O.co2  72  ASP72      -0.2456
     81  N         18.2180   55.9890    0.6210 N.3    91  GLY91      -0.1210
     82  CA        19.6430   55.9040    0.5030 C.3    91  GLY91       0.1956
     83  C         20.2350   54.5020    0.6100 C.2    91  GLY91       0.2612
     84  O         19.5350   53.5040    0.7560 O.2    91  GLY91      -0.2717
     85  N         21.5540   54.4330    0.5930 N.am   92  GLY92      -0.1956
     86  CA        22.2650   53.2010    0.6760 C.3    92  GLY92       0.1869
     87  C         22.0210   52.3450   -0.5800 C.2    92  GLY92       0.2309
     88  O         21.5090   52.8070   -1.6000 O.2    92  GLY92      -0.2863
     89  N         24.0770   49.7660   17.4010 N.3   109  ALA109     -0.1231
     90  CA        23.3030   50.9860   17.3480 C.3   109  ALA109      0.1694
     91  C         23.8890   52.0310   18.2740 C.2   109  ALA109      0.2593
     92  O         24.4400   51.7360   19.3260 O.2   109  ALA109     -0.2718
     93  CB        21.8570   50.7240   17.7230 C.3   109  ALA109      0.0304
     94  N         23.7390   53.2800   17.8500 N.am  110  GLY110     -0.1942
     95  CA        24.1010   54.4390   18.6850 C.3   110  GLY110      0.2014
     96  C         22.9260   55.3830   18.6480 C.2   110  GLY110      0.2639
     97  O         21.8510   55.0440   19.1330 O.2   110  GLY110     -0.2714
     98  N         23.1600   56.5450   18.0160 N.am  111  ASP111     -0.1957
     99  CA        22.0470   57.4290   17.7340 C.3   111  ASP111      0.1840
    100  C         21.1570   56.8780   16.5940 C.2   111  ASP111      0.2622
    101  O         19.9800   57.2300   16.5300 O.2   111  ASP111     -0.2715
    102  CB        22.5450   58.8130   17.4180 C.3   111  ASP111      0.1450
    103  CG        23.1580   59.5020   18.6680 C.2   111  ASP111      0.3671
    104  OD1       22.9570   59.0830   19.8070 O.co2 111  ASP111     -0.2456
    105  OD2       23.8170   60.4330   18.4230 O.co2 111  ASP111     -0.2456
    106  N         21.7440   56.1130   15.7010 N.am  112  TYR112     -0.1974
    107  CA        21.0330   55.4590   14.6060 C.3   112  TYR112      0.1639
    108  C         21.2980   53.9480   14.7240 C.2   112  TYR112      0.2290
    109  O         22.1320   53.4790   15.5310 O.2   112  TYR112     -0.2864
    110  CB        21.5290   55.9160   13.2650 C.3   112  TYR112      0.0560
    111  CG        21.4110   57.4240   13.0220 C.ar  112  TYR112     -0.0198
    112  CD1       20.2620   58.1150   13.3250 C.ar  112  TYR112     -0.0009
    113  CD2       22.4340   58.1170   12.4350 C.ar  112  TYR112     -0.0009
    114  CE1       20.1570   59.4920   13.0860 C.ar  112  TYR112      0.0417
    115  CE2       22.3290   59.4570   12.1800 C.ar  112  TYR112      0.0417
    116  CZ        21.1860   60.1530   12.5000 C.ar  112  TYR112      0.1957
    117  OH        21.0890   61.5060   12.2440 O.3   112  TYR112     -0.2866
    118  N         23.2700   51.4150   13.2040 N.3   114  ASP114     -0.1239
    119  CA        24.4220   51.3860   12.3130 C.3   114  ASP114      0.1674
    120  C         24.4640   50.1300   11.4940 C.2   114  ASP114      0.2266
    121  O         24.9030   50.1820   10.3390 O.2   114  ASP114     -0.2867
    122  CB        25.7120   51.4470   13.1820 C.3   114  ASP114      0.1410
    123  CG        25.8180   52.7950   13.8560 C.2   114  ASP114      0.3668
    124  OD1       25.2360   52.9740   14.9510 O.co2 114  ASP114     -0.2456
    125  OD2       26.5120   53.6740   13.2760 O.co2 114  ASP114     -0.2456
@<TRIPOS>BOND
     1    88    87    2
     2    87    86    1
     3    82    83    1
     4    82    81    1
     5    85    83   am
     6    85    86    1
     7    83    84    2
     8    50    49    1
     9    50    51    1
    10    79    78   ar
    11    78    80   ar
    12    78    77    1
    13    77    74    1
    14    51    52    2
    15    51    53   am
    16    53    54    1
    17    59    58   ar
    18    74    75    1
    19    74    73    1
    20    75    76    2
    21    60    58   ar
    22    58    57    1
    23    23    21   ar
    24    23    25   ar
    25    26    25    1
    26    64    63    2
    27    54    57    1
    28    54    55    1
    29    21    20   ar
    30    25    24   ar
    31    61    55   am
    32    61    62    1
    33    15    16    1
    34    55    56    2
    35    63    62    1
    36    20    22   ar
    37    20    19    1
    38    16    19    1
    39    16    17    1
    40    24    22   ar
    41    62    65    1
    42    68    70   ar
    43    68    66   ar
    44    65    66    1
    45    17    18    2
    46    70    71   ar
    47    66    67   ar
    48    71    72    1
    49    71    69   ar
    50   121   120    2
    51    67    69   ar
    52   120   119    1
    53   115   113   ar
    54   115   116   ar
    55   117   116    1
    56   119   122    1
    57   119   118    1
    58   113   111   ar
    59    33    32   ar
    60   116   114   ar
    61    27    28    1
    62   111   110    1
    63   111   112   ar
    64   114   112   ar
    65     1     2    1
    66   122   123    1
    67   110   107    1
    68   125   123   ar
    69    32    34   ar
    70    32    31    1
    71   123   124   ar
    72    28    31    1
    73    28    29    1
    74     2     3    1
    75   107   108    1
    76   107   106    1
    77   108   109    2
    78    29    30    2
    79     4     3    2
    80     3     5   am
    81    47    48    2
    82    47    46    1
    83   106   100   am
    84    46    45    1
    85     5     6    1
    86   101   100    2
    87   100    99    1
    88    90    89    1
    89    90    93    1
    90    90    91    1
    91    45    41   am
    92   102    99    1
    93   102   103    1
    94     6     7    1
    95    99    98    1
    96    94    91   am
    97    94    95    1
    98    98    96   am
    99    91    92    2
   100     8     7    2
   101   105   103   ar
   102    41    42    2
   103    41    40    1
   104     7     9   am
   105    35    36    1
   106    96    95    1
   107    96    97    2
   108   103   104   ar
   109    38    37    2
   110    36    37    1
   111    37    39   am
   112    39    40    1
   113     9    10    1
   114    40    43    1
   115    12    11    2
   116    11    10    1
   117    10    13    1
   118    44    43    1
   119    13    14    1
