@<TRIPOS>MOLECULE
tmp/3ll3A02.pdb
 97 94 0 0 0
SMALL
GASTEIGER

@<TRIPOS>ATOM
      1  N         10.7100   22.7810   -2.0800 N.3    77  GLN77      -0.1245
      2  CA        11.1460   23.7910   -3.0270 C.3    77  GLN77       0.1566
      3  C         12.4710   23.3500   -3.6500 C.2    77  GLN77       0.2260
      4  O         13.2120   22.5780   -3.0540 O.2    77  GLN77      -0.2867
      5  CB        11.3710   25.1160   -2.3040 C.3    77  GLN77       0.0367
      6  CG        12.5060   25.0430   -1.3010 C.3    77  GLN77       0.0905
      7  CD        12.6020   26.2710   -0.4120 C.2    77  GLN77       0.2608
      8  OE1       11.9810   26.3420    0.6520 O.2    77  GLN77      -0.2717
      9  NE2       13.4200   27.2260   -0.8250 N.am   77  GLN77      -0.0878
     10  N         16.1980   24.2400   -5.9830 N.3    78  HIS78      -0.1241
     11  CA        17.2310   25.2030   -6.3360 C.3    78  HIS78       0.1621
     12  C         17.8270   25.9400   -5.1340 C.2    78  HIS78       0.2264
     13  O         18.6290   26.8530   -5.3120 O.2    78  HIS78      -0.2867
     14  CB        16.7020   26.2320   -7.3550 C.3    78  HIS78       0.0745
     15  CG        15.9180   25.6340   -8.4860 C.ar   78  HIS78       0.0817
     16  ND1       16.4140   24.6360   -9.3010 N.ar   78  HIS78      -0.2268
     17  CD2       14.6760   25.9110   -8.9520 C.ar   78  HIS78       0.1154
     18  CE1       15.5030   24.3090  -10.2010 C.ar   78  HIS78       0.1986
     19  NE2       14.4410   25.0710  -10.0150 N.ar   78  HIS78      -0.2212
     20  N         15.5230   29.8190   -4.7200 N.3    96  TRP96      -0.1241
     21  CA        15.5090   29.9120   -6.1660 C.3    96  TRP96       0.1605
     22  C         15.3460   31.3690   -6.6070 C.2    96  TRP96       0.2264
     23  O         15.8570   31.7430   -7.6470 O.2    96  TRP96      -0.2867
     24  CB        14.3870   29.0570   -6.7590 C.3    96  TRP96       0.0550
     25  CG        13.0460   29.6240   -6.4730 C.ar   96  TRP96       0.0003
     26  CD1       12.2650   29.3750   -5.3780 C.ar   96  TRP96       0.0946
     27  CD2       12.3310   30.5680   -7.2720 C.ar   96  TRP96       0.0152
     28  NE1       11.1050   30.1030   -5.4560 N.ar   96  TRP96      -0.2442
     29  CE2       11.1190   30.8420   -6.6090 C.ar   96  TRP96       0.0810
     30  CE3       12.5940   31.1990   -8.4910 C.ar   96  TRP96       0.0012
     31  CZ2       10.1660   31.7270   -7.1230 C.ar   96  TRP96       0.0191
     32  CZ3       11.6560   32.0710   -8.9970 C.ar   96  TRP96       0.0001
     33  CH2       10.4520   32.3270   -8.3160 C.ar   96  TRP96       0.0015
     34  N          9.1840   19.5540   -5.4040 N.3   232  ASP232     -0.1225
     35  CA         7.7850   19.9540   -5.5370 C.3   232  ASP232      0.1805
     36  C          7.3210   19.8340   -6.9940 C.2   232  ASP232      0.2598
     37  O          6.1900   19.4390   -7.2680 O.2   232  ASP232     -0.2718
     38  CB         7.5920   21.3810   -5.0140 C.3   232  ASP232      0.1424
     39  CG         8.5420   22.3910   -5.6590 C.2   232  ASP232      0.3668
     40  OD1        9.3230   22.0130   -6.5590 O.co2 232  ASP232     -0.2456
     41  OD2        8.5200   23.5800   -5.2650 O.co2 232  ASP232     -0.2456
     42  N          8.2110   20.1490   -7.9290 N.am  233  GLY233     -0.1957
     43  CA         7.9110   20.0370   -9.3480 C.3   233  GLY233      0.1869
     44  C          7.5540   18.6300   -9.7960 C.2   233  GLY233      0.2309
     45  O          6.5530   18.4200  -10.4870 O.2   233  GLY233     -0.2863
     46  N          4.1770   21.0750  -17.0720 N.3   259  ARG259     -0.1245
     47  CA         5.1400   19.9810  -16.9730 C.3   259  ARG259      0.1563
     48  C          4.6300   18.6680  -17.5500 C.2   259  ARG259      0.2260
     49  O          3.4210   18.4120  -17.6090 O.2   259  ARG259     -0.2867
     50  CB         5.4650   19.6950  -15.5220 C.3   259  ARG259      0.0307
     51  CG         5.9210   20.8660  -14.7270 C.3   259  ARG259      0.0489
     52  CD         6.0570   20.4440  -13.2930 C.3   259  ARG259      0.2205
     53  NE         6.4200   21.5490  -12.4190 N.pl3 259  ARG259     -0.0865
     54  CZ         5.6010   22.1060  -11.5290 C.cat 259  ARG259      0.5346
     55  NH1        4.3470   21.6600  -11.3860 N.pl3 259  ARG259      0.1354
     56  NH2        6.0520   23.1090  -10.7710 N.pl3 259  ARG259      0.1354
     57  N         13.0490   23.2470  -18.9330 N.3   274  PHE274     -0.1241
     58  CA        14.0340   22.4820  -18.2010 C.3   274  PHE274      0.1605
     59  C         13.8260   21.0000  -18.4630 C.2   274  PHE274      0.2264
     60  O         12.7450   20.5790  -18.8890 O.2   274  PHE274     -0.2867
     61  CB        13.9870   22.7910  -16.6940 C.3   274  PHE274      0.0534
     62  CG        12.6610   22.4260  -16.0060 C.ar  274  PHE274     -0.0203
     63  CD1       12.2490   21.1020  -15.8950 C.ar  274  PHE274     -0.0042
     64  CD2       11.8660   23.4080  -15.4420 C.ar  274  PHE274     -0.0042
     65  CE1       11.0710   20.7630  -15.2400 C.ar  274  PHE274     -0.0003
     66  CE2       10.6670   23.0840  -14.7890 C.ar  274  PHE274     -0.0003
     67  CZ        10.2750   21.7570  -14.6870 C.ar  274  PHE274     -0.0000
     68  N         14.5970   17.8020  -15.9520 N.3   276  TYR276     -0.1241
     69  CA        15.0640   17.3640  -14.6310 C.3   276  TYR276      0.1605
     70  C         14.8040   15.8670  -14.4770 C.2   276  TYR276      0.2264
     71  O         13.6390   15.4410  -14.3370 O.2   276  TYR276     -0.2867
     72  CB        14.3280   18.0800  -13.4820 C.3   276  TYR276      0.0534
     73  CG        14.4390   19.5960  -13.4520 C.ar  276  TYR276     -0.0201
     74  CD1       15.5420   20.2510  -14.0000 C.ar  276  TYR276     -0.0009
     75  CD2       13.4560   20.3710  -12.8350 C.ar  276  TYR276     -0.0009
     76  CE1       15.6520   21.6320  -13.9520 C.ar  276  TYR276      0.0417
     77  CE2       13.5490   21.7570  -12.7950 C.ar  276  TYR276      0.0417
     78  CZ        14.6550   22.3790  -13.3550 C.ar  276  TYR276      0.1957
     79  OH        14.7760   23.7480  -13.3140 O.3   276  TYR276     -0.2866
     80  N          8.5140   26.8420  -15.7580 N.3   288  PRO288     -0.2116
     81  CA         7.9630   27.6310  -14.6580 C.3   288  PRO288      0.1372
     82  C          7.5800   29.0060  -15.2230 C.2   288  PRO288      0.2244
     83  O          8.3480   29.5890  -15.9600 O.2   288  PRO288     -0.2868
     84  CB         9.1410   27.7700  -13.6980 C.3   288  PRO288      0.0268
     85  CG        10.3820   27.4070  -14.5010 C.3   288  PRO288      0.0207
     86  CD         9.9800   26.9670  -15.8660 C.3   288  PRO288      0.0892
     87  N         10.1610   33.7870  -16.8880 N.3   337  ARG337     -0.1245
     88  CA        10.9770   32.6160  -17.1470 C.3   337  ARG337      0.1563
     89  C         10.4100   31.9370  -18.4000 C.2   337  ARG337      0.2260
     90  O         10.4120   32.5520  -19.4560 O.2   337  ARG337     -0.2867
     91  CB        11.0890   31.7230  -15.8950 C.3   337  ARG337      0.0307
     92  CG        12.0440   32.3510  -14.8650 C.3   337  ARG337      0.0489
     93  CD        12.0900   31.6270  -13.5160 C.3   337  ARG337      0.2205
     94  NE        10.8230   31.7580  -12.8100 N.pl3 337  ARG337     -0.0865
     95  CZ        10.3710   30.8840  -11.9140 C.cat 337  ARG337      0.5346
     96  NH1       11.0890   29.8130  -11.6090 N.pl3 337  ARG337      0.1354
     97  NH2        9.1900   31.0770  -11.3310 N.pl3 337  ARG337      0.1354
@<TRIPOS>BOND
     1    90    89    2
     2    57    58    1
     3    60    59    2
     4    59    58    1
     5    89    88    1
     6    58    61    1
     7    49    48    2
     8    48    47    1
     9    88    87    1
    10    88    91    1
    11    46    47    1
    12    47    50    1
    13    61    62    1
    14    62    63   ar
    15    62    64   ar
    16    83    82    2
    17    68    69    1
    18    63    65   ar
    19    91    92    1
    20    86    80    1
    21    86    85    1
    22    80    81    1
    23    50    51    1
    24    64    66   ar
    25    65    67   ar
    26    82    81    1
    27    92    93    1
    28    66    67   ar
    29    51    52    1
    30    81    84    1
    31    69    70    1
    32    69    72    1
    33    85    84    1
    34    70    71    2
    35    74    76   ar
    36    74    73   ar
    37    76    78   ar
    38    93    94    1
    39    72    73    1
    40    73    75   ar
    41    78    79    1
    42    78    77   ar
    43    52    53    1
    44    75    77   ar
    45    94    95    2
    46    53    54    2
    47    95    96    1
    48    95    97    1
    49    54    55    1
    50    54    56    1
    51    45    44    2
    52    18    19   ar
    53    18    16   ar
    54    19    17   ar
    55    44    43    1
    56    43    42    1
    57    16    15   ar
    58    32    30   ar
    59    32    33   ar
    60    17    15   ar
    61    30    27   ar
    62    15    14    1
    63    33    31   ar
    64    42    36   am
    65    23    22    2
    66    14    11    1
    67    27    29   ar
    68    27    25   ar
    69    37    36    2
    70    31    29   ar
    71    36    35    1
    72    24    25    1
    73    24    21    1
    74    29    28   ar
    75    22    21    1
    76    40    39   ar
    77    25    26   ar
    78    11    10    1
    79    11    12    1
    80    21    20    1
    81    39    41   ar
    82    39    38    1
    83    35    34    1
    84    35    38    1
    85    28    26   ar
    86    13    12    2
    87     3     4    2
    88     3     2    1
    89     2     5    1
    90     2     1    1
    91     5     6    1
    92     6     7    1
    93     9     7   am
    94     7     8    2
