@<TRIPOS>MOLECULE
tmp/3ll3B00.pdb
 121 115 0 0 0
SMALL
GASTEIGER

@<TRIPOS>ATOM
      1  N         -3.8460   73.0060  -32.1480 N.3   250  ASN250     -0.1240
      2  CA        -5.2120   72.8930  -31.6780 C.3   250  ASN250      0.1653
      3  C         -5.4920   71.4480  -31.3170 C.2   250  ASN250      0.2266
      4  O         -5.2240   70.5470  -32.1000 O.2   250  ASN250     -0.2867
      5  CB        -6.2130   73.3430  -32.7360 C.3   250  ASN250      0.1155
      6  CG        -7.6290   73.2860  -32.2250 C.2   250  ASN250      0.2627
      7  OD1       -8.0300   74.0900  -31.3860 O.2   250  ASN250     -0.2716
      8  ND2       -8.3870   72.3060  -32.6950 N.am  250  ASN250     -0.0877
      9  N         -8.8020   69.4250  -29.9530 N.3   252  GLY252     -0.1210
     10  CA       -10.1300   69.1570  -29.4260 C.3   252  GLY252      0.1956
     11  C        -10.3770   67.6640  -29.4040 C.2   252  GLY252      0.2613
     12  O         -9.6080   66.9100  -28.7990 O.2   252  GLY252     -0.2717
     13  N        -11.4500   67.2310  -30.0530 N.am  253  THR253     -0.1938
     14  CA       -11.6880   65.8050  -30.2510 C.3   253  THR253      0.2028
     15  C        -10.5140   65.2140  -31.0320 C.2   253  THR253      0.2642
     16  O         -9.9250   64.1870  -30.6540 O.2   253  THR253     -0.2714
     17  CB       -12.9920   65.5630  -31.0280 C.3   253  THR253      0.1808
     18  OG1      -14.0930   66.0660  -30.2670 O.3   253  THR253     -0.2208
     19  CG2      -13.2010   64.0910  -31.2460 C.3   253  THR253      0.0379
     20  N        -10.1690   65.8780  -32.1290 N.am  254  SER254     -0.1949
     21  CA        -8.9370   65.5760  -32.8380 C.3   254  SER254      0.1924
     22  C         -8.0130   66.7890  -32.7620 C.2   254  SER254      0.2314
     23  O         -8.3240   67.7950  -32.1290 O.2   254  SER254     -0.2863
     24  CB        -9.2240   65.2160  -34.2900 C.3   254  SER254      0.2116
     25  OG        -9.7730   66.3250  -34.9720 O.3   254  SER254     -0.2180
     26  N         -8.5620   64.5500  -28.0300 N.3   292  GLY292     -0.1210
     27  CA        -9.4880   64.3990  -26.9270 C.3   292  GLY292      0.1956
     28  C        -10.4020   63.1980  -27.0540 C.2   292  GLY292      0.2611
     29  O        -10.9330   62.7190  -26.0580 O.2   292  GLY292     -0.2717
     30  N        -10.6120   62.7220  -28.2750 N.am  293  ILE293     -0.1979
     31  CA       -11.4280   61.5300  -28.4700 C.3   293  ILE293      0.1595
     32  C        -10.8200   60.3310  -27.7190 C.2   293  ILE293      0.2287
     33  O        -11.5390   59.5140  -27.1510 O.2   293  ILE293     -0.2864
     34  CB       -11.6190   61.2070  -29.9710 C.3   293  ILE293      0.0276
     35  CG1      -12.6330   60.0820  -30.1600 C.3   293  ILE293      0.0022
     36  CG2      -10.2990   60.8630  -30.6350 C.3   293  ILE293      0.0022
     37  CD1      -13.0800   59.9000  -31.6160 C.3   293  ILE293      0.0001
     38  N         -8.6820   60.6610  -25.0720 N.3   295  PHE295     -0.1227
     39  CA        -8.8600   61.0120  -23.6690 C.3   295  PHE295      0.1736
     40  C        -10.2350   60.5510  -23.1860 C.2   295  PHE295      0.2595
     41  O        -10.3600   59.9810  -22.1050 O.2   295  PHE295     -0.2718
     42  CB        -8.7420   62.5320  -23.4810 C.3   295  PHE295      0.0547
     43  CG        -8.9630   62.9880  -22.0640 C.ar  295  PHE295     -0.0202
     44  CD1      -10.2250   63.3620  -21.6290 C.ar  295  PHE295     -0.0042
     45  CD2       -7.9100   63.0200  -21.1600 C.ar  295  PHE295     -0.0042
     46  CE1      -10.4230   63.7760  -20.3110 C.ar  295  PHE295     -0.0003
     47  CE2       -8.0990   63.4390  -19.8550 C.ar  295  PHE295     -0.0003
     48  CZ        -9.3530   63.8230  -19.4320 C.ar  295  PHE295     -0.0000
     49  N        -11.2640   60.8230  -23.9900 N.am  296  ASN296     -0.1974
     50  CA       -12.6300   60.4530  -23.6390 C.3   296  ASN296      0.1688
     51  C        -12.7950   58.9290  -23.5540 C.2   296  ASN296      0.2292
     52  O        -13.4190   58.4220  -22.6370 O.2   296  ASN296     -0.2864
     53  CB       -13.6440   61.0670  -24.6190 C.3   296  ASN296      0.1181
     54  CG       -15.0800   60.8530  -24.1730 C.2   296  ASN296      0.2629
     55  OD1      -15.8550   60.1420  -24.8280 O.2   296  ASN296     -0.2716
     56  ND2      -15.4400   61.4540  -23.0500 N.am  296  ASN296     -0.0877
     57  N        -13.8910   64.5060  -16.6010 N.3   308  PRO308     -0.2102
     58  CA       -12.5370   64.8010  -17.0860 C.3   308  PRO308      0.1504
     59  C        -11.6290   65.2960  -15.9680 C.2   308  PRO308      0.2575
     60  O        -10.4460   64.9090  -15.9140 O.2   308  PRO308     -0.2718
     61  CB       -12.7740   65.9100  -18.1150 C.3   308  PRO308      0.0282
     62  CG       -14.0810   65.5840  -18.6810 C.3   308  PRO308      0.0208
     63  CD       -14.9140   65.0770  -17.5010 C.3   308  PRO308      0.0893
     64  N        -12.1650   66.1250  -15.0770 N.am  309  GLN309     -0.1980
     65  CA       -11.3490   66.6070  -13.9720 C.3   309  GLN309      0.1601
     66  C        -10.8870   65.4700  -13.0470 C.2   309  GLN309      0.2287
     67  O         -9.7580   65.4840  -12.5750 O.2   309  GLN309     -0.2864
     68  CB       -12.0420   67.7180  -13.1770 C.3   309  GLN309      0.0394
     69  CG       -11.0890   68.4090  -12.1880 C.3   309  GLN309      0.0908
     70  CD        -9.8880   69.0410  -12.8720 C.2   309  GLN309      0.2608
     71  OE1      -10.0340   69.7610  -13.8620 O.2   309  GLN309     -0.2717
     72  NE2       -8.6980   68.7740  -12.3560 N.am  309  GLN309     -0.0878
     73  N         -8.0070   63.7690  -14.6760 N.3   312  LEU312     -0.1245
     74  CA        -6.8290   64.6100  -14.5470 C.3   312  LEU312      0.1561
     75  C         -6.2420   64.5260  -13.1360 C.2   312  LEU312      0.2260
     76  O         -5.0290   64.3690  -12.9740 O.2   312  LEU312     -0.2867
     77  CB        -7.1570   66.0610  -14.9300 C.3   312  LEU312      0.0270
     78  CG        -7.4940   66.3100  -16.4070 C.3   312  LEU312      0.0019
     79  CD1       -7.8200   67.7890  -16.6610 C.3   312  LEU312      0.0001
     80  CD2       -6.3730   65.8420  -17.3330 C.3   312  LEU312      0.0001
     81  N         -8.2040   74.5100  -27.8520 N.3   390  GLY390     -0.1210
     82  CA        -8.8730   73.2160  -27.8990 C.3   390  GLY390      0.1956
     83  C         -9.2900   72.7100  -26.5370 C.2   390  GLY390      0.2612
     84  O         -8.6160   72.9790  -25.5460 O.2   390  GLY390     -0.2717
     85  N        -10.4040   71.9880  -26.4820 N.am  391  GLY391     -0.1942
     86  CA       -10.9280   71.4930  -25.2270 C.3   391  GLY391      0.2014
     87  C         -9.9660   70.5390  -24.5370 C.2   391  GLY391      0.2638
     88  O         -9.9570   70.4500  -23.3140 O.2   391  GLY391     -0.2714
     89  N         -9.1410   69.8300  -25.3030 N.am  392  PHE392     -0.1973
     90  CA        -8.1850   68.9210  -24.6660 C.3   392  PHE392      0.1639
     91  C         -7.1470   69.7050  -23.8740 C.2   392  PHE392      0.2290
     92  O         -6.6020   69.1980  -22.8810 O.2   392  PHE392     -0.2864
     93  CB        -7.5040   67.9920  -25.6700 C.3   392  PHE392      0.0560
     94  CG        -6.4910   67.0710  -25.0460 C.ar  392  PHE392     -0.0200
     95  CD1       -6.8900   66.0550  -24.1800 C.ar  392  PHE392     -0.0042
     96  CD2       -5.1370   67.2330  -25.3030 C.ar  392  PHE392     -0.0042
     97  CE1       -5.9590   65.2120  -23.6030 C.ar  392  PHE392     -0.0003
     98  CE2       -4.1980   66.3930  -24.7240 C.ar  392  PHE392     -0.0003
     99  CZ        -4.6030   65.3860  -23.8720 C.ar  392  PHE392     -0.0000
    100  N         -7.6160   72.4000  -22.0990 N.3   394  LYS394     -0.1231
    101  CA        -8.3410   73.2420  -21.1670 C.3   394  LYS394      0.1693
    102  C         -7.5820   73.4380  -19.8590 C.2   394  LYS394      0.2592
    103  O         -7.4830   74.5490  -19.3490 O.2   394  LYS394     -0.2718
    104  CB        -9.6850   72.5820  -20.8670 C.3   394  LYS394      0.0285
    105  CG       -10.7040   73.4730  -20.2120 C.3   394  LYS394      0.0035
    106  CD       -11.9090   72.6510  -19.7100 C.3   394  LYS394      0.0206
    107  CE       -12.2760   71.4850  -20.6430 C.3   394  LYS394      0.1093
    108  NZ       -12.7770   71.8830  -21.9980 N.3   394  LYS394     -0.1314
    109  N         -7.0620   72.3460  -19.3070 N.am  395  SER395     -0.1952
    110  CA        -6.4930   72.3670  -17.9610 C.3   395  SER395      0.1924
    111  C         -5.0660   72.9190  -17.9190 C.2   395  SER395      0.2314
    112  O         -4.2840   72.7110  -18.8460 O.2   395  SER395     -0.2863
    113  CB        -6.5140   70.9500  -17.3710 C.3   395  SER395      0.2116
    114  OG        -5.4920   70.1660  -17.9580 O.3   395  SER395     -0.2180
    115  N         -2.5320   69.9670  -18.4690 N.3   398  VAL398     -0.1245
    116  CA        -2.1940   69.5680  -19.8240 C.3   398  VAL398      0.1561
    117  C         -1.4080   70.6790  -20.5180 C.2   398  VAL398      0.2260
    118  O         -0.4990   70.4280  -21.3030 O.2   398  VAL398     -0.2867
    119  CB        -3.4540   69.1750  -20.6080 C.3   398  VAL398      0.0252
    120  CG1       -3.1260   68.9770  -22.0950 C.3   398  VAL398      0.0019
    121  CG2       -4.0670   67.9010  -19.9980 C.3   398  VAL398      0.0019
@<TRIPOS>BOND
     1    25    24    1
     2    24    21    1
     3    21    22    1
     4    21    20    1
     5    22    23    2
     6     5     6    1
     7     5     2    1
     8     8     6   am
     9     6     7    2
    10     1     2    1
    11    20    15   am
    12     4     3    2
    13     2     3    1
    14    37    35    1
    15    19    17    1
    16    15    16    2
    17    15    14    1
    18    17    18    1
    19    17    14    1
    20    36    34    1
    21    14    13    1
    22    35    34    1
    23    13    11   am
    24    34    31    1
    25     9    10    1
    26    10    11    1
    27    11    12    2
    28    31    30    1
    29    31    32    1
    30    30    28   am
    31    26    27    1
    32    82    81    1
    33    82    83    1
    34    32    33    2
    35    28    27    1
    36    28    29    2
    37    83    85   am
    38    83    84    2
    39    85    86    1
    40    93    94    1
    41    93    90    1
    42    96    94   ar
    43    96    98   ar
    44    89    90    1
    45    89    87   am
    46    86    87    1
    47    38    39    1
    48    94    95   ar
    49    55    54    2
    50    98    99   ar
    51    90    91    1
    52    53    54    1
    53    53    50    1
    54    87    88    2
    55    95    97   ar
    56    54    56   am
    57    49    50    1
    58    49    40   am
    59    91    92    2
    60    99    97   ar
    61    39    42    1
    62    39    40    1
    63    50    51    1
    64    51    52    2
    65    42    43    1
    66    40    41    2
    67   100   101    1
    68   120   119    1
    69    43    44   ar
    70    43    45   ar
    71   108   107    1
    72    44    46   ar
    73   118   117    2
    74   101   104    1
    75   101   102    1
    76    45    47   ar
    77   104   105    1
    78   107   106    1
    79   119   121    1
    80   119   116    1
    81   117   116    1
    82    46    48   ar
    83   105   106    1
    84   102   103    2
    85   102   109   am
    86    47    48   ar
    87   116   115    1
    88   109   110    1
    89   112   111    2
    90    62    61    1
    91    62    63    1
    92    61    58    1
    93   110   111    1
    94   110   113    1
    95   114   113    1
    96    63    57    1
    97    80    78    1
    98    58    57    1
    99    58    59    1
   100    79    78    1
   101    78    77    1
   102    59    60    2
   103    59    64   am
   104    64    65    1
   105    77    74    1
   106    73    74    1
   107    74    75    1
   108    65    68    1
   109    65    66    1
   110    71    70    2
   111    68    69    1
   112    75    76    2
   113    66    67    2
   114    70    72   am
   115    70    69    1
