@<TRIPOS>MOLECULE
tmp/3ll3A00.pdb
 150 141 0 0 0
SMALL
GASTEIGER

@<TRIPOS>ATOM
      1  N          3.9680   23.0120    4.8230 N.3    15  LYS15      -0.1245
      2  CA         2.6820   22.4200    5.1760 C.3    15  LYS15       0.1561
      3  C          2.8700   20.9380    5.4370 C.2    15  LYS15       0.2260
      4  O          3.5650   20.2540    4.6960 O.2    15  LYS15      -0.2867
      5  CB         1.6790   22.5680    4.0430 C.3    15  LYS15       0.0271
      6  CG         1.7760   23.8440    3.2600 C.3    15  LYS15       0.0035
      7  CD         1.0240   23.7060    1.9340 C.3    15  LYS15       0.0206
      8  CE         1.3460   22.3740    1.2440 C.3    15  LYS15       0.1093
      9  NZ         1.3220   22.4640   -0.2450 N.3    15  LYS15      -0.1314
     10  N         -0.3600   23.8040  -13.4650 N.3   251  ASN251     -0.1240
     11  CA        -0.7930   24.3880  -12.2140 C.3   251  ASN251      0.1653
     12  C         -0.6810   25.8870  -12.3340 C.2   251  ASN251      0.2266
     13  O          0.3200   26.4070  -12.8410 O.2   251  ASN251     -0.2867
     14  CB         0.0580   23.9110  -11.0610 C.3   251  ASN251      0.1155
     15  CG        -0.3510   24.5430   -9.7490 C.2   251  ASN251      0.2627
     16  OD1       -1.3620   24.1700   -9.1520 O.2   251  ASN251     -0.2716
     17  ND2        0.4380   25.5040   -9.2880 N.am  251  ASN251     -0.0877
     18  N         -1.3600   29.1400   -9.8280 N.3   253  GLY253     -0.1210
     19  CA        -1.7780   29.8820   -8.6660 C.3   253  GLY253      0.1956
     20  C         -1.2910   31.2980   -8.8570 C.2   253  GLY253      0.2613
     21  O         -1.5790   31.9300   -9.8810 O.2   253  GLY253     -0.2717
     22  N         -0.5490   31.8010   -7.8760 N.am  254  THR254     -0.1938
     23  CA         0.0940   33.1050   -8.0240 C.3   254  THR254      0.2028
     24  C          1.0110   33.0670   -9.2560 C.2   254  THR254      0.2642
     25  O          0.9560   33.9510  -10.1460 O.2   254  THR254     -0.2714
     26  CB         0.8580   33.4830   -6.7410 C.3   254  THR254      0.1808
     27  OG1       -0.0530   33.4450   -5.6300 O.3   254  THR254     -0.2208
     28  CG2        1.4290   34.8720   -6.8500 C.3   254  THR254      0.0379
     29  N          1.8370   32.0290   -9.3270 N.am  255  SER255     -0.1949
     30  CA         2.6340   31.7810  -10.5210 C.3   255  SER255      0.1924
     31  C          2.1360   30.4750  -11.1350 C.2   255  SER255      0.2314
     32  O          1.2820   29.8170  -10.5610 O.2   255  SER255     -0.2863
     33  CB         4.1220   31.7070  -10.1720 C.3   255  SER255      0.2116
     34  OG         4.3890   30.6340   -9.2640 O.3   255  SER255     -0.2180
     35  N         -1.6940   34.0070  -11.5810 N.3   293  GLY293     -0.1210
     36  CA        -2.7370   34.7080  -10.8690 C.3   293  GLY293      0.1956
     37  C         -2.2810   36.0350  -10.3060 C.2   293  GLY293      0.2611
     38  O         -3.1070   36.9040  -10.0320 O.2   293  GLY293     -0.2717
     39  N         -0.9700   36.1840  -10.1090 N.am  294  ILE294     -0.1979
     40  CA        -0.4160   37.4390   -9.6170 C.3   294  ILE294      0.1595
     41  C         -0.7450   38.5880  -10.5720 C.2   294  ILE294      0.2287
     42  O         -0.9540   39.7270  -10.1580 O.2   294  ILE294     -0.2864
     43  CB         1.1240   37.3400   -9.4100 C.3   294  ILE294      0.0276
     44  CG1        1.6580   38.5820   -8.6980 C.3   294  ILE294      0.0022
     45  CG2        1.8760   37.1310  -10.7550 C.3   294  ILE294      0.0022
     46  CD1        3.0090   38.3390   -7.9990 C.3   294  ILE294      0.0001
     47  N         -3.4050   38.3840  -12.7650 N.3   296  PHE296     -0.1227
     48  CA        -4.8520   38.5100  -12.6110 C.3   296  PHE296      0.1736
     49  C         -5.1780   39.4480  -11.4510 C.2   296  PHE296      0.2595
     50  O         -6.0400   40.3040  -11.5550 O.2   296  PHE296     -0.2718
     51  CB        -5.4780   37.1410  -12.3570 C.3   296  PHE296      0.0547
     52  CG        -6.9530   37.1890  -12.0880 C.ar  296  PHE296     -0.0202
     53  CD1       -7.4300   37.2940  -10.7940 C.ar  296  PHE296     -0.0042
     54  CD2       -7.8670   37.1630  -13.1380 C.ar  296  PHE296     -0.0042
     55  CE1       -8.7940   37.3400  -10.5330 C.ar  296  PHE296     -0.0003
     56  CE2       -9.2290   37.2020  -12.8880 C.ar  296  PHE296     -0.0003
     57  CZ        -9.6950   37.2980  -11.5780 C.ar  296  PHE296     -0.0000
     58  N         -4.4710   39.2710  -10.3450 N.am  297  ASN297     -0.1974
     59  CA        -4.6100   40.1530   -9.2090 C.3   297  ASN297      0.1688
     60  C         -4.2700   41.6010   -9.5500 C.2   297  ASN297      0.2292
     61  O         -5.0230   42.4980   -9.2060 O.2   297  ASN297     -0.2864
     62  CB        -3.7230   39.6860   -8.0670 C.3   297  ASN297      0.1181
     63  CG        -4.0110   40.4150   -6.7750 C.2   297  ASN297      0.2629
     64  OD1       -3.1390   41.1070   -6.2260 O.2   297  ASN297     -0.2716
     65  ND2       -5.2320   40.2660   -6.2760 N.am  297  ASN297     -0.0877
     66  N         -7.0470   43.0670  -11.6180 N.3   300  ARG300     -0.1245
     67  CA        -8.2700   43.2000  -10.8330 C.3   300  ARG300      0.1563
     68  C         -8.2570   44.5050  -10.0490 C.2   300  ARG300      0.2260
     69  O         -9.2750   45.1970   -9.9740 O.2   300  ARG300     -0.2867
     70  CB        -8.4290   42.0050   -9.8770 C.3   300  ARG300      0.0307
     71  CG        -9.6030   42.1210   -8.9260 C.3   300  ARG300      0.0489
     72  CD        -9.7260   40.9090   -8.0080 C.3   300  ARG300      0.2205
     73  NE        -8.6400   40.8470   -7.0340 N.pl3 300  ARG300     -0.0865
     74  CZ        -8.3890   41.7910   -6.1270 C.cat 300  ARG300      0.5346
     75  NH1       -9.1380   42.8840   -6.0640 N.pl3 300  ARG300      0.1354
     76  NH2       -7.3770   41.6510   -5.2820 N.pl3 300  ARG300      0.1354
     77  N        -12.5580   38.7920   -7.3930 N.3   310  PRO310     -0.2102
     78  CA       -12.1930   37.9810   -8.5580 C.3   310  PRO310      0.1504
     79  C        -13.4190   37.6180   -9.3840 C.2   310  PRO310      0.2575
     80  O        -13.3910   37.6990  -10.6170 O.2   310  PRO310     -0.2718
     81  CB       -11.5950   36.7300   -7.9170 C.3   310  PRO310      0.0282
     82  CG       -10.9390   37.2500   -6.6770 C.3   310  PRO310      0.0208
     83  CD       -11.8270   38.3730   -6.1820 C.3   310  PRO310      0.0893
     84  N        -14.4960   37.2210   -8.7080 N.am  311  GLN311     -0.1980
     85  CA       -15.7400   36.8880   -9.3970 C.3   311  GLN311      0.1601
     86  C        -16.3060   38.0630  -10.2040 C.2   311  GLN311      0.2287
     87  O        -16.7620   37.8820  -11.3290 O.2   311  GLN311     -0.2864
     88  CB       -16.7910   36.3700   -8.4130 C.3   311  GLN311      0.0394
     89  CG       -17.9610   35.7100   -9.1060 C.3   311  GLN311      0.0908
     90  CD       -17.5080   34.6490  -10.0740 C.2   311  GLN311      0.2608
     91  OE1      -16.6990   33.7880   -9.7300 O.2   311  GLN311     -0.2717
     92  NE2      -18.0130   34.7080  -11.3010 N.am  311  GLN311     -0.0878
     93  N        -14.2020   38.2950  -13.3400 N.3   314  LEU314     -0.1245
     94  CA       -14.5670   37.2280  -14.2530 C.3   314  LEU314      0.1561
     95  C        -15.9090   37.5240  -14.9180 C.2   314  LEU314      0.2260
     96  O        -16.0730   37.3330  -16.1200 O.2   314  LEU314     -0.2867
     97  CB       -14.6500   35.9080  -13.4900 C.3   314  LEU314      0.0270
     98  CG       -13.3070   35.4370  -12.9420 C.3   314  LEU314      0.0019
     99  CD1      -13.4980   34.1980  -12.0900 C.3   314  LEU314      0.0001
    100  CD2      -12.3450   35.1700  -14.0930 C.3   314  LEU314      0.0001
    101  N         -4.8080   24.7450   -9.1520 N.3   392  GLY392     -0.1210
    102  CA        -4.3710   26.0900   -8.8400 C.3   392  GLY392      0.1956
    103  C         -5.4960   27.1030   -8.7640 C.2   392  GLY392      0.2612
    104  O         -6.4760   26.9860   -9.4700 O.2   392  GLY392     -0.2717
    105  N         -5.3320   28.1000   -7.9030 N.am  393  GLY393     -0.1942
    106  CA        -6.3600   29.0830   -7.6350 C.3   393  GLY393      0.2014
    107  C         -6.8090   29.8990   -8.8330 C.2   393  GLY393      0.2638
    108  O         -7.9310   30.4180   -8.8420 O.2   393  GLY393     -0.2714
    109  N         -5.9510   30.0350   -9.8430 N.am  394  PHE394     -0.1973
    110  CA        -6.3230   30.8210  -11.0230 C.3   394  PHE394      0.1639
    111  C         -7.3550   30.0690  -11.8520 C.2   394  PHE394      0.2290
    112  O         -8.1390   30.6740  -12.5740 O.2   394  PHE394     -0.2864
    113  CB        -5.0950   31.1680  -11.8800 C.3   394  PHE394      0.0560
    114  CG        -5.4250   31.9410  -13.1250 C.ar  394  PHE394     -0.0200
    115  CD1       -5.9440   33.2320  -13.0410 C.ar  394  PHE394     -0.0042
    116  CD2       -5.2210   31.3820  -14.3830 C.ar  394  PHE394     -0.0042
    117  CE1       -6.2430   33.9540  -14.1880 C.ar  394  PHE394     -0.0003
    118  CE2       -5.5330   32.1010  -15.5510 C.ar  394  PHE394     -0.0003
    119  CZ        -6.0400   33.3870  -15.4470 C.ar  394  PHE394     -0.0000
    120  N         -9.8300   28.2940  -10.6630 N.3   396  LYS396     -0.1231
    121  CA       -10.9840   28.0080   -9.8260 C.3   396  LYS396      0.1693
    122  C        -12.2750   27.9870  -10.6200 C.2   396  LYS396      0.2592
    123  O        -13.0810   27.0980  -10.4490 O.2   396  LYS396     -0.2718
    124  CB       -11.1250   29.0270   -8.6930 C.3   396  LYS396      0.0285
    125  CG       -12.1900   28.6170   -7.6730 C.3   396  LYS396      0.0035
    126  CD       -12.6920   29.7950   -6.8460 C.3   396  LYS396      0.0206
    127  CE       -11.6040   30.3600   -5.9600 C.3   396  LYS396      0.1093
    128  NZ       -10.8400   29.2810   -5.2330 N.3   396  LYS396     -0.1314
    129  N        -12.4650   28.9800  -11.4840 N.am  397  SER397     -0.1952
    130  CA       -13.7410   29.1770  -12.1490 C.3   397  SER397      0.1924
    131  C        -13.9190   28.2650  -13.3530 C.2   397  SER397      0.2314
    132  O        -12.9610   27.9310  -14.0370 O.2   397  SER397     -0.2863
    133  CB       -13.8620   30.6240  -12.6150 C.3   397  SER397      0.2116
    134  OG       -12.9830   30.8260  -13.7050 O.3   397  SER397     -0.2180
    135  N        -12.5220   30.0550  -16.5800 N.3   400  VAL400     -0.1245
    136  CA       -11.0880   29.9050  -16.8640 C.3   400  VAL400      0.1561
    137  C        -10.7460   28.4660  -17.2560 C.2   400  VAL400      0.2260
    138  O         -9.9520   28.2350  -18.1520 O.2   400  VAL400     -0.2867
    139  CB       -10.2220   30.3960  -15.6960 C.3   400  VAL400      0.0252
    140  CG1       -8.7130   30.0780  -15.9210 C.3   400  VAL400      0.0019
    141  CG2      -10.4270   31.8990  -15.5150 C.3   400  VAL400      0.0019
    142  N         -3.5540   19.6500   -3.2240 N.3   418  GLN418     -0.1245
    143  CA        -2.2750   19.4510   -2.5390 C.3   418  GLN418      0.1566
    144  C         -1.5510   18.2360   -3.1010 C.2   418  GLN418      0.2260
    145  O         -1.2480   17.2820   -2.3820 O.2   418  GLN418     -0.2867
    146  CB        -2.5000   19.2950   -1.0310 C.3   418  GLN418      0.0367
    147  CG        -3.1450   20.5280   -0.4080 C.3   418  GLN418      0.0905
    148  CD        -2.3800   21.7970   -0.7600 C.2   418  GLN418      0.2608
    149  OE1       -1.1470   21.8200   -0.6910 O.2   418  GLN418     -0.2717
    150  NE2       -3.1040   22.8570   -1.1470 N.am  418  GLN418     -0.0878
@<TRIPOS>BOND
     1   138   137    2
     2   137   136    1
     3   136   135    1
     4   136   139    1
     5    96    95    2
     6   140   139    1
     7   139   141    1
     8   118   119   ar
     9   118   116   ar
    10   119   117   ar
    11    95    94    1
    12   116   114   ar
    13    94    97    1
    14    94    93    1
    15   117   115   ar
    16   100    98    1
    17   132   131    2
    18   134   133    1
    19    97    98    1
    20    10    11    1
    21   131   130    1
    22    54    56   ar
    23    54    52   ar
    24   114   115   ar
    25   114   113    1
    26    98    99    1
    27    56    57   ar
    28    13    12    2
    29    47    48    1
    30   133   130    1
    31    48    51    1
    32    48    49    1
    33   112   111    2
    34    51    52    1
    35    12    11    1
    36    11    14    1
    37   130   129    1
    38    52    53   ar
    39   113   110    1
    40   111   110    1
    41    66    67    1
    42    35    36    1
    43    57    55   ar
    44    50    49    2
    45   129   122   am
    46    49    58   am
    47    87    86    2
    48    92    90   am
    49    31    32    2
    50    31    30    1
    51    14    15    1
    52   110   109    1
    53    36    37    1
    54    67    68    1
    55    67    70    1
    56    53    55   ar
    57    45    43    1
    58   120   121    1
    59   122   123    2
    60   122   121    1
    61    80    79    2
    62    41    42    2
    63    41    40    1
    64    30    33    1
    65    30    29    1
    66    58    59    1
    67    37    39   am
    68    37    38    2
    69    86    85    1
    70    33    34    1
    71    25    24    2
    72    39    40    1
    73    90    91    2
    74    90    89    1
    75    68    69    2
    76    21    20    2
    77    70    71    1
    78   109   107   am
    79    18    19    1
    80   121   124    1
    81    15    17   am
    82    15    16    2
    83    40    43    1
    84    60    59    1
    85    60    61    2
    86   104   103    2
    87    43    44    1
    88    85    84    1
    89    85    88    1
    90    79    84   am
    91    79    78    1
    92    29    24   am
    93    24    23    1
    94    59    62    1
    95   101   102    1
    96    89    88    1
    97    71    72    1
    98    20    19    1
    99    20    22   am
   100   108   107    2
   101   102   103    1
   102   107   106    1
   103   103   105   am
   104    44    46    1
   105   124   125    1
   106    78    81    1
   107    78    77    1
   108    62    63    1
   109    23    22    1
   110    23    26    1
   111    72    73    1
   112    81    82    1
   113   105   106    1
   114   125   126    1
   115    77    83    1
   116    73    74    2
   117    28    26    1
   118   126   127    1
   119    63    65   am
   120    63    64    2
   121    26    27    1
   122    82    83    1
   123    74    75    1
   124    74    76    1
   125   127   128    1
   126   142   143    1
   127   144   143    1
   128   144   145    2
   129   143   146    1
   130   150   148   am
   131   146   147    1
   132   148   149    2
   133   148   147    1
   134     9     8    1
   135     8     7    1
   136     7     6    1
   137     6     5    1
   138     5     2    1
   139     4     3    2
   140     1     2    1
   141     2     3    1
