@<TRIPOS>MOLECULE
tmp/3ll3A01.pdb
 88 86 0 0 0
SMALL
GASTEIGER

@<TRIPOS>ATOM
      1  N         15.5230   29.8190   -4.7200 N.3    96  TRP96      -0.1241
      2  CA        15.5090   29.9120   -6.1660 C.3    96  TRP96       0.1605
      3  C         15.3460   31.3690   -6.6070 C.2    96  TRP96       0.2264
      4  O         15.8570   31.7430   -7.6470 O.2    96  TRP96      -0.2867
      5  CB        14.3870   29.0570   -6.7590 C.3    96  TRP96       0.0550
      6  CG        13.0460   29.6240   -6.4730 C.ar   96  TRP96       0.0003
      7  CD1       12.2650   29.3750   -5.3780 C.ar   96  TRP96       0.0946
      8  CD2       12.3310   30.5680   -7.2720 C.ar   96  TRP96       0.0152
      9  NE1       11.1050   30.1030   -5.4560 N.ar   96  TRP96      -0.2442
     10  CE2       11.1190   30.8420   -6.6090 C.ar   96  TRP96       0.0810
     11  CE3       12.5940   31.1990   -8.4910 C.ar   96  TRP96       0.0012
     12  CZ2       10.1660   31.7270   -7.1230 C.ar   96  TRP96       0.0191
     13  CZ3       11.6560   32.0710   -8.9970 C.ar   96  TRP96       0.0001
     14  CH2       10.4520   32.3270   -8.3160 C.ar   96  TRP96       0.0015
     15  N         18.6020   36.5860   -6.8850 N.3    99  ASN99      -0.1240
     16  CA        19.2150   36.8070   -8.1930 C.3    99  ASN99       0.1653
     17  C         20.6830   37.2540   -8.1490 C.2    99  ASN99       0.2266
     18  O         21.1990   37.8480   -9.1030 O.2    99  ASN99      -0.2867
     19  CB        18.3500   37.7370   -9.0530 C.3    99  ASN99       0.1155
     20  CG        18.2160   39.1200   -8.4580 C.2    99  ASN99       0.2627
     21  OD1       19.1840   39.6930   -7.9510 O.2    99  ASN99      -0.2716
     22  ND2       17.0110   39.6790   -8.5330 N.am   99  ASN99      -0.0877
     23  N         19.4820   30.3750  -16.0600 N.3   124  HIS124     -0.1227
     24  CA        18.8410   31.2510  -15.0950 C.3   124  HIS124      0.1737
     25  C         19.5590   31.1960  -13.7610 C.2   124  HIS124      0.2438
     26  O         19.9900   30.1250  -13.3490 O.2   124  HIS124     -0.2733
     27  CB        17.3770   30.8240  -14.9000 C.3   124  HIS124      0.0758
     28  CG        16.5390   31.8650  -14.2250 C.ar  124  HIS124      0.0818
     29  ND1       16.4850   32.0050  -12.8540 N.ar  124  HIS124     -0.2268
     30  CD2       15.7440   32.8390  -14.7360 C.ar  124  HIS124      0.1154
     31  CE1       15.6760   33.0030  -12.5490 C.ar  124  HIS124      0.1986
     32  NE2       15.2180   33.5320  -13.6730 N.ar  124  HIS124     -0.2212
     33  N         19.6580   32.3440  -13.0710 N.am  125  PRO125     -0.2729
     34  CA        20.3800   32.5010  -11.8000 C.3   125  PRO125      0.1401
     35  C         19.8120   31.7060  -10.6200 C.2   125  PRO125      0.2269
     36  O         20.4460   31.6380   -9.5560 O.2   125  PRO125     -0.2865
     37  CB        20.2840   34.0120  -11.5270 C.3   125  PRO125      0.0296
     38  CG        19.1040   34.4690  -12.3450 C.3   125  PRO125      0.0237
     39  CD        19.2040   33.6470  -13.5920 C.3   125  PRO125      0.0939
     40  N          6.1630   32.8580  -14.3600 N.3   290  ASN290     -0.1240
     41  CA         5.9380   33.8180  -13.2750 C.3   290  ASN290      0.1653
     42  C          4.5150   34.3770  -13.2650 C.2   290  ASN290      0.2266
     43  O          3.8930   34.5250  -12.2030 O.2   290  ASN290     -0.2867
     44  CB         6.9060   35.0070  -13.3650 C.3   290  ASN290      0.1155
     45  CG         8.3770   34.5910  -13.3100 C.2   290  ASN290      0.2627
     46  OD1        8.7170   33.5160  -12.8130 O.2   290  ASN290     -0.2716
     47  ND2        9.2580   35.4670  -13.8100 N.am  290  ASN290     -0.0877
     48  N          6.1800   40.7070  -14.2990 N.3   334  GLY334     -0.1210
     49  CA         7.3730   40.5500  -13.4650 C.3   334  GLY334      0.1956
     50  C          8.6060   39.9910  -14.1600 C.2   334  GLY334      0.2612
     51  O          9.3390   39.2010  -13.5700 O.2   334  GLY334     -0.2717
     52  N          8.8550   40.3920  -15.4050 N.am  335  GLY335     -0.1942
     53  CA         9.8130   39.6640  -16.2200 C.3   335  GLY335      0.2014
     54  C          9.2360   38.2690  -16.4040 C.2   335  GLY335      0.2639
     55  O          8.1330   37.9850  -15.9060 O.2   335  GLY335     -0.2714
     56  N          9.9360   37.3860  -17.1070 N.am  336  GLU336     -0.1963
     57  CA         9.3830   36.0450  -17.3120 C.3   336  GLU336      0.1733
     58  C         10.4450   34.9630  -17.4460 C.2   336  GLU336      0.2616
     59  O         11.5110   35.1950  -18.0380 O.2   336  GLU336     -0.2715
     60  CB         8.4590   36.0360  -18.5450 C.3   336  GLU336      0.0429
     61  CG         7.6880   34.7370  -18.7500 C.3   336  GLU336      0.1163
     62  CD         6.9660   34.2940  -17.4900 C.2   336  GLU336      0.3649
     63  OE1        7.6260   33.7610  -16.5560 O.co2 336  GLU336     -0.2457
     64  OE2        5.7340   34.4750  -17.4360 O.co2 336  GLU336     -0.2457
     65  N         10.1610   33.7870  -16.8880 N.am  337  ARG337     -0.1977
     66  CA        10.9770   32.6160  -17.1470 C.3   337  ARG337      0.1597
     67  C         10.4100   31.9370  -18.4000 C.2   337  ARG337      0.2287
     68  O         10.4120   32.5520  -19.4560 O.2   337  ARG337     -0.2864
     69  CB        11.0890   31.7230  -15.8950 C.3   337  ARG337      0.0334
     70  CG        12.0440   32.3510  -14.8650 C.3   337  ARG337      0.0492
     71  CD        12.0900   31.6270  -13.5160 C.3   337  ARG337      0.2205
     72  NE        10.8230   31.7580  -12.8100 N.pl3 337  ARG337     -0.0865
     73  CZ        10.3710   30.8840  -11.9140 C.cat 337  ARG337      0.5346
     74  NH1       11.0890   29.8130  -11.6090 N.pl3 337  ARG337      0.1354
     75  NH2        9.1900   31.0770  -11.3310 N.pl3 337  ARG337      0.1354
     76  N         14.3570   38.3100  -18.0530 N.3   343  ALA343     -0.1231
     77  CA        14.0550   38.9000  -16.7600 C.3   343  ALA343      0.1694
     78  C         13.6560   40.3660  -16.8710 C.2   343  ALA343      0.2592
     79  O         13.1310   40.9280  -15.9300 O.2   343  ALA343     -0.2718
     80  CB        15.2440   38.7580  -15.8260 C.3   343  ALA343      0.0304
     81  N         13.9140   40.9870  -18.0110 N.am  344  ASN344     -0.1974
     82  CA        13.6020   42.4070  -18.1710 C.3   344  ASN344      0.1688
     83  C         12.2710   42.6620  -18.8500 C.2   344  ASN344      0.2292
     84  O         11.8460   43.8060  -18.9750 O.2   344  ASN344     -0.2864
     85  CB        14.7210   43.1280  -18.9260 C.3   344  ASN344      0.1181
     86  CG        16.0510   42.9460  -18.2640 C.2   344  ASN344      0.2629
     87  OD1       16.1670   43.0770  -17.0440 O.2   344  ASN344     -0.2716
     88  ND2       17.0620   42.6040  -19.0510 N.am  344  ASN344     -0.0877
@<TRIPOS>BOND
     1    68    67    2
     2    88    86   am
     3    84    83    2
     4    85    86    1
     5    85    82    1
     6    83    82    1
     7    61    60    1
     8    61    62    1
     9    60    57    1
    10    67    66    1
    11    86    87    2
    12    82    81    1
    13    76    77    1
    14    59    58    2
    15    81    78   am
    16    62    64   ar
    17    62    63   ar
    18    58    57    1
    19    58    65   am
    20    57    56    1
    21    66    65    1
    22    66    69    1
    23    56    54   am
    24    78    77    1
    25    78    79    2
    26    77    80    1
    27    54    53    1
    28    54    55    2
    29    53    52    1
    30    23    24    1
    31    69    70    1
    32    52    50   am
    33    24    27    1
    34    24    25    1
    35    27    28    1
    36    70    71    1
    37    30    28   ar
    38    30    32   ar
    39    40    41    1
    40    48    49    1
    41    28    29   ar
    42    50    51    2
    43    50    49    1
    44    47    45   am
    45    25    26    2
    46    25    33   am
    47    32    31   ar
    48    39    33    1
    49    39    38    1
    50    71    72    1
    51    44    45    1
    52    44    41    1
    53    45    46    2
    54    41    42    1
    55    42    43    2
    56    33    34    1
    57    29    31   ar
    58    72    73    2
    59    38    37    1
    60    73    74    1
    61    73    75    1
    62    34    37    1
    63    34    35    1
    64    35    36    2
    65    18    17    2
    66    19    20    1
    67    19    16    1
    68    13    11   ar
    69    13    14   ar
    70    22    20   am
    71    11     8   ar
    72    20    21    2
    73    14    12   ar
    74    16    17    1
    75    16    15    1
    76     4     3    2
    77     8    10   ar
    78     8     6   ar
    79    12    10   ar
    80     5     6    1
    81     5     2    1
    82    10     9   ar
    83     3     2    1
    84     6     7   ar
    85     2     1    1
    86     9     7   ar
