@<TRIPOS>MOLECULE
tmp/3ll4B00.pdb
 162 156 0 0 0
SMALL
GASTEIGER

@<TRIPOS>ATOM
      1  N        -32.9170   16.7080  -27.5200 N.3    10  ARG10      -0.1231
      2  CA       -33.7280   17.7980  -27.0620 C.3    10  ARG10       0.1694
      3  C        -34.6180   18.3250  -28.1830 C.2    10  ARG10       0.2591
      4  O        -34.1940   18.4240  -29.3670 O.2    10  ARG10      -0.2718
      5  CB       -32.8290   18.9100  -26.4850 C.3    10  ARG10       0.0321
      6  CG       -33.6310   20.0770  -25.8870 C.3    10  ARG10       0.0489
      7  CD       -32.7620   21.0470  -25.1840 C.3    10  ARG10       0.2205
      8  NE       -33.5980   22.1940  -24.9440 N.pl3  10  ARG10      -0.0865
      9  CZ       -33.1720   23.4220  -24.6640 C.cat  10  ARG10       0.5346
     10  NH1      -31.8810   23.6800  -24.5490 N.pl3  10  ARG10       0.1354
     11  NH2      -34.0590   24.3990  -24.4870 N.pl3  10  ARG10       0.1354
     12  N        -35.8480   18.6860  -27.8200 N.am   11  ALA11      -0.1980
     13  CA       -36.7750   19.2470  -28.8010 C.3    11  ALA11       0.1597
     14  C        -36.1130   20.3860  -29.5390 C.2    11  ALA11       0.2287
     15  O        -35.2970   21.1100  -28.9550 O.2    11  ALA11      -0.2864
     16  CB       -38.0120   19.7100  -28.1130 C.3    11  ALA11       0.0319
     17  N        -38.0050   26.5600  -30.3220 N.3    14  THR14      -0.1218
     18  CA       -39.3180   27.2150  -30.2450 C.3    14  THR14       0.1862
     19  C        -39.1120   28.7330  -30.0930 C.2    14  THR14       0.2287
     20  O        -37.9800   29.1850  -29.8490 O.2    14  THR14      -0.2866
     21  CB       -40.1770   26.6610  -29.0770 C.3    14  THR14       0.1770
     22  OG1      -39.5310   26.8760  -27.7810 O.3    14  THR14      -0.2211
     23  CG2      -40.4110   25.1850  -29.3100 C.3    14  THR14       0.0375
     24  N        -37.8380   28.9960  -26.4840 N.3    17  SER17      -0.1217
     25  CA       -36.4420   28.4890  -26.3240 C.3    17  SER17       0.1889
     26  C        -35.4060   29.4400  -26.9810 C.2    17  SER17       0.2288
     27  O        -34.3320   29.6620  -26.4270 O.2    17  SER17      -0.2866
     28  CB       -36.2630   27.0140  -26.8000 C.3    17  SER17       0.2089
     29  OG       -36.2410   26.8750  -28.2300 O.3    17  SER17      -0.2183
     30  N        -34.9330   32.3050  -24.5360 N.3    20  GLY20      -0.1210
     31  CA       -34.6530   31.9600  -23.1190 C.3    20  GLY20       0.1956
     32  C        -35.8330   31.8570  -22.1420 C.2    20  GLY20       0.2612
     33  O        -35.6460   31.8110  -20.9410 O.2    20  GLY20      -0.2717
     34  N        -37.0520   31.8100  -22.6560 N.am   21  GLN21      -0.1965
     35  CA       -38.2470   31.7390  -21.8400 C.3    21  GLN21       0.1733
     36  C        -38.5190   30.3000  -21.4590 C.2    21  GLN21       0.2616
     37  O        -38.4610   29.4150  -22.3140 O.2    21  GLN21      -0.2715
     38  CB       -39.4280   32.3010  -22.6150 C.3    21  GLN21       0.0408
     39  CG       -39.2310   33.7720  -23.0200 C.3    21  GLN21       0.0908
     40  CD       -40.4440   34.3260  -23.7700 C.2    21  GLN21       0.2608
     41  OE1      -41.5270   34.4980  -23.1830 O.2    21  GLN21      -0.2717
     42  NE2      -40.2700   34.6000  -25.0760 N.am   21  GLN21      -0.0878
     43  N        -38.8260   30.0710  -20.1860 N.am   22  TYR22      -0.1960
     44  CA       -38.9720   28.7070  -19.6630 C.3    22  TYR22       0.1771
     45  C        -40.2450   28.0210  -20.1850 C.2    22  TYR22       0.2620
     46  O        -41.3740   28.3680  -19.7770 O.2    22  TYR22      -0.2715
     47  CB       -39.0210   28.7190  -18.1290 C.3    22  TYR22       0.0574
     48  CG       -37.7040   28.9130  -17.4410 C.ar   22  TYR22      -0.0198
     49  CD1      -36.7690   29.8780  -17.8940 C.ar   22  TYR22      -0.0009
     50  CD2      -37.4070   28.1760  -16.2930 C.ar   22  TYR22      -0.0009
     51  CE1      -35.5570   30.0610  -17.2180 C.ar   22  TYR22       0.0417
     52  CE2      -36.2150   28.3470  -15.6120 C.ar   22  TYR22       0.0417
     53  CZ       -35.3100   29.2950  -16.0670 C.ar   22  TYR22       0.1957
     54  OH       -34.1630   29.4540  -15.3740 O.3    22  TYR22      -0.2866
     55  N        -40.0550   27.0260  -21.0420 N.am   23  THR23      -0.1951
     56  CA       -41.1630   26.3230  -21.6590 C.3    23  THR23       0.1897
     57  C        -41.3380   24.9760  -20.9700 C.2    23  THR23       0.2313
     58  O        -40.5150   24.0760  -21.1460 O.2    23  THR23      -0.2863
     59  CB       -40.8880   26.0790  -23.1520 C.3    23  THR23       0.1794
     60  OG1      -40.1640   27.2000  -23.6970 O.3    23  THR23      -0.2208
     61  CG2      -42.1830   25.8720  -23.8840 C.3    23  THR23       0.0378
     62  N        -43.7970   19.7240  -29.4060 N.3    67  ARG67      -0.1245
     63  CA       -42.4970   20.0940  -29.9570 C.3    67  ARG67       0.1563
     64  C        -41.5240   18.9040  -29.8980 C.2    67  ARG67       0.2260
     65  O        -40.6810   18.7220  -30.7950 O.2    67  ARG67      -0.2867
     66  CB       -41.9290   21.3310  -29.2440 C.3    67  ARG67       0.0307
     67  CG       -41.5110   21.1010  -27.7540 C.3    67  ARG67       0.0489
     68  CD       -41.3270   22.4290  -27.0440 C.3    67  ARG67       0.2205
     69  NE       -41.0910   22.3610  -25.6000 N.pl3  67  ARG67      -0.0865
     70  CZ       -42.0270   22.4070  -24.6500 C.cat  67  ARG67       0.5346
     71  NH1      -43.3300   22.4590  -24.9530 N.pl3  67  ARG67       0.1354
     72  NH2      -41.6470   22.3930  -23.3800 N.pl3  67  ARG67       0.1354
     73  N        -41.1400   18.1610  -19.3850 N.3    97  GLU97      -0.1245
     74  CA       -40.2000   19.0900  -18.8060 C.3    97  GLU97       0.1567
     75  C        -40.5600   19.2960  -17.3400 C.2    97  GLU97       0.2260
     76  O        -41.6750   18.9760  -16.9320 O.2    97  GLU97      -0.2867
     77  CB       -40.2500   20.4170  -19.5880 C.3    97  GLU97       0.0388
     78  CG       -39.2780   21.4920  -19.1490 C.3    97  GLU97       0.1160
     79  CD       -37.8200   21.0380  -19.1190 C.2    97  GLU97       0.3649
     80  OE1      -37.4980   20.1740  -18.2920 O.co2  97  GLU97      -0.2457
     81  OE2      -36.9930   21.5770  -19.8950 O.co2  97  GLU97      -0.2457
     82  N        -42.6810   24.1870  -14.3470 N.3   100  TYR100     -0.1241
     83  CA       -42.2280   25.5090  -13.8590 C.3   100  TYR100      0.1605
     84  C        -43.2430   26.2600  -12.9680 C.2   100  TYR100      0.2264
     85  O        -42.8670   27.1670  -12.2250 O.2   100  TYR100     -0.2867
     86  CB       -41.7790   26.4050  -15.0160 C.3   100  TYR100      0.0534
     87  CG       -40.6590   25.8050  -15.8220 C.ar  100  TYR100     -0.0201
     88  CD1      -39.4570   25.3860  -15.1890 C.ar  100  TYR100     -0.0009
     89  CD2      -40.7910   25.6080  -17.2220 C.ar  100  TYR100     -0.0009
     90  CE1      -38.3990   24.7990  -15.9390 C.ar  100  TYR100      0.0417
     91  CE2      -39.7330   25.0240  -17.9850 C.ar  100  TYR100      0.0417
     92  CZ       -38.5560   24.6260  -17.3340 C.ar  100  TYR100      0.1957
     93  OH       -37.5450   24.0570  -18.0700 O.3   100  TYR100     -0.2866
     94  N        -34.8340   33.6200  -16.7030 N.3   108  THR108     -0.1218
     95  CA       -34.0710   33.4060  -15.4960 C.3   108  THR108      0.1862
     96  C        -34.0580   34.6610  -14.6150 C.2   108  THR108      0.2287
     97  O        -34.5370   34.6110  -13.4850 O.2   108  THR108     -0.2866
     98  CB       -32.6750   32.8520  -15.7890 C.3   108  THR108      0.1770
     99  OG1      -32.8320   31.5390  -16.3210 O.3   108  THR108     -0.2211
    100  CG2      -31.8610   32.7350  -14.5240 C.3   108  THR108      0.0375
    101  N        -32.2510   23.1550   -9.4970 N.3   129  TRP129     -0.1241
    102  CA       -31.8250   21.7670   -9.2020 C.3   129  TRP129      0.1605
    103  C        -31.9130   21.3690   -7.7210 C.2   129  TRP129      0.2264
    104  O        -31.9890   20.1680   -7.4110 O.2   129  TRP129     -0.2867
    105  CB       -30.3900   21.5450   -9.6760 C.3   129  TRP129      0.0550
    106  CG       -30.1510   22.0700  -11.0650 C.ar  129  TRP129      0.0003
    107  CD1      -29.6530   23.2980  -11.4080 C.ar  129  TRP129      0.0946
    108  CD2      -30.4410   21.3950  -12.2950 C.ar  129  TRP129      0.0152
    109  NE1      -29.6060   23.4120  -12.7790 N.ar  129  TRP129     -0.2442
    110  CE2      -30.0720   22.2580  -13.3440 C.ar  129  TRP129      0.0810
    111  CE3      -30.9600   20.1340  -12.6070 C.ar  129  TRP129      0.0012
    112  CZ2      -30.2000   21.9100  -14.6790 C.ar  129  TRP129      0.0191
    113  CZ3      -31.0940   19.7780  -13.9490 C.ar  129  TRP129      0.0001
    114  CH2      -30.7120   20.6610  -14.9670 C.ar  129  TRP129      0.0015
    115  N        -36.9800   14.7510  -25.4030 N.3   173  ALA173     -0.1231
    116  CA       -37.6060   15.5030  -24.3330 C.3   173  ALA173      0.1694
    117  C        -37.1290   16.9580  -24.3290 C.2   173  ALA173      0.2592
    118  O        -37.1060   17.6130  -25.3930 O.2   173  ALA173     -0.2718
    119  CB       -37.3600   14.8000  -22.9500 C.3   173  ALA173      0.0304
    120  N        -36.7290   17.4500  -23.1460 N.am  174  HIS174     -0.1962
    121  CA       -36.5630   18.8710  -22.9510 C.3   174  HIS174      0.1787
    122  C        -35.2640   19.1760  -22.2660 C.2   174  HIS174      0.2621
    123  O        -34.5600   18.2580  -21.8070 O.2   174  HIS174     -0.2715
    124  CB       -37.7820   19.4470  -22.1910 C.3   174  HIS174      0.0785
    125  CG       -39.0940   19.0800  -22.8170 C.ar  174  HIS174      0.0821
    126  ND1      -39.5810   19.7200  -23.9380 N.ar  174  HIS174     -0.2267
    127  CD2      -39.9650   18.0790  -22.5390 C.ar  174  HIS174      0.1154
    128  CE1      -40.7210   19.1570  -24.2960 C.ar  174  HIS174      0.1986
    129  NE2      -40.9760   18.1580  -23.4670 N.ar  174  HIS174     -0.2212
    130  N        -34.9490   20.4720  -22.1950 N.am  175  GLY175     -0.1940
    131  CA       -33.6420   20.9340  -21.7950 C.3   175  GLY175      0.2014
    132  C        -33.2970   20.6540  -20.3550 C.2   175  GLY175      0.2638
    133  O        -32.1580   20.2400  -20.0700 O.2   175  GLY175     -0.2714
    134  N        -34.2390   20.8910  -19.4430 N.am  176  HIS176     -0.1973
    135  CA       -33.9780   20.5540  -18.0490 C.3   176  HIS176      0.1656
    136  C        -34.0910   19.0230  -17.8510 C.2   176  HIS176      0.2291
    137  O        -33.1380   18.3580  -17.4400 O.2   176  HIS176     -0.2864
    138  CB       -34.9070   21.3020  -17.0900 C.3   176  HIS176      0.0771
    139  CG       -34.4650   22.6990  -16.7570 C.ar  176  HIS176      0.0820
    140  ND1      -35.0420   23.8210  -17.3240 N.ar  176  HIS176     -0.2267
    141  CD2      -33.5140   23.1550  -15.9010 C.ar  176  HIS176      0.1154
    142  CE1      -34.4730   24.9090  -16.8270 C.ar  176  HIS176      0.1986
    143  NE2      -33.5440   24.5320  -15.9610 N.ar  176  HIS176     -0.2212
    144  N        -31.0310   17.0590  -19.2120 N.3   179  ARG179     -0.1245
    145  CA       -29.7860   17.2540  -18.4580 C.3   179  ARG179      0.1563
    146  C        -29.8920   16.5130  -17.1410 C.2   179  ARG179      0.2260
    147  O        -28.9400   15.8490  -16.7010 O.2   179  ARG179     -0.2867
    148  CB       -29.4760   18.7330  -18.2270 C.3   179  ARG179      0.0307
    149  CG       -29.0170   19.4370  -19.4850 C.3   179  ARG179      0.0489
    150  CD       -28.6580   20.8710  -19.2060 C.3   179  ARG179      0.2205
    151  NE       -29.8540   21.7130  -19.1340 N.pl3 179  ARG179     -0.0865
    152  CZ       -29.8580   22.9550  -18.6680 C.cat 179  ARG179      0.5346
    153  NH1      -28.7300   23.5020  -18.2270 N.pl3 179  ARG179      0.1354
    154  NH2      -30.9980   23.6440  -18.6260 N.pl3 179  ARG179      0.1354
    155  N        -26.6170   21.9200   -9.3990 N.3   225  ASN225     -0.1240
    156  CA       -26.5120   22.0130  -10.8650 C.3   225  ASN225      0.1653
    157  C        -25.5410   20.9600  -11.4090 C.2   225  ASN225      0.2266
    158  O        -24.4340   20.8410  -10.9280 O.2   225  ASN225     -0.2867
    159  CB       -26.0230   23.4020  -11.2370 C.3   225  ASN225      0.1155
    160  CG       -26.0610   23.6720  -12.7510 C.2   225  ASN225      0.2627
    161  OD1      -26.1530   22.7660  -13.6140 O.2   225  ASN225     -0.2716
    162  ND2      -25.9550   24.9370  -13.0740 N.am  225  ASN225     -0.0877
@<TRIPOS>BOND
     1    65    64    2
     2    17    18    1
     3    18    19    1
     4    18    21    1
     5    19    20    2
     6    63    64    1
     7    63    62    1
     8    63    66    1
     9    14    15    2
    10    14    13    1
    11     4     3    2
    12    23    21    1
    13    66    67    1
    14    21    22    1
    15    13    16    1
    16    13    12    1
    17    29    28    1
    18     3    12   am
    19     3     2    1
    20    67    68    1
    21     1     2    1
    22     2     5    1
    23    68    69    1
    24    26    27    2
    25    26    25    1
    26    28    25    1
    27     5     6    1
    28    24    25    1
    29     6     7    1
    30    69    70    2
    31   115   116    1
    32   118   117    2
    33     7     8    1
    34    42    40   am
    35    71    70    1
    36     8     9    2
    37     9    10    1
    38     9    11    1
    39    70    72    1
    40    30    31    1
    41   116   117    1
    42   116   119    1
    43   117   120   am
    44   128   126   ar
    45   128   129   ar
    46   126   125   ar
    47    61    59    1
    48    40    41    2
    49    40    39    1
    50    60    59    1
    51   129   127   ar
    52    59    56    1
    53   120   121    1
    54    31    32    1
    55    39    38    1
    56   121   122    1
    57   121   124    1
    58   125   127   ar
    59   125   124    1
    60    34    32   am
    61    34    35    1
    62    38    35    1
    63    37    36    2
    64   122   130   am
    65   122   123    2
    66   130   131    1
    67    32    33    2
    68    35    36    1
    69   131   132    1
    70    56    55    1
    71    56    57    1
    72    36    43   am
    73    58    57    2
    74    55    45   am
    75   132   133    2
    76   132   134   am
    77    43    44    1
    78    45    46    2
    79    45    44    1
    80    81    79   ar
    81    44    47    1
    82    77    78    1
    83    77    74    1
    84   149   150    1
    85   149   148    1
    86   134   135    1
    87    73    74    1
    88   144   145    1
    89   150   151    1
    90    78    79    1
    91   151   152    2
    92    79    80   ar
    93    74    75    1
    94   152   154    1
    95   152   153    1
    96   145   148    1
    97   145   146    1
    98    47    48    1
    99    93    92    1
   100   135   136    1
   101   135   138    1
   102    91    92   ar
   103    91    89   ar
   104    49    48   ar
   105    49    51   ar
   106   136   137    2
   107    48    50   ar
   108    75    76    2
   109    92    90   ar
   110   140   142   ar
   111   140   139   ar
   112    89    87   ar
   113    51    53   ar
   114   146   147    2
   115   138   139    1
   116   142   143   ar
   117   139   141   ar
   118    94    95    1
   119    99    98    1
   120    50    52   ar
   121    53    52   ar
   122    53    54    1
   123   143   141   ar
   124    90    88   ar
   125    87    88   ar
   126    87    86    1
   127    98    95    1
   128    98   100    1
   129    95    96    1
   130    86    83    1
   131   114   112   ar
   132   114   113   ar
   133   112   110   ar
   134    96    97    2
   135    82    83    1
   136   113   111   ar
   137    83    84    1
   138   161   160    2
   139   110   109   ar
   140   110   108   ar
   141   162   160   am
   142    84    85    2
   143   109   107   ar
   144   160   159    1
   145   111   108   ar
   146   108   106   ar
   147   157   158    2
   148   157   156    1
   149   107   106   ar
   150   159   156    1
   151   106   105    1
   152   156   155    1
   153   105   102    1
   154   101   102    1
   155   102   103    1
   156   103   104    2
