@<TRIPOS>MOLECULE
tmp/3ll5A01.pdb
 117 107 0 0 0
SMALL
GASTEIGER

@<TRIPOS>ATOM
      1  N         29.6830   15.1400  -41.3290 N.3     4  LYS4       -0.1245
      2  CA        30.4790   14.1910  -40.5510 C.3     4  LYS4        0.1561
      3  C         29.5610   13.1250  -39.9970 C.2     4  LYS4        0.2260
      4  O         28.5120   13.4450  -39.4130 O.2     4  LYS4       -0.2867
      5  CB        31.1570   14.8080  -39.3460 C.3     4  LYS4        0.0271
      6  CG        31.7000   13.7110  -38.3490 C.3     4  LYS4        0.0035
      7  CD        32.5290   14.3400  -37.2150 C.3     4  LYS4        0.0206
      8  CE        33.3740   13.3010  -36.4890 C.3     4  LYS4        0.1093
      9  NZ        32.9350   13.2120  -35.1140 N.3     4  LYS4       -0.1314
     10  N         29.2880   10.6000  -37.1610 N.3     6  GLY6       -0.1210
     11  CA        29.8970   10.4240  -35.8440 C.3     6  GLY6        0.1956
     12  C         30.1740    8.9790  -35.4940 C.2     6  GLY6        0.2612
     13  O         29.3630    8.0840  -35.7720 O.2     6  GLY6       -0.2717
     14  N         31.3480    8.7460  -34.9230 N.am    7  GLY7       -0.1942
     15  CA        31.7020    7.4330  -34.3970 C.3     7  GLY7        0.2014
     16  C         30.6760    6.8720  -33.4180 C.2     7  GLY7        0.2639
     17  O         30.4970    5.6460  -33.3640 O.2     7  GLY7       -0.2714
     18  N         29.9730    7.7420  -32.6810 N.am    8  SER8       -0.1949
     19  CA        29.0380    7.2740  -31.6720 C.3     8  SER8        0.1924
     20  C         27.8450    6.5860  -32.3550 C.2     8  SER8        0.2314
     21  O         27.1620    5.7780  -31.7370 O.2     8  SER8       -0.2863
     22  CB        28.5150    8.4240  -30.8120 C.3     8  SER8        0.2116
     23  OG        27.7940    9.4150  -31.5910 O.3     8  SER8       -0.2180
     24  N         30.6440    2.3740  -29.1340 N.3    13  LYS13      -0.1245
     25  CA        31.8590    3.0210  -28.5900 C.3    13  LYS13       0.1561
     26  C         32.4460    2.2530  -27.3880 C.2    13  LYS13       0.2260
     27  O         33.6060    2.4660  -27.0000 O.2    13  LYS13      -0.2867
     28  CB        31.5900    4.5050  -28.2270 C.3    13  LYS13       0.0271
     29  CG        31.6060    5.4720  -29.4550 C.3    13  LYS13       0.0035
     30  CD        31.8850    6.9510  -29.0500 C.3    13  LYS13       0.0206
     31  CE        32.3570    7.8660  -30.2520 C.3    13  LYS13       0.1093
     32  NZ        33.0060    9.1990  -29.8220 N.3    13  LYS13      -0.1314
     33  N         33.9350    9.6920  -37.8930 N.3    43  GLY43      -0.1210
     34  CA        34.6750    9.4880  -36.6630 C.3    43  GLY43       0.1956
     35  C         35.0280    8.0220  -36.5140 C.2    43  GLY43       0.2612
     36  O         34.7480    7.2150  -37.3930 O.2    43  GLY43      -0.2717
     37  N         35.6230    7.6680  -35.3810 N.am   44  GLY44      -0.1942
     38  CA        36.2690    6.3750  -35.2610 C.3    44  GLY44       0.2014
     39  C         35.5910    5.5130  -34.2200 C.2    44  GLY44       0.2639
     40  O         35.6350    4.3050  -34.3500 O.2    44  GLY44      -0.2714
     41  N         34.9760    6.1050  -33.2000 N.am   45  GLY45      -0.1954
     42  CA        34.3480    5.3260  -32.1360 C.3    45  GLY45       0.1869
     43  C         35.2690    4.2050  -31.6380 C.2    45  GLY45       0.2309
     44  O         36.4530    4.4460  -31.4160 O.2    45  GLY45      -0.2863
     45  N         38.8550    3.6130  -33.0140 N.3    48  GLY48      -0.1210
     46  CA        39.7750    4.7100  -32.7990 C.3    48  GLY48       0.1956
     47  C         40.1690    4.8000  -31.3270 C.2    48  GLY48       0.2611
     48  O         41.3480    4.8100  -31.0050 O.2    48  GLY48      -0.2717
     49  N         39.2150    5.1580  -30.6090 N.am   49  HIS49      -0.1975
     50  CA        39.4620    5.7380  -29.2890 C.3    49  HIS49       0.1656
     51  C         40.0820    4.7470  -28.2970 C.2    49  HIS49       0.2291
     52  O         40.9340    5.1160  -27.4760 O.2    49  HIS49      -0.2864
     53  CB        38.1680    6.2910  -28.7140 C.3    49  HIS49       0.0771
     54  CG        37.6640    7.4910  -29.4480 C.ar   49  HIS49       0.0820
     55  ND1       38.1520    8.7650  -29.2210 N.ar   49  HIS49      -0.2267
     56  CD2       36.7320    7.6170  -30.4220 C.ar   49  HIS49       0.1154
     57  CE1       37.5300    9.6240  -30.0150 C.ar   49  HIS49       0.1986
     58  NE2       36.6750    8.9500  -30.7650 N.ar   49  HIS49      -0.2212
     59  N         43.7340    3.9520  -29.1640 N.3    52  ALA52      -0.1245
     60  CA        44.4770    5.2170  -28.9600 C.3    52  ALA52       0.1562
     61  C         44.7680    5.4020  -27.4750 C.2    52  ALA52       0.2260
     62  O         45.8960    5.6440  -27.0790 O.2    52  ALA52      -0.2867
     63  CB        43.7340    6.3780  -29.4460 C.3    52  ALA52       0.0290
     64  N         46.0310    1.6420  -34.9120 N.3    71  VAL71      -0.1245
     65  CA        44.8840    2.5510  -34.9430 C.3    71  VAL71       0.1561
     66  C         44.5880    2.9020  -36.4120 C.2    71  VAL71       0.2260
     67  O         43.4460    2.8940  -36.8540 O.2    71  VAL71      -0.2867
     68  CB        45.1430    3.8070  -34.1080 C.3    71  VAL71       0.0252
     69  CG1       44.0700    4.8380  -34.3910 C.3    71  VAL71       0.0019
     70  CG2       45.2530    3.3570  -32.5660 C.3    71  VAL71       0.0019
     71  N         38.8810   10.7070  -38.7150 N.3   121  GLY121     -0.1210
     72  CA        39.7650   10.8380  -37.5640 C.3   121  GLY121      0.1956
     73  C         40.8920    9.8370  -37.6900 C.2   121  GLY121      0.2611
     74  O         40.6420    8.6480  -38.0090 O.2   121  GLY121     -0.2717
     75  N         42.1270   10.2940  -37.4630 N.am  122  ASP122     -0.1973
     76  CA        43.3180    9.4940  -37.8600 C.3   122  ASP122      0.1709
     77  C         44.5500    9.8910  -37.0470 C.2   122  ASP122      0.2293
     78  O         44.5830   10.9960  -36.4100 O.2   122  ASP122     -0.2864
     79  CB        43.6650    9.7560  -39.3450 C.3   122  ASP122      0.1436
     80  CG        44.3060    8.5310  -40.0670 C.2   122  ASP122      0.3671
     81  OD1       44.6360    7.4830  -39.4140 O.co2 122  ASP122     -0.2456
     82  OD2       44.4340    8.6070  -41.3450 O.co2 122  ASP122     -0.2456
     83  N         46.5050   12.8880  -32.8540 N.3   133  ILE133     -0.1245
     84  CA        45.2740   12.2640  -33.4130 C.3   133  ILE133      0.1561
     85  C         44.4900   13.4450  -33.9180 C.2   133  ILE133      0.2260
     86  O         44.2300   14.3660  -33.1670 O.2   133  ILE133     -0.2867
     87  CB        44.4890   11.4980  -32.3480 C.3   133  ILE133      0.0252
     88  CG1       45.1450   10.1290  -32.1760 C.3   133  ILE133      0.0019
     89  CG2       42.9490   11.4100  -32.7670 C.3   133  ILE133      0.0019
     90  CD1       44.5630    9.2950  -31.1350 C.3   133  ILE133      0.0001
     91  N         40.9890   14.6820  -35.1310 N.3   135  SER135     -0.1202
     92  CA        39.6750   14.0440  -35.0630 C.3   135  SER135      0.2020
     93  C         38.7670   14.4340  -36.2680 C.2   135  SER135      0.2619
     94  O         39.0900   15.3330  -37.0530 O.2   135  SER135     -0.2717
     95  CB        38.9910   14.4010  -33.7540 C.3   135  SER135      0.2103
     96  OG        38.4860   15.7110  -33.9040 O.3   135  SER135     -0.2182
     97  N         37.6570   13.7150  -36.4310 N.am  136  GLY136     -0.1942
     98  CA        36.7000   14.0210  -37.4960 C.3   136  GLY136      0.2014
     99  C         36.2590   15.4790  -37.3940 C.2   136  GLY136      0.2638
    100  O         36.1280   16.1730  -38.4000 O.2   136  GLY136     -0.2714
    101  N         36.0980   15.9870  -36.1660 N.am  137  ASP137     -0.1971
    102  CA        35.6600   17.3270  -35.9620 C.3   137  ASP137      0.1709
    103  C         36.7460   18.3320  -36.4350 C.2   137  ASP137      0.2293
    104  O         36.4120   19.3490  -36.9600 O.2   137  ASP137     -0.2864
    105  CB        35.4020   17.5240  -34.4450 C.3   137  ASP137      0.1436
    106  CG        34.1300   16.8190  -33.9530 C.2   137  ASP137      0.3671
    107  OD1       33.3770   16.2300  -34.7860 O.co2 137  ASP137     -0.2456
    108  OD2       33.8460   16.9040  -32.7240 O.co2 137  ASP137     -0.2456
    109  N         33.5010   19.4110  -29.3910 N.3   183  LYS183     -0.1245
    110  CA        32.7260   19.4700  -30.6250 C.3   183  LYS183      0.1561
    111  C         31.9360   20.8100  -30.7020 C.2   183  LYS183      0.2260
    112  O         31.9360   21.4870  -31.7330 O.2   183  LYS183     -0.2867
    113  CB        31.7460   18.2940  -30.7360 C.3   183  LYS183      0.0271
    114  CG        30.9260   18.3240  -32.0350 C.3   183  LYS183      0.0035
    115  CD        29.8750   17.1820  -32.0970 C.3   183  LYS183      0.0206
    116  CE        30.4190   15.8500  -32.7270 C.3   183  LYS183      0.1093
    117  NZ        31.6030   15.3110  -31.9760 N.3   183  LYS183     -0.1314
@<TRIPOS>BOND
     1    82    80   ar
     2     1     2    1
     3     2     3    1
     4     2     5    1
     5    80    81   ar
     6    80    79    1
     7     3     4    2
     8     5     6    1
     9    79    76    1
    10    71    72    1
    11   100    99    2
    12     6     7    1
    13    74    73    2
    14    33    34    1
    15    76    75    1
    16    76    77    1
    17    73    72    1
    18    73    75   am
    19    98    99    1
    20    98    97    1
    21    99   101   am
    22    36    35    2
    23     7     8    1
    24    10    11    1
    25    94    93    2
    26    77    78    2
    27   104   103    2
    28    67    66    2
    29    34    35    1
    30    35    37   am
    31     8     9    1
    32   103   102    1
    33    97    93   am
    34    66    65    1
    35    93    92    1
    36   101   102    1
    37   102   105    1
    38    11    12    1
    39    13    12    2
    40    12    14   am
    41    37    38    1
    42    38    39    1
    43    91    92    1
    44    92    95    1
    45    65    64    1
    46    65    68    1
    47    14    15    1
    48   107   106   ar
    49   105   106    1
    50    15    16    1
    51    69    68    1
    52    40    39    2
    53    39    41   am
    54    68    70    1
    55   106   108   ar
    56    85    84    1
    57    85    86    2
    58    96    95    1
    59    16    17    2
    60    16    18   am
    61    84    83    1
    62    84    87    1
    63    41    42    1
    64    45    46    1
    65    46    47    1
    66    89    87    1
    67   116   115    1
    68   116   117    1
    69    18    19    1
    70    20    21    2
    71    20    19    1
    72    87    88    1
    73    88    90    1
    74    42    43    1
    75   115   114    1
    76   114   113    1
    77   112   111    2
    78    19    22    1
    79    43    44    2
    80    23    22    1
    81    47    48    2
    82    47    49   am
    83    58    56   ar
    84    58    57   ar
    85   113   110    1
    86   111   110    1
    87   110   109    1
    88    49    50    1
    89    56    54   ar
    90    31    32    1
    91    31    30    1
    92    57    55   ar
    93    29    30    1
    94    29    28    1
    95    54    55   ar
    96    54    53    1
    97    63    60    1
    98    50    53    1
    99    50    51    1
   100    59    60    1
   101    24    25    1
   102    60    61    1
   103    25    28    1
   104    25    26    1
   105    51    52    2
   106    61    62    2
   107    26    27    2
