@<TRIPOS>MOLECULE
tmp/3ll5A00.pdb
 164 157 0 0 0
SMALL
GASTEIGER

@<TRIPOS>ATOM
      1  N         29.6830   15.1400  -41.3290 N.3     4  LYS4       -0.1245
      2  CA        30.4790   14.1910  -40.5510 C.3     4  LYS4        0.1561
      3  C         29.5610   13.1250  -39.9970 C.2     4  LYS4        0.2260
      4  O         28.5120   13.4450  -39.4130 O.2     4  LYS4       -0.2867
      5  CB        31.1570   14.8080  -39.3460 C.3     4  LYS4        0.0271
      6  CG        31.7000   13.7110  -38.3490 C.3     4  LYS4        0.0035
      7  CD        32.5290   14.3400  -37.2150 C.3     4  LYS4        0.0206
      8  CE        33.3740   13.3010  -36.4890 C.3     4  LYS4        0.1093
      9  NZ        32.9350   13.2120  -35.1140 N.3     4  LYS4       -0.1314
     10  N         29.2880   10.6000  -37.1610 N.3     6  GLY6       -0.1210
     11  CA        29.8970   10.4240  -35.8440 C.3     6  GLY6        0.1956
     12  C         30.1740    8.9790  -35.4940 C.2     6  GLY6        0.2612
     13  O         29.3630    8.0840  -35.7720 O.2     6  GLY6       -0.2717
     14  N         31.3480    8.7460  -34.9230 N.am    7  GLY7       -0.1942
     15  CA        31.7020    7.4330  -34.3970 C.3     7  GLY7        0.2014
     16  C         30.6760    6.8720  -33.4180 C.2     7  GLY7        0.2639
     17  O         30.4970    5.6460  -33.3640 O.2     7  GLY7       -0.2714
     18  N         29.9730    7.7420  -32.6810 N.am    8  SER8       -0.1949
     19  CA        29.0380    7.2740  -31.6720 C.3     8  SER8        0.1924
     20  C         27.8450    6.5860  -32.3550 C.2     8  SER8        0.2314
     21  O         27.1620    5.7780  -31.7370 O.2     8  SER8       -0.2863
     22  CB        28.5150    8.4240  -30.8120 C.3     8  SER8        0.2116
     23  OG        27.7940    9.4150  -31.5910 O.3     8  SER8       -0.2180
     24  N         30.6440    2.3740  -29.1340 N.3    13  LYS13      -0.1245
     25  CA        31.8590    3.0210  -28.5900 C.3    13  LYS13       0.1561
     26  C         32.4460    2.2530  -27.3880 C.2    13  LYS13       0.2260
     27  O         33.6060    2.4660  -27.0000 O.2    13  LYS13      -0.2867
     28  CB        31.5900    4.5050  -28.2270 C.3    13  LYS13       0.0271
     29  CG        31.6060    5.4720  -29.4550 C.3    13  LYS13       0.0035
     30  CD        31.8850    6.9510  -29.0500 C.3    13  LYS13       0.0206
     31  CE        32.3570    7.8660  -30.2520 C.3    13  LYS13       0.1093
     32  NZ        33.0060    9.1990  -29.8220 N.3    13  LYS13      -0.1314
     33  N         33.9350    9.6920  -37.8930 N.3    43  GLY43      -0.1225
     34  CA        34.6750    9.4880  -36.6630 C.3    43  GLY43       0.1811
     35  C         35.0280    8.0220  -36.5140 C.2    43  GLY43       0.2280
     36  O         34.7480    7.2150  -37.3930 O.2    43  GLY43      -0.2866
     37  N         39.2150    5.1580  -30.6090 N.3    49  HIS49      -0.1241
     38  CA        39.4620    5.7380  -29.2890 C.3    49  HIS49       0.1621
     39  C         40.0820    4.7470  -28.2970 C.2    49  HIS49       0.2264
     40  O         40.9340    5.1160  -27.4760 O.2    49  HIS49      -0.2867
     41  CB        38.1680    6.2910  -28.7140 C.3    49  HIS49       0.0745
     42  CG        37.6640    7.4910  -29.4480 C.ar   49  HIS49       0.0817
     43  ND1       38.1520    8.7650  -29.2210 N.ar   49  HIS49      -0.2268
     44  CD2       36.7320    7.6170  -30.4220 C.ar   49  HIS49       0.1154
     45  CE1       37.5300    9.6240  -30.0150 C.ar   49  HIS49       0.1986
     46  NE2       36.6750    8.9500  -30.7650 N.ar   49  HIS49      -0.2212
     47  N         26.4510   14.2370  -37.5000 N.3   153  LEU153     -0.1231
     48  CA        25.5140   13.2070  -37.0080 C.3   153  LEU153      0.1693
     49  C         26.1610   12.5060  -35.8040 C.2   153  LEU153      0.2593
     50  O         27.3490   12.1230  -35.8270 O.2   153  LEU153     -0.2718
     51  CB        25.1730   12.1490  -38.0610 C.3   153  LEU153      0.0284
     52  CG        24.7450   12.6000  -39.4420 C.3   153  LEU153      0.0019
     53  CD1       24.6010   11.4380  -40.3710 C.3   153  LEU153      0.0001
     54  CD2       23.3820   13.3990  -39.3660 C.3   153  LEU153      0.0001
     55  N         25.3750   12.3730  -34.7350 N.am  154  THR154     -0.1939
     56  CA        25.8410   11.7550  -33.5180 C.3   154  THR154      0.2028
     57  C         24.6930   10.8750  -33.0760 C.2   154  THR154      0.2642
     58  O         23.6980   10.7440  -33.7930 O.2   154  THR154     -0.2714
     59  CB        26.1470   12.8050  -32.4750 C.3   154  THR154      0.1808
     60  OG1       26.8000   12.1920  -31.3810 O.3   154  THR154     -0.2208
     61  CG2       24.8650   13.4580  -31.9840 C.3   154  THR154      0.0379
     62  N         24.7720   10.2530  -31.9190 N.am  155  ASP155     -0.1957
     63  CA        23.7080    9.3030  -31.6210 C.3   155  ASP155      0.1840
     64  C         22.6360    9.8670  -30.6700 C.2   155  ASP155      0.2621
     65  O         21.9410    9.1000  -30.0200 O.2   155  ASP155     -0.2715
     66  CB        24.3170    8.0560  -31.0000 C.3   155  ASP155      0.1450
     67  CG        24.8730    8.3290  -29.6200 C.2   155  ASP155      0.3671
     68  OD1       25.0600    9.5300  -29.2890 O.co2 155  ASP155     -0.2456
     69  OD2       25.1130    7.3500  -28.8770 O.co2 155  ASP155     -0.2456
     70  N         22.5580   11.1850  -30.5450 N.am  156  VAL156     -0.1977
     71  CA        21.5240   11.8580  -29.7490 C.3   156  VAL156      0.1596
     72  C         20.8820   12.9450  -30.6540 C.2   156  VAL156      0.2287
     73  O         21.3240   13.1650  -31.7830 O.2   156  VAL156     -0.2864
     74  CB        22.0740   12.4680  -28.4220 C.3   156  VAL156      0.0276
     75  CG1       22.5940   11.3750  -27.4870 C.3   156  VAL156      0.0022
     76  CG2       23.1580   13.4650  -28.6880 C.3   156  VAL156      0.0022
     77  N         20.4730   16.2320  -30.5140 N.3   158  GLY158     -0.1210
     78  CA        21.1560   17.5090  -30.6810 C.3   158  GLY158      0.1956
     79  C         22.0470   17.8550  -29.4730 C.2   158  GLY158      0.2612
     80  O         22.3830   16.9940  -28.6600 O.2   158  GLY158     -0.2717
     81  N         22.4900   19.1080  -29.3930 N.am  159  ILE159     -0.1965
     82  CA        23.1720   19.5950  -28.1930 C.3   159  ILE159      0.1727
     83  C         22.1110   19.8430  -27.1120 C.2   159  ILE159      0.2616
     84  O         21.1470   20.6070  -27.3260 O.2   159  ILE159     -0.2715
     85  CB        23.8460   20.9290  -28.3630 C.3   159  ILE159      0.0290
     86  CG1       24.8760   20.9430  -29.4690 C.3   159  ILE159      0.0022
     87  CG2       24.5580   21.3320  -27.0430 C.3   159  ILE159      0.0023
     88  CD1       26.1650   20.3020  -29.0480 C.3   159  ILE159      0.0001
     89  N         22.2940   19.2140  -25.9740 N.am  160  TYR160     -0.1960
     90  CA        21.4020   19.4180  -24.8240 C.3   160  TYR160      0.1771
     91  C         22.0440   20.2350  -23.7170 C.2   160  TYR160      0.2620
     92  O         23.2610   20.3890  -23.7000 O.2   160  TYR160     -0.2715
     93  CB        21.0300   18.0840  -24.2090 C.3   160  TYR160      0.0574
     94  CG        20.0240   17.2250  -24.9640 C.ar  160  TYR160     -0.0198
     95  CD1       18.6940   17.2380  -24.6120 C.ar  160  TYR160     -0.0009
     96  CD2       20.4170   16.3660  -25.9900 C.ar  160  TYR160     -0.0009
     97  CE1       17.7970   16.4560  -25.2280 C.ar  160  TYR160      0.0417
     98  CE2       19.4900   15.5600  -26.6300 C.ar  160  TYR160      0.0417
     99  CZ        18.1900   15.6290  -26.2470 C.ar  160  TYR160      0.1957
    100  OH        17.2350   14.8580  -26.7970 O.3   160  TYR160     -0.2866
    101  N         21.2160   20.7430  -22.7860 N.am  161  SER161     -0.1936
    102  CA        21.7000   21.3720  -21.5460 C.3   161  SER161      0.2055
    103  C         22.6700   20.4610  -20.7370 C.2   161  SER161      0.2643
    104  O         23.6690   20.9370  -20.1500 O.2   161  SER161     -0.2714
    105  CB        20.5170   21.7950  -20.6660 C.3   161  SER161      0.2130
    106  OG        19.7500   20.6750  -20.2720 O.3   161  SER161     -0.2179
    107  N         22.3960   19.1560  -20.7490 N.am  162  LYS162     -0.1963
    108  CA        23.1930   18.1760  -20.0230 C.3   162  LYS162      0.1728
    109  C         23.1160   16.8490  -20.7840 C.2   162  LYS162      0.2616
    110  O         22.2480   16.6840  -21.6200 O.2   162  LYS162     -0.2715
    111  CB        22.6470   17.9810  -18.6060 C.3   162  LYS162      0.0311
    112  CG        22.4820   19.2700  -17.8180 C.3   162  LYS162      0.0038
    113  CD        21.8440   19.0250  -16.4470 C.3   162  LYS162      0.0206
    114  CE        22.1930   20.1530  -15.4930 C.3   162  LYS162      0.1093
    115  NZ        21.5290   19.9870  -14.1670 N.3   162  LYS162     -0.1314
    116  N         24.0060   15.9020  -20.4850 N.am  163  ASP163     -0.1958
    117  CA        23.9960   14.6330  -21.1880 C.3   163  ASP163      0.1825
    118  C         22.6210   13.9960  -21.1130 C.2   163  ASP163      0.2464
    119  O         22.1810   13.6070  -20.0490 O.2   163  ASP163     -0.2730
    120  CB        25.0160   13.6910  -20.5720 C.3   163  ASP163      0.1450
    121  CG        25.3610   12.5270  -21.4850 C.2   163  ASP163      0.3671
    122  OD1       24.4630   12.0080  -22.1940 O.co2 163  ASP163     -0.2456
    123  OD2       26.5450   12.1370  -21.5100 O.co2 163  ASP163     -0.2456
    124  N         21.9400   13.8540  -22.2480 N.am  164  PRO164     -0.2715
    125  CA        20.5970   13.2890  -22.1890 C.3   164  PRO164      0.1536
    126  C         20.6110   11.8380  -21.7270 C.2   164  PRO164      0.2598
    127  O         19.5580   11.3030  -21.3730 O.2   164  PRO164     -0.2715
    128  CB        20.1320   13.3520  -23.6380 C.3   164  PRO164      0.0310
    129  CG        21.4210   13.2500  -24.4330 C.3   164  PRO164      0.0237
    130  CD        22.3750   14.1020  -23.6310 C.3   164  PRO164      0.0939
    131  N         21.7770   11.1960  -21.7330 N.am  165  LYS165     -0.1978
    132  CA        21.8540    9.7740  -21.3750 C.3   165  LYS165      0.1596
    133  C         21.9830    9.5570  -19.8670 C.2   165  LYS165      0.2287
    134  O         21.4060    8.6260  -19.3170 O.2   165  LYS165     -0.2864
    135  CB        23.0200    9.1000  -22.0930 C.3   165  LYS165      0.0298
    136  CG        22.6740    8.6460  -23.4960 C.3   165  LYS165      0.0038
    137  CD        23.8250    7.9240  -24.1230 C.3   165  LYS165      0.0206
    138  CE        23.9660    8.2800  -25.5760 C.3   165  LYS165      0.1093
    139  NZ        25.1220    7.5610  -26.1190 N.3   165  LYS165     -0.1314
    140  N         31.6710   16.2010  -25.9740 N.3   180  ILE180     -0.1245
    141  CA        30.6300   17.0950  -26.5140 C.3   180  ILE180      0.1561
    142  C         31.0510   18.5610  -26.4300 C.2   180  ILE180      0.2260
    143  O         30.6650   19.3730  -27.2730 O.2   180  ILE180     -0.2867
    144  CB        29.3430   16.9840  -25.7120 C.3   180  ILE180      0.0252
    145  CG1       28.3350   18.0380  -26.1910 C.3   180  ILE180      0.0019
    146  CG2       29.6850   17.1110  -24.1880 C.3   180  ILE180      0.0019
    147  CD1       28.0210   17.9300  -27.6730 C.3   180  ILE180      0.0001
    148  N         33.5010   19.4110  -29.3910 N.3   183  LYS183     -0.1245
    149  CA        32.7260   19.4700  -30.6250 C.3   183  LYS183      0.1561
    150  C         31.9360   20.8100  -30.7020 C.2   183  LYS183      0.2260
    151  O         31.9360   21.4870  -31.7330 O.2   183  LYS183     -0.2867
    152  CB        31.7460   18.2940  -30.7360 C.3   183  LYS183      0.0271
    153  CG        30.9260   18.3240  -32.0350 C.3   183  LYS183      0.0035
    154  CD        29.8750   17.1820  -32.0970 C.3   183  LYS183      0.0206
    155  CE        30.4190   15.8500  -32.7270 C.3   183  LYS183      0.1093
    156  NZ        31.6030   15.3110  -31.9760 N.3   183  LYS183     -0.1314
    157  N         23.6440   19.8600  -35.6420 N.3   198  LEU198     -0.1245
    158  CA        23.8120   18.5390  -35.0500 C.3   198  LEU198      0.1561
    159  C         22.4940   17.7770  -35.1770 C.2   198  LEU198      0.2260
    160  O         21.4320   18.2820  -34.8120 O.2   198  LEU198     -0.2867
    161  CB        24.2380   18.6740  -33.5810 C.3   198  LEU198      0.0270
    162  CG        24.5990   17.3760  -32.8930 C.3   198  LEU198      0.0019
    163  CD1       25.7410   16.7110  -33.6260 C.3   198  LEU198      0.0001
    164  CD2       25.0310   17.5820  -31.3660 C.3   198  LEU198      0.0001
@<TRIPOS>BOND
     1     1     2    1
     2     2     3    1
     3     2     5    1
     4    53    52    1
     5     3     4    2
     6    52    54    1
     7    52    51    1
     8     5     6    1
     9     6     7    1
    10    51    48    1
    11    33    34    1
    12    47    48    1
    13    36    35    2
    14     7     8    1
    15    10    11    1
    16    48    49    1
    17    34    35    1
    18     8     9    1
    19    11    12    1
    20    50    49    2
    21    49    55   am
    22    13    12    2
    23   157   158    1
    24    12    14   am
    25   159   158    1
    26   159   160    2
    27   158   161    1
    28    14    15    1
    29    55    56    1
    30    15    16    1
    31    58    57    2
    32   163   162    1
    33   161   162    1
    34    56    57    1
    35    56    59    1
    36    16    17    2
    37    16    18   am
    38    57    62   am
    39   162   164    1
    40   155   154    1
    41   155   156    1
    42    18    19    1
    43    59    61    1
    44    59    60    1
    45    20    21    2
    46    20    19    1
    47   154   153    1
    48   153   152    1
    49    62    63    1
    50    73    72    2
    51   151   150    2
    52    19    22    1
    53    63    66    1
    54    63    64    1
    55    23    22    1
    56    66    67    1
    57    46    44   ar
    58    46    45   ar
    59   152   149    1
    60   150   149    1
    61    78    77    1
    62    78    79    1
    63    64    70   am
    64    64    65    2
    65    72    71    1
    66   149   148    1
    67    37    38    1
    68    70    71    1
    69    44    42   ar
    70    31    32    1
    71    31    30    1
    72    45    43   ar
    73    71    74    1
    74    67    68   ar
    75    67    69   ar
    76    79    81   am
    77    79    80    2
    78    86    88    1
    79    86    85    1
    80    29    30    1
    81    29    28    1
    82    42    43   ar
    83    42    41    1
    84    81    82    1
    85    38    41    1
    86    38    39    1
    87    24    25    1
    88    76    74    1
    89    25    28    1
    90    25    26    1
    91    74    75    1
    92    85    82    1
    93    85    87    1
    94    39    40    2
    95    82    83    1
    96   147   145    1
    97    26    27    2
    98    84    83    2
    99   143   142    2
   100    83    89   am
   101   100    99    1
   102    98    99   ar
   103    98    96   ar
   104   141   142    1
   105   141   140    1
   106   141   144    1
   107    99    97   ar
   108   145   144    1
   109   139   138    1
   110    96    94   ar
   111    89    90    1
   112   144   146    1
   113   138   137    1
   114    97    95   ar
   115    94    95   ar
   116    94    93    1
   117    90    93    1
   118    90    91    1
   119   129   128    1
   120   129   130    1
   121   137   136    1
   122    91    92    2
   123    91   101   am
   124   128   125    1
   125   130   124    1
   126   136   135    1
   127   101   102    1
   128   124   125    1
   129   124   118   am
   130   122   121   ar
   131   125   126    1
   132   135   132    1
   133   131   126   am
   134   131   132    1
   135   126   127    2
   136   110   109    2
   137   102   103    1
   138   102   105    1
   139   123   121   ar
   140   121   120    1
   141   132   133    1
   142   117   118    1
   143   117   120    1
   144   117   116    1
   145   118   119    2
   146   109   116   am
   147   109   108    1
   148   107   103   am
   149   107   108    1
   150   103   104    2
   151   105   106    1
   152   108   111    1
   153   133   134    2
   154   111   112    1
   155   112   113    1
   156   113   114    1
   157   114   115    1
