@<TRIPOS>MOLECULE
tmp/3ll8B00.pdb
 201 196 0 0 0
SMALL
GASTEIGER

@<TRIPOS>ATOM
      1  N        -27.7580   -7.3120   -0.5110 N.3    87  LYS87      -0.1245
      2  CA       -27.9650   -8.7210   -0.2680 C.3    87  LYS87       0.1561
      3  C        -27.8810   -9.0900    1.2090 C.2    87  LYS87       0.2260
      4  O        -28.6890   -9.8960    1.7020 O.2    87  LYS87      -0.2867
      5  CB       -26.9790   -9.5540   -1.0400 C.3    87  LYS87       0.0271
      6  CG       -27.2950  -11.0580   -0.9550 C.3    87  LYS87       0.0035
      7  CD       -26.4070  -11.8700   -1.9140 C.3    87  LYS87       0.0206
      8  CE       -26.6390  -13.3830   -1.7560 C.3    87  LYS87       0.1093
      9  NZ       -28.0800  -13.7050   -1.4060 N.3    87  LYS87      -0.1314
     10  N        -30.2300  -11.5420    3.6500 N.3    91  VAL91      -0.1245
     11  CA       -29.6930  -12.7010    4.3520 C.3    91  VAL91       0.1561
     12  C        -30.0020  -12.5250    5.8480 C.2    91  VAL91       0.2260
     13  O        -30.4200  -13.4480    6.5240 O.2    91  VAL91      -0.2867
     14  CB       -28.1470  -12.8510    4.0610 C.3    91  VAL91       0.0252
     15  CG1      -27.4850  -13.9090    4.9400 C.3    91  VAL91       0.0019
     16  CG2      -27.9130  -13.2120    2.5940 C.3    91  VAL91       0.0019
     17  N        -23.4650  -10.7370   27.3040 N.3   181  GLN181     -0.1231
     18  CA       -22.4890  -11.8190   27.1820 C.3   181  GLN181      0.1698
     19  C        -21.3060  -11.5190   26.2720 C.2   181  GLN181      0.2592
     20  O        -20.2300  -12.0930   26.4380 O.2   181  GLN181     -0.2718
     21  CB       -23.1910  -13.0600   26.6080 C.3   181  GLN181      0.0381
     22  CG       -24.2790  -13.6390   27.5220 C.3   181  GLN181      0.0905
     23  CD       -25.0080  -14.8230   26.8920 C.2   181  GLN181      0.2608
     24  OE1      -25.4930  -15.6970   27.6000 O.2   181  GLN181     -0.2717
     25  NE2      -25.1530  -14.8150   25.5870 N.am  181  GLN181     -0.0878
     26  N        -21.5080  -10.6650   25.2700 N.am  182  PHE182     -0.1976
     27  CA       -20.4680  -10.4520   24.2550 C.3   182  PHE182      0.1639
     28  C        -20.0380   -9.0350   24.2110 C.2   182  PHE182      0.2290
     29  O        -20.8760   -8.1580   24.1490 O.2   182  PHE182     -0.2864
     30  CB       -20.9950  -10.7890   22.8730 C.3   182  PHE182      0.0560
     31  CG       -21.4800  -12.2010   22.7320 C.ar  182  PHE182     -0.0200
     32  CD1      -20.5840  -13.2310   22.4370 C.ar  182  PHE182     -0.0042
     33  CD2      -22.8380  -12.5000   22.8550 C.ar  182  PHE182     -0.0042
     34  CE1      -21.0400  -14.5690   22.2790 C.ar  182  PHE182     -0.0003
     35  CE2      -23.3090  -13.8140   22.7020 C.ar  182  PHE182     -0.0003
     36  CZ       -22.4070  -14.8550   22.4200 C.ar  182  PHE182     -0.0000
     37  N        -18.6180  -13.9160   27.8150 N.3   262  LEU262     -0.1245
     38  CA       -18.4160  -15.1710   27.0890 C.3   262  LEU262      0.1561
     39  C        -17.4130  -15.0620   25.9210 C.2   262  LEU262      0.2260
     40  O        -16.6120  -15.9590   25.7210 O.2   262  LEU262     -0.2867
     41  CB       -19.7860  -15.6140   26.5870 C.3   262  LEU262      0.0270
     42  CG       -20.1420  -16.8310   25.7660 C.3   262  LEU262      0.0019
     43  CD1      -19.6720  -18.1670   26.4010 C.3   262  LEU262      0.0001
     44  CD2      -21.6850  -16.8240   25.6260 C.3   262  LEU262      0.0001
     45  N        -16.1020  -15.5670    8.2320 N.3   275  TYR275     -0.1241
     46  CA       -16.0160  -15.5710    9.6830 C.3   275  TYR275      0.1605
     47  C        -14.8310  -16.4550   10.0920 C.2   275  TYR275      0.2264
     48  O        -14.2930  -17.2340    9.2740 O.2   275  TYR275     -0.2867
     49  CB       -17.3230  -16.1390   10.2760 C.3   275  TYR275      0.0534
     50  CG       -17.3900  -17.6410   10.0120 C.ar  275  TYR275     -0.0201
     51  CD1      -17.8730  -18.1440    8.8100 C.ar  275  TYR275     -0.0009
     52  CD2      -16.8950  -18.5530   10.9670 C.ar  275  TYR275     -0.0009
     53  CE1      -17.8750  -19.5050    8.5540 C.ar  275  TYR275      0.0417
     54  CE2      -16.8990  -19.9110   10.7290 C.ar  275  TYR275      0.0417
     55  CZ       -17.3810  -20.3770    9.5170 C.ar  275  TYR275      0.1957
     56  OH       -17.3870  -21.7240    9.2760 O.3   275  TYR275     -0.2866
     57  N        -13.6570  -18.6050   13.8870 N.3   277  MET277     -0.1245
     58  CA       -13.8470  -18.8020   15.3030 C.3   277  MET277      0.1570
     59  C        -12.5100  -19.2140   15.8630 C.2   277  MET277      0.2261
     60  O        -11.8090  -19.9890   15.2280 O.2   277  MET277     -0.2867
     61  CB       -14.9040  -19.8640   15.5520 C.3   277  MET277      0.0387
     62  CG       -16.2640  -19.3390   15.1280 C.3   277  MET277      0.0595
     63  SD       -17.6300  -20.4310   15.5230 S.3   277  MET277     -0.1393
     64  CE       -17.2900  -21.7140   14.3440 C.3   277  MET277      0.0692
     65  N        -11.4170  -21.9970   21.8980 N.3   280  LYS280     -0.1245
     66  CA       -12.4490  -21.9950   22.9030 C.3   280  LYS280      0.1561
     67  C        -11.8560  -21.5740   24.2340 C.2   280  LYS280      0.2260
     68  O        -10.7080  -21.9000   24.5380 O.2   280  LYS280     -0.2867
     69  CB       -13.0770  -23.3710   23.0190 C.3   280  LYS280      0.0271
     70  CG       -13.9780  -23.7060   21.8250 C.3   280  LYS280      0.0035
     71  CD       -14.2790  -25.1940   21.8010 C.3   280  LYS280      0.0206
     72  CE       -14.6920  -25.6420   20.3920 C.3   280  LYS280      0.1093
     73  NZ       -16.1380  -25.3200   20.1400 N.3   280  LYS280     -0.1314
     74  N        -15.7380  -22.1210   29.5300 N.3   284  THR284     -0.1203
     75  CA       -17.0850  -22.0880   28.8950 C.3   284  THR284      0.1994
     76  C        -17.2960  -23.0600   27.7220 C.2   284  THR284      0.2618
     77  O        -18.4510  -23.3560   27.3630 O.2   284  THR284     -0.2717
     78  CB       -17.4350  -20.6830   28.3190 C.3   284  THR284      0.1784
     79  OG1      -16.5340  -20.3810   27.2460 O.3   284  THR284     -0.2211
     80  CG2      -17.3420  -19.6170   29.3660 C.3   284  THR284      0.0376
     81  N        -16.2050  -23.4970   27.0880 N.am  285  GLY285     -0.1942
     82  CA       -16.2980  -24.2950   25.8530 C.3   285  GLY285      0.2014
     83  C        -16.7330  -23.5050   24.6030 C.2   285  GLY285      0.2639
     84  O        -16.9790  -24.0960   23.5450 O.2   285  GLY285     -0.2714
     85  N        -16.8190  -22.1740   24.7180 N.am  286  PHE286     -0.1960
     86  CA       -17.2450  -21.3210   23.5970 C.3   286  PHE286      0.1756
     87  C        -16.0440  -20.5390   23.0070 C.2   286  PHE286      0.2461
     88  O        -15.1410  -20.1770   23.7780 O.2   286  PHE286     -0.2730
     89  CB       -18.2970  -20.3400   24.0990 C.3   286  PHE286      0.0574
     90  CG       -19.0290  -19.6660   23.0110 C.ar  286  PHE286     -0.0200
     91  CD1      -20.0100  -20.3500   22.3000 C.ar  286  PHE286     -0.0042
     92  CD2      -18.6840  -18.3660   22.6330 C.ar  286  PHE286     -0.0042
     93  CE1      -20.6890  -19.7310   21.2420 C.ar  286  PHE286     -0.0003
     94  CE2      -19.3460  -17.7230   21.5850 C.ar  286  PHE286     -0.0003
     95  CZ       -20.3540  -18.3970   20.8840 C.ar  286  PHE286     -0.0000
     96  N        -16.0310  -20.2600   21.6610 N.am  287  PRO287     -0.2727
     97  CA       -14.8580  -19.5400   21.1000 C.3   287  PRO287      0.1402
     98  C        -14.5700  -18.2720   21.9160 C.2   287  PRO287      0.2269
     99  O        -15.4930  -17.5560   22.2100 O.2   287  PRO287     -0.2865
    100  CB       -15.2950  -19.2030   19.6780 C.3   287  PRO287      0.0296
    101  CG       -16.2620  -20.3210   19.3310 C.3   287  PRO287      0.0237
    102  CD       -17.0010  -20.6300   20.6120 C.3   287  PRO287      0.0939
    103  N        -16.4270  -15.5970    0.6920 N.3   305  LYS305     -0.1245
    104  CA       -17.8060  -15.4280    1.1130 C.3   305  LYS305      0.1561
    105  C        -17.7970  -14.3240    2.1650 C.2   305  LYS305      0.2260
    106  O        -16.7490  -14.0430    2.7940 O.2   305  LYS305     -0.2867
    107  CB       -18.3390  -16.7520    1.7310 C.3   305  LYS305      0.0271
    108  CG       -18.6070  -17.8330    0.6580 C.3   305  LYS305      0.0035
    109  CD       -19.0710  -19.1150    1.3010 C.3   305  LYS305      0.0206
    110  CE       -19.0890  -20.2800    0.3250 C.3   305  LYS305      0.1093
    111  NZ       -19.7640  -21.4240    1.0400 N.3   305  LYS305     -0.1314
    112  N        -27.6060  -13.9540   16.1240 N.3   311  TYR311     -0.1241
    113  CA       -27.5790  -14.5320   17.4530 C.3   311  TYR311      0.1605
    114  C        -28.9690  -14.5420   18.0740 C.2   311  TYR311      0.2264
    115  O        -29.6780  -13.5490   18.0570 O.2   311  TYR311     -0.2867
    116  CB       -26.6210  -13.7850   18.3770 C.3   311  TYR311      0.0534
    117  CG       -26.5040  -14.4510   19.7160 C.ar  311  TYR311     -0.0201
    118  CD1      -25.8800  -15.6760   19.8330 C.ar  311  TYR311     -0.0009
    119  CD2      -27.0370  -13.8720   20.8620 C.ar  311  TYR311     -0.0009
    120  CE1      -25.7650  -16.3070   21.0420 C.ar  311  TYR311      0.0417
    121  CE2      -26.9340  -14.5120   22.1010 C.ar  311  TYR311      0.0417
    122  CZ       -26.2960  -15.7310   22.1630 C.ar  311  TYR311      0.1957
    123  OH       -26.1380  -16.4020   23.3420 O.3   311  TYR311     -0.2866
    124  N        -29.5470  -19.0980   22.8580 N.3   314  ASN314     -0.1225
    125  CA       -28.8020  -20.3580   22.7900 C.3   314  ASN314      0.1785
    126  C        -28.2560  -20.8460   21.4430 C.2   314  ASN314      0.2597
    127  O        -27.8280  -22.0030   21.3380 O.2   314  ASN314     -0.2718
    128  CB       -29.5360  -21.4760   23.5020 C.3   314  ASN314      0.1169
    129  CG       -29.1880  -21.5250   24.9700 C.2   314  ASN314      0.2627
    130  OD1      -30.0630  -21.3540   25.8070 O.2   314  ASN314     -0.2716
    131  ND2      -27.8820  -21.7270   25.2910 N.am  314  ASN314     -0.0877
    132  N        -28.2540  -19.9690   20.4350 N.am  315  VAL315     -0.1966
    133  CA       -27.7410  -20.3460   19.1190 C.3   315  VAL315      0.1727
    134  C        -27.1060  -19.1950   18.3590 C.2   315  VAL315      0.2616
    135  O        -27.6730  -18.1130   18.2050 O.2   315  VAL315     -0.2715
    136  CB       -28.8250  -20.9360   18.1950 C.3   315  VAL315      0.0290
    137  CG1      -28.1510  -21.7050   17.0760 C.3   315  VAL315      0.0023
    138  CG2      -29.7200  -21.8800   18.9420 C.3   315  VAL315      0.0023
    139  N        -25.9260  -19.4750   17.8420 N.am  316  MET316     -0.1963
    140  CA       -25.2420  -18.5570   16.9810 C.3   316  MET316      0.1736
    141  C        -25.3340  -19.0850   15.5430 C.2   316  MET316      0.2616
    142  O        -24.6350  -20.0340   15.1730 O.2   316  MET316     -0.2715
    143  CB       -23.8310  -18.4890   17.4870 C.3   316  MET316      0.0427
    144  CG       -22.8340  -18.1240   16.4580 C.3   316  MET316      0.0599
    145  SD       -22.0450  -16.8180   17.3300 S.3   316  MET316     -0.1393
    146  CE       -23.3770  -15.6100   17.0810 C.3   316  MET316      0.0692
    147  N        -26.2260  -18.5230   14.7420 N.am  317  ASN317     -0.1958
    148  CA       -26.3210  -18.9640   13.3450 C.3   317  ASN317      0.1819
    149  C        -25.4200  -18.0760   12.4930 C.2   317  ASN317      0.2621
    150  O        -25.6310  -16.8600   12.3820 O.2   317  ASN317     -0.2715
    151  CB       -27.7690  -18.9320   12.8270 C.3   317  ASN317      0.1195
    152  CG       -28.0690  -20.0830   11.7860 C.2   317  ASN317      0.2630
    153  OD1      -29.0060  -20.9490   11.9470 O.2   317  ASN317     -0.2716
    154  ND2      -27.2870  -20.0720   10.6880 N.am  317  ASN317     -0.0877
    155  N        -24.3960  -18.6470   11.9120 N.am  318  ILE318     -0.1963
    156  CA       -23.5590  -17.8490   11.0250 C.3   318  ILE318      0.1727
    157  C        -24.1270  -18.0450    9.6130 C.2   318  ILE318      0.2616
    158  O        -24.2740  -19.2010    9.1790 O.2   318  ILE318     -0.2715
    159  CB       -22.1150  -18.3240   11.1540 C.3   318  ILE318      0.0290
    160  CG1      -21.6560  -18.0770   12.6200 C.3   318  ILE318      0.0022
    161  CG2      -21.2260  -17.6910   10.0290 C.3   318  ILE318      0.0023
    162  CD1      -20.2810  -18.6470   12.9350 C.3   318  ILE318      0.0001
    163  N        -24.4840  -16.9610    8.9180 N.am  319  ARG319     -0.1963
    164  CA       -25.0670  -17.1080    7.5760 C.3   319  ARG319      0.1729
    165  C        -24.1410  -16.5180    6.5350 C.2   319  ARG319      0.2616
    166  O        -23.8180  -15.3190    6.5760 O.2   319  ARG319     -0.2715
    167  CB       -26.4460  -16.4530    7.5040 C.3   319  ARG319      0.0348
    168  CG       -27.3870  -16.9440    8.6090 C.3   319  ARG319      0.0492
    169  CD       -28.1350  -18.2380    8.2000 C.3   319  ARG319      0.2205
    170  NE       -29.2190  -18.5860    9.1510 N.pl3 319  ARG319     -0.0865
    171  CZ       -30.4630  -18.0800    9.1370 C.cat 319  ARG319      0.5346
    172  NH1      -30.8330  -17.1770    8.2170 N.pl3 319  ARG319      0.1354
    173  NH2      -31.3540  -18.4840   10.0480 N.pl3 319  ARG319      0.1354
    174  N        -23.6800  -17.3780    5.6410 N.am  320  GLN320     -0.1963
    175  CA       -22.7540  -16.9710    4.5950 C.3   320  GLN320      0.1733
    176  C        -23.5120  -16.5610    3.3240 C.2   320  GLN320      0.2616
    177  O        -24.6170  -17.0280    3.0670 O.2   320  GLN320     -0.2715
    178  CB       -21.7900  -18.0970    4.2410 C.3   320  GLN320      0.0408
    179  CG       -20.8550  -18.5110    5.4100 C.3   320  GLN320      0.0908
    180  CD       -20.1560  -19.8210    5.0780 C.2   320  GLN320      0.2608
    181  OE1      -20.8270  -20.8360    4.9160 O.2   320  GLN320     -0.2717
    182  NE2      -18.8210  -19.7980    4.9280 N.am  320  GLN320     -0.0878
    183  N        -22.8970  -15.6770    2.5390 N.am  321  PHE321     -0.1960
    184  CA       -23.4450  -15.2870    1.2440 C.3   321  PHE321      0.1771
    185  C        -22.3050  -14.8880    0.3270 C.2   321  PHE321      0.2619
    186  O        -21.2000  -14.6190    0.7860 O.2   321  PHE321     -0.2715
    187  CB       -24.5130  -14.1840    1.3630 C.3   321  PHE321      0.0574
    188  CG       -24.0330  -12.8560    1.9680 C.ar  321  PHE321     -0.0200
    189  CD1      -23.9300  -12.7060    3.3580 C.ar  321  PHE321     -0.0042
    190  CD2      -23.8150  -11.7370    1.1450 C.ar  321  PHE321     -0.0042
    191  CE1      -23.5370  -11.4890    3.9350 C.ar  321  PHE321     -0.0003
    192  CE2      -23.4090  -10.5200    1.7080 C.ar  321  PHE321     -0.0003
    193  CZ       -23.2760  -10.3910    3.0950 C.ar  321  PHE321     -0.0000
    194  N        -22.5940  -14.8890   -0.9700 N.am  322  ASN322     -0.1972
    195  CA       -21.6680  -14.5340   -2.0250 C.3   322  ASN322      0.1688
    196  C        -21.9150  -13.1440   -2.5740 C.2   322  ASN322      0.2292
    197  O        -22.9230  -12.5200   -2.2610 O.2   322  ASN322     -0.2864
    198  CB       -21.8940  -15.5000   -3.1730 C.3   322  ASN322      0.1181
    199  CG       -21.5200  -16.8820   -2.8170 C.2   322  ASN322      0.2629
    200  OD1      -20.3750  -17.1600   -2.4560 O.2   322  ASN322     -0.2716
    201  ND2      -22.4760  -17.7800   -2.9360 N.am  322  ASN322     -0.0877
@<TRIPOS>BOND
     1   198   199    1
     2   198   195    1
     3   201   199   am
     4   199   200    2
     5   196   197    2
     6   196   195    1
     7   195   194    1
     8     7     8    1
     9     7     6    1
    10     8     9    1
    11     5     6    1
    12     5     2    1
    13   194   185   am
    14     1     2    1
    15     2     3    1
    16   110   111    1
    17   110   109    1
    18   185   186    2
    19   185   184    1
    20   108   109    1
    21   108   107    1
    22   103   104    1
    23   104   107    1
    24   104   105    1
    25   190   192   ar
    26   190   188   ar
    27     3     4    2
    28   184   187    1
    29   184   183    1
    30   187   188    1
    31   192   193   ar
    32   188   189   ar
    33   105   106    2
    34   183   176   am
    35    16    14    1
    36   177   176    2
    37   193   191   ar
    38   176   175    1
    39   189   191   ar
    40    10    11    1
    41    14    11    1
    42    14    15    1
    43   178   175    1
    44   178   179    1
    45    11    12    1
    46   175   174    1
    47   181   180    2
    48   182   180   am
    49   180   179    1
    50   174   165   am
    51    12    13    2
    52   165   166    2
    53   165   164    1
    54   167   164    1
    55   167   168    1
    56   164   163    1
    57   169   168    1
    58   169   170    1
    59   172   171    1
    60    45    46    1
    61    53    51   ar
    62    53    55   ar
    63    51    50   ar
    64   163   157   am
    65   171   170    2
    66   171   173    1
    67   158   157    2
    68    48    47    2
    69    56    55    1
    70    55    54   ar
    71   157   156    1
    72    46    47    1
    73    46    49    1
    74    50    49    1
    75    50    52   ar
    76   161   159    1
    77   154   152   am
    78    54    52   ar
    79   156   159    1
    80   156   155    1
    81   159   160    1
    82   152   153    2
    83   152   151    1
    84   155   149   am
    85   150   149    2
    86   149   148    1
    87   160   162    1
    88   151   148    1
    89   148   147    1
    90    57    58    1
    91    64    63    1
    92   147   141   am
    93    62    63    1
    94    62    61    1
    95   142   141    2
    96    60    59    2
    97    58    61    1
    98    58    59    1
    99   141   140    1
   100   112   113    1
   101   144   145    1
   102   144   143    1
   103   140   143    1
   104   140   139    1
   105   137   136    1
   106   146   145    1
   107   113   114    1
   108   113   116    1
   109   139   134   am
   110   115   114    2
   111   136   138    1
   112   136   133    1
   113   135   134    2
   114   134   133    1
   115   116   117    1
   116   133   132    1
   117   101   100    1
   118   101   102    1
   119   100    97    1
   120   117   118   ar
   121   117   119   ar
   122   118   120   ar
   123    73    72    1
   124    72    71    1
   125   132   126   am
   126   102    96    1
   127   119   121   ar
   128    95    93   ar
   129    95    94   ar
   130   120   122   ar
   131    97    96    1
   132    97    98    1
   133    93    91   ar
   134   127   126    2
   135   126   125    1
   136    94    92   ar
   137    96    87   am
   138    71    70    1
   139    70    69    1
   140    65    66    1
   141    98    99    2
   142   121   122   ar
   143   122   123    1
   144    34    36   ar
   145    34    32   ar
   146    91    90   ar
   147    36    35   ar
   148    32    31   ar
   149    92    90   ar
   150    35    33   ar
   151    31    33   ar
   152    31    30    1
   153   125   124    1
   154   125   128    1
   155    30    27    1
   156    66    69    1
   157    66    67    1
   158    87    86    1
   159    87    88    2
   160    90    89    1
   161   128   129    1
   162    84    83    2
   163    86    89    1
   164    86    85    1
   165    29    28    2
   166    28    27    1
   167    67    68    2
   168    27    26    1
   169    83    85   am
   170    83    82    1
   171   129   131   am
   172   129   130    2
   173    26    19   am
   174    25    23   am
   175    44    42    1
   176    40    39    2
   177    42    43    1
   178    42    41    1
   179    82    81    1
   180    39    38    1
   181    19    20    2
   182    19    18    1
   183    41    38    1
   184    21    18    1
   185    21    22    1
   186    23    22    1
   187    23    24    2
   188    81    76   am
   189    38    37    1
   190    18    17    1
   191    79    78    1
   192    77    76    2
   193    76    75    1
   194    78    75    1
   195    78    80    1
   196    75    74    1
