@<TRIPOS>MOLECULE
tmp/3ll9B00.pdb
 160 154 0 0 0
SMALL
GASTEIGER

@<TRIPOS>ATOM
      1  N         20.6720  -24.0160   -0.9990 N.3     5  LYS5       -0.1245
      2  CA        20.6280  -24.2840    0.4210 C.3     5  LYS5        0.1561
      3  C         22.0530  -24.4840    0.9390 C.2     5  LYS5        0.2260
      4  O         22.8560  -25.1610    0.2910 O.2     5  LYS5       -0.2867
      5  CB        19.8070  -25.5490    0.7010 C.3     5  LYS5        0.0271
      6  CG        19.8770  -26.0170    2.1650 C.3     5  LYS5        0.0035
      7  CD        18.9760  -27.2360    2.3710 C.3     5  LYS5        0.0206
      8  CE        19.1650  -27.7560    3.8240 C.3     5  LYS5        0.1093
      9  NZ        19.3120  -26.5340    4.6530 N.3     5  LYS5       -0.1314
     10  N         23.7350  -26.2380    4.0730 N.3     7  GLY7       -0.1210
     11  CA        23.4670  -27.1860    5.1550 C.3     7  GLY7        0.1956
     12  C         23.9750  -26.6090    6.4640 C.2     7  GLY7        0.2612
     13  O         24.9870  -25.9390    6.4390 O.2     7  GLY7       -0.2717
     14  N         23.2840  -26.8770    7.5740 N.am    8  GLY8       -0.1942
     15  CA        23.5590  -26.2170    8.8270 C.3     8  GLY8        0.2014
     16  C         24.8510  -26.7990    9.3700 C.2     8  GLY8        0.2639
     17  O         25.4810  -26.1840   10.2210 O.2     8  GLY8       -0.2714
     18  N         25.2440  -27.9680    8.8420 N.am    9  SER9       -0.1949
     19  CA        26.4530  -28.6700    9.2670 C.3     9  SER9        0.1924
     20  C         27.6840  -28.0210    8.6550 C.2     9  SER9        0.2314
     21  O         28.7030  -27.8890    9.3460 O.2     9  SER9       -0.2863
     22  CB        26.4160  -30.1820    8.9320 C.3     9  SER9        0.2116
     23  OG        26.4760  -30.4520    7.5250 O.3     9  SER9       -0.2180
     24  N         19.0620  -27.7890   16.0120 N.3    51  HIS51      -0.1241
     25  CA        18.8710  -29.1480   16.5470 C.3    51  HIS51       0.1621
     26  C         18.9140  -29.2610   18.0970 C.2    51  HIS51       0.2264
     27  O         18.0130  -29.8280   18.7130 O.2    51  HIS51      -0.2867
     28  CB        19.9100  -30.1310   15.9430 C.3    51  HIS51       0.0745
     29  CG        19.6850  -30.4430   14.4930 C.ar   51  HIS51       0.0817
     30  ND1       20.2070  -29.6730   13.4720 N.ar   51  HIS51      -0.2268
     31  CD2       18.9860  -31.4390   13.8910 C.ar   51  HIS51       0.1154
     32  CE1       19.8500  -30.1920   12.3070 C.ar   51  HIS51       0.1986
     33  NE2       19.1010  -31.2560   12.5360 N.ar   51  HIS51      -0.2212
     34  N         15.2000  -28.1090    4.2680 N.3   155  ASP155     -0.1239
     35  CA        14.8070  -28.9710    3.1570 C.3   155  ASP155      0.1674
     36  C         13.3470  -28.8550    2.7370 C.2   155  ASP155      0.2266
     37  O         13.0750  -29.0200    1.5990 O.2   155  ASP155     -0.2867
     38  CB        15.0520  -30.4370    3.6080 C.3   155  ASP155      0.1410
     39  CG        16.5650  -30.7590    3.7500 C.2   155  ASP155      0.3668
     40  OD1       17.3740  -30.1930    2.9720 O.co2 155  ASP155     -0.2456
     41  OD2       16.9410  -31.5720    4.6160 O.co2 155  ASP155     -0.2456
     42  N         23.9150  -27.4870   -0.9150 N.3   172  GLY172     -0.1210
     43  CA        25.2970  -27.5790   -0.4860 C.3   172  GLY172      0.1956
     44  C         25.3930  -28.2700    0.8540 C.2   172  GLY172      0.2613
     45  O         24.9820  -27.7210    1.8670 O.2   172  GLY172     -0.2717
     46  N         25.9300  -29.4830    0.8620 N.am  173  THR173     -0.1938
     47  CA        25.9960  -30.2900    2.0840 C.3   173  THR173      0.2028
     48  C         27.4520  -30.5750    2.4750 C.2   173  THR173      0.2642
     49  O         28.3680  -30.0450    1.8580 O.2   173  THR173     -0.2714
     50  CB        25.1280  -31.5680    1.9570 C.3   173  THR173      0.1808
     51  OG1       25.0940  -32.2450    3.2110 O.3   173  THR173     -0.2208
     52  CG2       25.5820  -32.4890    0.8450 C.3   173  THR173      0.0379
     53  N         27.6740  -31.3430    3.5400 N.am  174  ASP174     -0.1957
     54  CA        29.0400  -31.5870    4.0060 C.3   174  ASP174      0.1840
     55  C         29.6270  -32.9340    3.4780 C.2   174  ASP174      0.2621
     56  O         30.7520  -33.2870    3.8320 O.2   174  ASP174     -0.2715
     57  CB        29.1130  -31.5580    5.5330 C.3   174  ASP174      0.1450
     58  CG        28.4100  -32.7510    6.1520 C.2   174  ASP174      0.3671
     59  OD1       27.8420  -33.5590    5.3800 O.co2 174  ASP174     -0.2456
     60  OD2       28.3850  -32.8850    7.3850 O.co2 174  ASP174     -0.2456
     61  N         28.8710  -33.6900    2.6770 N.am  175  VAL175     -0.1977
     62  CA        29.4110  -34.8740    1.9900 C.3   175  VAL175      0.1596
     63  C         29.3640  -34.6170    0.5000 C.2   175  VAL175      0.2287
     64  O         28.8350  -33.5930    0.0650 O.2   175  VAL175     -0.2864
     65  CB        28.6540  -36.1450    2.3340 C.3   175  VAL175      0.0276
     66  CG1       28.8680  -36.4810    3.8090 C.3   175  VAL175      0.0022
     67  CG2       27.1740  -36.0250    1.9940 C.3   175  VAL175      0.0022
     68  N         27.8070  -36.0500   -1.9850 N.3   177  GLY177     -0.1210
     69  CA        26.6440  -36.4390   -2.7440 C.3   177  GLY177      0.1956
     70  C         25.8300  -37.4090   -1.9280 C.2   177  GLY177      0.2612
     71  O         26.0870  -37.6740   -0.7500 O.2   177  GLY177     -0.2717
     72  N         24.7910  -37.9310   -2.5370 N.am  178  VAL178     -0.1965
     73  CA        24.1010  -39.0110   -1.8830 C.3   178  VAL178      0.1727
     74  C         24.8620  -40.3180   -2.1980 C.2   178  VAL178      0.2616
     75  O         25.2670  -40.5260   -3.3520 O.2   178  VAL178     -0.2715
     76  CB        22.6820  -39.1090   -2.4090 C.3   178  VAL178      0.0290
     77  CG1       21.9240  -40.1700   -1.6560 C.3   178  VAL178      0.0023
     78  CG2       21.9700  -37.7100   -2.3270 C.3   178  VAL178      0.0023
     79  N         25.0300  -41.1820   -1.1870 N.am  179  TYR179     -0.1960
     80  CA        25.5890  -42.5120   -1.4010 C.3   179  TYR179      0.1771
     81  C         24.6190  -43.6460   -1.1390 C.2   179  TYR179      0.2620
     82  O         23.6110  -43.4730   -0.4640 O.2   179  TYR179     -0.2715
     83  CB        26.7300  -42.7720   -0.4620 C.3   179  TYR179      0.0574
     84  CG        27.8890  -41.8680   -0.5770 C.ar  179  TYR179     -0.0198
     85  CD1       29.1350  -42.3470   -1.0050 C.ar  179  TYR179     -0.0009
     86  CD2       27.7870  -40.5600   -0.1730 C.ar  179  TYR179     -0.0009
     87  CE1       30.2350  -41.5160   -1.0580 C.ar  179  TYR179      0.0417
     88  CE2       28.8790  -39.7240   -0.1880 C.ar  179  TYR179      0.0417
     89  CZ        30.1030  -40.1890   -0.6370 C.ar  179  TYR179      0.1957
     90  OH        31.1710  -39.3110   -0.6400 O.3   179  TYR179     -0.2866
     91  N         24.9890  -44.8470   -1.5930 N.am  180  THR180     -0.1937
     92  CA        24.1360  -46.0160   -1.4170 C.3   180  THR180      0.2028
     93  C         23.8920  -46.2680    0.0640 C.2   180  THR180      0.2642
     94  O         22.9550  -46.9850    0.4470 O.2   180  THR180     -0.2714
     95  CB        24.7680  -47.2730   -2.1010 C.3   180  THR180      0.1808
     96  OG1       26.0360  -47.5630   -1.5030 O.3   180  THR180     -0.2208
     97  CG2       24.9950  -47.0030   -3.5580 C.3   180  THR180      0.0379
     98  N         24.7160  -45.6520    0.9040 N.am  181  ARG181     -0.1963
     99  CA        24.7010  -45.9490    2.3230 C.3   181  ARG181      0.1729
    100  C         25.4180  -44.8460    3.0610 C.2   181  ARG181      0.2616
    101  O         26.1520  -44.0610    2.4540 O.2   181  ARG181     -0.2715
    102  CB        25.4480  -47.2680    2.5880 C.3   181  ARG181      0.0348
    103  CG        24.7220  -48.4970    2.0480 C.3   181  ARG181      0.0492
    104  CD        25.6190  -49.7230    1.8590 C.3   181  ARG181      0.2205
    105  NE        25.3110  -50.7270    2.8790 N.pl3 181  ARG181     -0.0865
    106  CZ        26.0800  -50.9560    3.9320 C.cat 181  ARG181      0.5346
    107  NH1       27.2020  -50.2870    4.0670 N.pl3 181  ARG181      0.1354
    108  NH2       25.7530  -51.8530    4.8370 N.pl3 181  ARG181      0.1354
    109  N         25.2410  -44.7800    4.3760 N.am  182  ASN182     -0.1959
    110  CA        25.8590  -43.6860    5.1050 C.3   182  ASN182      0.1804
    111  C         27.3640  -43.9240    4.9810 C.2   182  ASN182      0.2463
    112  O         27.8880  -44.8790    5.5620 O.2   182  ASN182     -0.2730
    113  CB        25.3800  -43.6650    6.5610 C.3   182  ASN182      0.1195
    114  CG        25.9680  -42.5130    7.3590 C.2   182  ASN182      0.2630
    115  OD1       26.8730  -41.8020    6.8970 O.2   182  ASN182     -0.2716
    116  ND2       25.4330  -42.2970    8.5550 N.am  182  ASN182     -0.0877
    117  N         28.0570  -43.0840    4.1940 N.am  183  PRO183     -0.2716
    118  CA        29.4600  -43.3520    3.8700 C.3   183  PRO183      0.1536
    119  C         30.3710  -43.0780    5.0490 C.2   183  PRO183      0.2598
    120  O         31.5770  -42.9920    4.8480 O.2   183  PRO183     -0.2715
    121  CB        29.7500  -42.3530    2.7470 C.3   183  PRO183      0.0310
    122  CG        28.8770  -41.1440    3.1150 C.3   183  PRO183      0.0237
    123  CD        27.5940  -41.8080    3.6010 C.3   183  PRO183      0.0939
    124  N         29.7880  -42.9190    6.2380 N.am  184  LYS184     -0.1978
    125  CA        30.5340  -42.6320    7.4630 C.3   184  LYS184      0.1596
    126  C         30.3530  -43.7780    8.4360 C.2   184  LYS184      0.2287
    127  O         30.8890  -43.7550    9.5470 O.2   184  LYS184     -0.2864
    128  CB        30.0560  -41.3250    8.1290 C.3   184  LYS184      0.0298
    129  CG        30.5100  -40.0690    7.4290 C.3   184  LYS184      0.0038
    130  CD        30.0020  -38.8090    8.1110 C.3   184  LYS184      0.0206
    131  CE        30.2130  -37.6060    7.2060 C.3   184  LYS184      0.1093
    132  NZ        30.2290  -36.3150    7.9350 N.3   184  LYS184     -0.1314
    133  N         18.0370  -35.9220    8.7310 N.3   200  GLY200     -0.1225
    134  CA        19.2980  -36.3700    8.1580 C.3   200  GLY200      0.1811
    135  C         19.2700  -36.4690    6.6340 C.2   200  GLY200      0.2280
    136  O         18.4390  -35.8330    5.9560 O.2   200  GLY200     -0.2866
    137  N         18.4410  -38.9300    4.7220 N.3   201  VAL201     -0.1245
    138  CA        17.2550  -39.6020    4.1810 C.3   201  VAL201      0.1561
    139  C         16.1140  -38.6130    4.1530 C.2   201  VAL201      0.2260
    140  O         15.4840  -38.3560    3.1070 O.2   201  VAL201     -0.2867
    141  CB        16.7790  -40.7740    5.0400 C.3   201  VAL201      0.0252
    142  CG1       15.3530  -41.2120    4.5920 C.3   201  VAL201      0.0019
    143  CG2       17.7780  -41.9380    4.9890 C.3   201  VAL201      0.0019
    144  N         16.2950  -35.5400    3.8020 N.3   203  LYS203     -0.1231
    145  CA        16.5370  -34.6230    2.7220 C.3   203  LYS203      0.1693
    146  C         16.0370  -35.1760    1.3870 C.2   203  LYS203      0.2591
    147  O         15.4160  -34.4350    0.6140 O.2   203  LYS203     -0.2718
    148  CB        18.0310  -34.2810    2.6550 C.3   203  LYS203      0.0285
    149  CG        18.3900  -33.1900    1.6650 C.3   203  LYS203      0.0035
    150  CD        19.8990  -33.1590    1.3500 C.3   203  LYS203      0.0206
    151  CE        20.6480  -32.0630    2.1230 C.3   203  LYS203      0.1093
    152  NZ        20.4360  -32.0780    3.6050 N.3   203  LYS203     -0.1314
    153  N         16.3080  -36.4520    1.1210 N.am  204  ILE204     -0.1980
    154  CA        16.0290  -37.0490   -0.1710 C.3   204  ILE204      0.1595
    155  C         14.5650  -37.2390   -0.3070 C.2   204  ILE204      0.2287
    156  O         14.0580  -37.1820   -1.4220 O.2   204  ILE204     -0.2864
    157  CB        16.7240  -38.4080   -0.3690 C.3   204  ILE204      0.0276
    158  CG1       18.2120  -38.2010   -0.6070 C.3   204  ILE204      0.0022
    159  CG2       16.2050  -39.1290   -1.5730 C.3   204  ILE204      0.0022
    160  CD1       19.0700  -39.0320    0.2950 C.3   204  ILE204      0.0001
@<TRIPOS>BOND
     1    97    95    1
     2    75    74    2
     3    69    68    1
     4    69    70    1
     5    72    70   am
     6    72    73    1
     7    76    78    1
     8    76    73    1
     9    76    77    1
    10    74    73    1
    11    74    79   am
    12    95    96    1
    13    95    92    1
    14    70    71    2
    15    91    92    1
    16    91    81   am
    17   159   157    1
    18   156   155    2
    19    92    93    1
    20    80    79    1
    21    80    81    1
    22    80    83    1
    23    81    82    2
    24    87    85   ar
    25    87    89   ar
    26    85    84   ar
    27     1     2    1
    28    42    43    1
    29    90    89    1
    30    89    88   ar
    31   158   157    1
    32   158   160    1
    33    84    83    1
    34    84    86   ar
    35    43    44    1
    36   157   154    1
    37   155   154    1
    38    88    86   ar
    39   154   153    1
    40    93    94    2
    41    93    98   am
    42    64    63    2
    43     4     3    2
    44     2     5    1
    45     2     3    1
    46    63    62    1
    47   147   146    2
    48     5     6    1
    49    52    50    1
    50    44    46   am
    51    44    45    2
    52    46    47    1
    53    98    99    1
    54   153   146   am
    55   150   149    1
    56   150   151    1
    57   146   145    1
    58    37    36    2
    59   149   148    1
    60    49    48    2
    61   104   103    1
    62   104   105    1
    63    50    47    1
    64    50    51    1
    65    62    65    1
    66    62    61    1
    67    67    65    1
    68   103   102    1
    69    47    48    1
    70   151   152    1
    71     6     7    1
    72    99   102    1
    73    99   100    1
    74    65    66    1
    75     7     8    1
    76   101   100    2
    77    48    53   am
    78   148   145    1
    79    61    55   am
    80   145   144    1
    81    36    35    1
    82   121   122    1
    83   121   118    1
    84   105   106    2
    85    40    39   ar
    86   100   109   am
    87   140   139    2
    88   122   123    1
    89    35    38    1
    90    35    34    1
    91    55    56    2
    92    55    54    1
    93    53    54    1
    94   123   117    1
    95    38    39    1
    96    39    41   ar
    97     8     9    1
    98   118   117    1
    99   118   119    1
   100   106   107    1
   101   106   108    1
   102    54    57    1
   103    10    11    1
   104   139   138    1
   105   138   137    1
   106   138   141    1
   107   117   111   am
   108   109   110    1
   109   142   141    1
   110   120   119    2
   111   111   110    1
   112   111   112    2
   113   143   141    1
   114   119   124   am
   115   110   113    1
   116    11    12    1
   117    59    58   ar
   118    57    58    1
   119   136   135    2
   120    58    60   ar
   121   124   125    1
   122    13    12    2
   123    12    14   am
   124   113   114    1
   125   135   134    1
   126   115   114    2
   127   131   132    1
   128   131   130    1
   129   114   116   am
   130   129   130    1
   131   129   128    1
   132   125   128    1
   133   125   126    1
   134    23    22    1
   135    14    15    1
   136   134   133    1
   137   126   127    2
   138    20    19    1
   139    20    21    2
   140    15    16    1
   141    18    19    1
   142    18    16   am
   143    22    19    1
   144    16    17    2
   145    32    33   ar
   146    32    30   ar
   147    33    31   ar
   148    30    29   ar
   149    31    29   ar
   150    29    28    1
   151    28    25    1
   152    24    25    1
   153    25    26    1
   154    26    27    2
