@<TRIPOS>MOLECULE
tmp/3llaB00.pdb
 167 161 0 0 0
SMALL
GASTEIGER

@<TRIPOS>ATOM
      1  N        -24.5050  -13.1210  -13.8610 N.3    35  PHE35      -0.1227
      2  CA       -23.9730  -11.7680  -13.9910 C.3    35  PHE35       0.1736
      3  C        -22.4960  -11.6890  -13.5950 C.2    35  PHE35       0.2595
      4  O        -21.8340  -10.6840  -13.8700 O.2    35  PHE35      -0.2718
      5  CB       -24.7950  -10.7630  -13.1720 C.3    35  PHE35       0.0547
      6  CG       -24.6440  -10.9180  -11.6740 C.ar   35  PHE35      -0.0202
      7  CD1      -23.5740  -10.3330  -10.9990 C.ar   35  PHE35      -0.0042
      8  CD2      -25.5870  -11.6330  -10.9370 C.ar   35  PHE35      -0.0042
      9  CE1      -23.4370  -10.4730   -9.6170 C.ar   35  PHE35      -0.0003
     10  CE2      -25.4620  -11.7750   -9.5510 C.ar   35  PHE35      -0.0003
     11  CZ       -24.3820  -11.2000   -8.8930 C.ar   35  PHE35      -0.0000
     12  N        -21.9990  -12.7340  -12.9350 N.am   36  ALA36      -0.1966
     13  CA       -20.6000  -12.8170  -12.5180 C.3    36  ALA36       0.1728
     14  C        -20.1950  -14.2680  -12.2820 C.2    36  ALA36       0.2616
     15  O        -21.0510  -15.1550  -12.2420 O.2    36  ALA36      -0.2715
     16  CB       -20.3570  -11.9800  -11.2660 C.3    36  ALA36       0.0334
     17  N        -18.8900  -14.5050  -12.1520 N.am   37  GLU37      -0.1963
     18  CA       -18.3610  -15.8220  -11.8120 C.3    37  GLU37       0.1733
     19  C        -16.9680  -15.7480  -11.1930 C.2    37  GLU37       0.2617
     20  O        -16.3210  -14.7000  -11.2040 O.2    37  GLU37      -0.2715
     21  CB       -18.3540  -16.7520  -13.0300 C.3    37  GLU37       0.0429
     22  CG       -17.2230  -16.5160  -14.0220 C.3    37  GLU37       0.1163
     23  CD       -17.4480  -17.2330  -15.3470 C.2    37  GLU37       0.3649
     24  OE1      -18.5800  -17.7090  -15.5930 O.co2  37  GLU37      -0.2457
     25  OE2      -16.4910  -17.3170  -16.1470 O.co2  37  GLU37      -0.2457
     26  N        -16.5250  -16.8740  -10.6460 N.am   38  GLY38      -0.1940
     27  CA       -15.1720  -17.0190  -10.1290 C.3    38  GLY38       0.2014
     28  C        -14.6380  -18.3670  -10.5600 C.2    38  GLY38       0.2639
     29  O        -15.1520  -18.9730  -11.5070 O.2    38  GLY38      -0.2714
     30  N        -13.6200  -18.8490   -9.8590 N.am   39  ALA39      -0.1963
     31  CA       -12.9830  -20.1210  -10.1960 C.3    39  ALA39       0.1728
     32  C        -13.9240  -21.3150  -10.0490 C.2    39  ALA39       0.2616
     33  O        -13.7600  -22.3270  -10.7450 O.2    39  ALA39      -0.2715
     34  CB       -11.7320  -20.3250   -9.3450 C.3    39  ALA39       0.0334
     35  N        -14.9140  -21.1980   -9.1590 N.am   40  LEU40      -0.1963
     36  CA       -15.7370  -22.3580   -8.7900 C.3    40  LEU40       0.1728
     37  C        -17.2400  -22.2300   -9.0520 C.2    40  LEU40       0.2616
     38  O        -17.9170  -23.2360   -9.2700 O.2    40  LEU40      -0.2715
     39  CB       -15.4760  -22.7510   -7.3230 C.3    40  LEU40       0.0311
     40  CG       -14.0690  -23.2950   -7.0240 C.3    40  LEU40       0.0022
     41  CD1      -13.7150  -23.1930   -5.5390 C.3    40  LEU40       0.0001
     42  CD2      -13.9180  -24.7340   -7.5440 C.3    40  LEU40       0.0001
     43  N        -17.7500  -21.0000   -9.0410 N.am   41  ARG41      -0.1963
     44  CA       -19.1890  -20.7610   -9.0450 C.3    41  ARG41       0.1729
     45  C        -19.6330  -19.6180   -9.9570 C.2    41  ARG41       0.2616
     46  O        -18.8700  -18.6940  -10.2330 O.2    41  ARG41      -0.2715
     47  CB       -19.6810  -20.4830   -7.6170 C.3    41  ARG41       0.0348
     48  CG       -19.5360  -21.6690   -6.6600 C.3    41  ARG41       0.0492
     49  CD       -20.2030  -21.4140   -5.3320 C.3    41  ARG41       0.2205
     50  NE       -19.5890  -20.2970   -4.6290 N.pl3  41  ARG41      -0.0865
     51  CZ       -19.9970  -19.8360   -3.4500 C.cat  41  ARG41       0.5346
     52  NH1      -21.0230  -20.4030   -2.8280 N.pl3  41  ARG41       0.1354
     53  NH2      -19.3750  -18.8060   -2.8930 N.pl3  41  ARG41       0.1354
     54  N        -20.8840  -19.6970  -10.4110 N.am   42  GLU42      -0.1963
     55  CA       -21.5110  -18.6240  -11.1720 C.3    42  GLU42       0.1733
     56  C        -22.5710  -17.9710  -10.2970 C.2    42  GLU42       0.2616
     57  O        -23.2990  -18.6650   -9.5970 O.2    42  GLU42      -0.2715
     58  CB       -22.1250  -19.1790  -12.4720 C.3    42  GLU42       0.0429
     59  CG       -21.1210  -19.9800  -13.3340 C.3    42  GLU42       0.1163
     60  CD       -21.6990  -20.5240  -14.6410 C.2    42  GLU42       0.3649
     61  OE1      -22.6090  -19.8890  -15.2210 O.co2  42  GLU42      -0.2457
     62  OE2      -21.2260  -21.5880  -15.0970 O.co2  42  GLU42      -0.2457
     63  N        -22.6400  -16.6460  -10.3170 N.am   43  ALA43      -0.1977
     64  CA       -23.6280  -15.9200   -9.5280 C.3    43  ALA43       0.1597
     65  C        -24.7700  -15.3690  -10.3880 C.2    43  ALA43       0.2287
     66  O        -24.5290  -14.6640  -11.3660 O.2    43  ALA43      -0.2864
     67  CB       -22.9690  -14.7960   -8.7590 C.3    43  ALA43       0.0319
     68  N        -28.8510  -13.0130   -4.4960 N.3    89  VAL89      -0.1245
     69  CA       -27.9480  -13.7400   -5.3780 C.3    89  VAL89       0.1561
     70  C        -28.0510  -15.2480   -5.1690 C.2    89  VAL89       0.2260
     71  O        -28.1110  -15.7180   -4.0310 O.2    89  VAL89      -0.2867
     72  CB       -26.4890  -13.2740   -5.1620 C.3    89  VAL89       0.0252
     73  CG1      -25.5190  -14.1500   -5.9500 C.3    89  VAL89       0.0019
     74  CG2      -26.3400  -11.8170   -5.5650 C.3    89  VAL89       0.0019
     75  N        -26.0180  -18.8550   -6.2250 N.3    91  LYS91      -0.1245
     76  CA       -24.7330  -19.3510   -6.6950 C.3    91  LYS91       0.1561
     77  C        -24.7580  -20.8470   -6.9860 C.2    91  LYS91       0.2260
     78  O        -25.1750  -21.6370   -6.1420 O.2    91  LYS91      -0.2867
     79  CB       -23.6240  -19.0410   -5.6670 C.3    91  LYS91       0.0271
     80  CG       -23.4660  -17.5530   -5.3730 C.3    91  LYS91       0.0035
     81  CD       -22.2450  -17.2640   -4.5100 C.3    91  LYS91       0.0206
     82  CE       -22.0680  -15.7680   -4.3080 C.3    91  LYS91       0.1093
     83  NZ       -20.9680  -15.4620   -3.3350 N.3    91  LYS91      -0.1314
     84  N        -22.5880  -11.2060    5.4590 N.3   133  LEU133     -0.1245
     85  CA       -23.9300  -11.4680    4.9630 C.3   133  LEU133      0.1561
     86  C        -24.4030  -12.8330    5.4200 C.2   133  LEU133      0.2260
     87  O        -23.6040  -13.7730    5.5540 O.2   133  LEU133     -0.2867
     88  CB       -23.9680  -11.4450    3.4280 C.3   133  LEU133      0.0270
     89  CG       -23.7360  -10.1320    2.6500 C.3   133  LEU133      0.0019
     90  CD1      -23.8370  -10.4230    1.1530 C.3   133  LEU133      0.0001
     91  CD2      -24.7030   -9.0190    3.0360 C.3   133  LEU133      0.0001
     92  N        -27.5890  -15.6680   -1.1660 N.3   156  GLU156     -0.1231
     93  CA       -26.9880  -14.6080   -0.3520 C.3   156  GLU156      0.1684
     94  C        -27.7270  -13.3360   -0.6810 C.2   156  GLU156      0.2434
     95  O        -28.2360  -13.2140   -1.7940 O.2   156  GLU156     -0.2733
     96  CB       -25.5410  -14.3520   -0.8100 C.3   156  GLU156      0.0402
     97  CG       -24.5560  -15.3740   -0.4100 C.3   156  GLU156      0.1161
     98  CD       -23.1790  -15.1110   -0.9790 C.2   156  GLU156      0.3649
     99  OE1      -22.7680  -13.9360   -1.1570 O.co2 156  GLU156     -0.2457
    100  OE2      -22.4970  -16.1070   -1.2350 O.co2 156  GLU156     -0.2457
    101  N        -27.7440  -12.3560    0.2410 N.am  157  PRO157     -0.2718
    102  CA       -28.2580  -11.0520   -0.1640 C.3   157  PRO157      0.1535
    103  C        -27.3780  -10.4320   -1.2600 C.2   157  PRO157      0.2598
    104  O        -26.2300  -10.8620   -1.4510 O.2   157  PRO157     -0.2715
    105  CB       -28.1650  -10.2170    1.1190 C.3   157  PRO157      0.0310
    106  CG       -28.1620  -11.2260    2.2280 C.3   157  PRO157      0.0237
    107  CD       -27.3780  -12.3800    1.6690 C.3   157  PRO157      0.0939
    108  N        -27.9140   -9.4420   -1.9740 N.am  158  LEU158     -0.1964
    109  CA       -27.1690   -8.8040   -3.0650 C.3   158  LEU158      0.1728
    110  C        -26.3030   -7.6670   -2.5410 C.2   158  LEU158      0.2616
    111  O        -26.7970   -6.7790   -1.8410 O.2   158  LEU158     -0.2715
    112  CB       -28.1270   -8.2820   -4.1550 C.3   158  LEU158      0.0311
    113  CG       -27.5660   -7.3790   -5.2770 C.3   158  LEU158      0.0022
    114  CD1      -26.6730   -8.1570   -6.2550 C.3   158  LEU158      0.0001
    115  CD2      -28.7070   -6.6500   -6.0440 C.3   158  LEU158      0.0001
    116  N        -25.0160   -7.7010   -2.8590 N.am  159  LEU159     -0.1977
    117  CA       -24.1490   -6.5550   -2.5870 C.3   159  LEU159      0.1596
    118  C        -24.1840   -5.5700   -3.7650 C.2   159  LEU159      0.2287
    119  O        -23.9360   -5.9550   -4.9180 O.2   159  LEU159     -0.2864
    120  CB       -22.7110   -6.9980   -2.3400 C.3   159  LEU159      0.0297
    121  CG       -22.4550   -7.8600   -1.1040 C.3   159  LEU159      0.0022
    122  CD1      -21.0720   -8.4430   -1.1700 C.3   159  LEU159      0.0001
    123  CD2      -22.6750   -7.0770    0.1870 C.3   159  LEU159      0.0001
    124  N        -17.0030   -4.8060   -5.6530 N.3   163  PHE163     -0.1241
    125  CA       -16.6760   -6.0100   -4.9100 C.3   163  PHE163      0.1605
    126  C        -15.1780   -6.2290   -4.9760 C.2   163  PHE163      0.2264
    127  O        -14.6120   -6.3750   -6.0630 O.2   163  PHE163     -0.2867
    128  CB       -17.4070   -7.2050   -5.5320 C.3   163  PHE163      0.0534
    129  CG       -17.3200   -8.4740   -4.7260 C.ar  163  PHE163     -0.0203
    130  CD1      -18.4170   -8.9160   -3.9940 C.ar  163  PHE163     -0.0042
    131  CD2      -16.1640   -9.2480   -4.7280 C.ar  163  PHE163     -0.0042
    132  CE1      -18.3580  -10.1070   -3.2730 C.ar  163  PHE163     -0.0003
    133  CE2      -16.0960  -10.4390   -3.9950 C.ar  163  PHE163     -0.0003
    134  CZ       -17.1930  -10.8600   -3.2660 C.ar  163  PHE163     -0.0000
    135  N        -11.6630   -8.2470   -3.1490 N.3   165  LYS165     -0.1245
    136  CA       -11.0480   -9.2270   -2.2880 C.3   165  LYS165      0.1561
    137  C         -9.8540   -8.5780   -1.5800 C.2   165  LYS165      0.2260
    138  O         -8.9930   -7.9720   -2.2340 O.2   165  LYS165     -0.2867
    139  CB       -10.6540  -10.4590   -3.1070 C.3   165  LYS165      0.0271
    140  CG       -10.1670  -11.6230   -2.2790 C.3   165  LYS165      0.0035
    141  CD       -10.2150  -12.9190   -3.0690 C.3   165  LYS165      0.0206
    142  CE        -9.3120  -13.9450   -2.4310 C.3   165  LYS165      0.1093
    143  NZ        -9.7230  -15.3340   -2.7250 N.3   165  LYS165     -0.1314
    144  N        -13.6540  -10.2260    1.8220 N.3   201  GLN201     -0.1245
    145  CA       -14.0430   -9.6450    0.5110 C.3   201  GLN201      0.1566
    146  C        -15.5400   -9.3970    0.5370 C.2   201  GLN201      0.2260
    147  O        -16.2060  -10.0670    1.3390 O.2   201  GLN201     -0.2867
    148  CB       -13.7820  -10.7050   -0.5630 C.3   201  GLN201      0.0367
    149  CG       -14.5200  -12.0370   -0.3150 C.3   201  GLN201      0.0905
    150  CD       -14.1700  -13.1530   -1.2880 C.2   201  GLN201      0.2608
    151  OE1      -14.1380  -12.9520   -2.5070 O.2   201  GLN201     -0.2717
    152  NE2      -13.9130  -14.3430   -0.7550 N.am  201  GLN201     -0.0878
    153  N        -18.6720  -11.2850    2.3010 N.3   208  THR208     -0.1203
    154  CA       -19.2760  -12.5640    2.0200 C.3   208  THR208      0.1994
    155  C        -18.2030  -13.5580    1.5950 C.2   208  THR208      0.2617
    156  O        -17.0590  -13.1590    1.3580 O.2   208  THR208     -0.2717
    157  CB       -20.4200  -12.4450    0.9720 C.3   208  THR208      0.1784
    158  OG1      -21.1730  -13.6620    0.9530 O.3   208  THR208     -0.2211
    159  CG2      -19.8750  -12.1510   -0.4360 C.3   208  THR208      0.0376
    160  N        -18.5580  -14.8480    1.5320 N.am  209  ASP209     -0.1973
    161  CA       -17.6330  -15.8990    1.0870 C.3   209  ASP209      0.1709
    162  C        -16.2610  -15.9110    1.8180 C.2   209  ASP209      0.2293
    163  O        -15.1910  -15.9920    1.1730 O.2   209  ASP209     -0.2864
    164  CB       -17.4830  -15.7970   -0.4420 C.3   209  ASP209      0.1436
    165  CG       -16.5960  -16.8540   -1.0320 C.2   209  ASP209      0.3671
    166  OD1      -16.6860  -18.0310   -0.6190 O.co2 209  ASP209     -0.2456
    167  OD2      -15.8050  -16.4970   -1.9470 O.co2 209  ASP209     -0.2456
@<TRIPOS>BOND
     1    25    23   ar
     2    24    23   ar
     3    23    22    1
     4    61    60   ar
     5    62    60   ar
     6    60    59    1
     7    22    21    1
     8     2     1    1
     9     2     3    1
    10     2     5    1
    11     4     3    2
    12     3    12   am
    13    59    58    1
    14     5     6    1
    15    21    18    1
    16    12    13    1
    17    13    14    1
    18    13    16    1
    19    58    55    1
    20    14    15    2
    21    14    17   am
    22    17    18    1
    23    18    19    1
    24     6     7   ar
    25     6     8   ar
    26    29    28    2
    27    66    65    2
    28    20    19    2
    29    19    26   am
    30    55    54    1
    31    55    56    1
    32     7     9   ar
    33     8    10   ar
    34    33    32    2
    35    26    27    1
    36    28    27    1
    37    28    30   am
    38    54    45   am
    39    65    64    1
    40    63    56   am
    41    63    64    1
    42    56    57    2
    43    46    45    2
    44    31    32    1
    45    31    30    1
    46    31    34    1
    47    32    35   am
    48    45    44    1
    49     9    11   ar
    50    10    11   ar
    51    64    67    1
    52    38    37    2
    53    35    36    1
    54    37    43   am
    55    37    36    1
    56    44    43    1
    57    44    47    1
    58    36    39    1
    59    47    48    1
    60    42    40    1
    61    39    40    1
    62    40    41    1
    63    77    76    1
    64    77    78    2
    65    76    75    1
    66    76    79    1
    67    48    49    1
    68   114   113    1
    69   127   126    2
    70   115   113    1
    71    73    72    1
    72    79    80    1
    73   124   125    1
    74    74    72    1
    75   128   125    1
    76   128   129    1
    77    69    70    1
    78    69    72    1
    79    69    68    1
    80    80    81    1
    81    49    50    1
    82   113   112    1
    83    70    71    2
    84   126   125    1
    85   119   118    2
    86   131   129   ar
    87   131   133   ar
    88   129   130   ar
    89    50    51    2
    90    81    82    1
    91    82    83    1
    92   112   109    1
    93   133   134   ar
    94   130   132   ar
    95   118   117    1
    96    51    53    1
    97    51    52    1
    98   132   134   ar
    99   135   136    1
   100   139   136    1
   101   139   140    1
   102   141   142    1
   103   141   140    1
   104   109   110    1
   105   109   108    1
   106   116   117    1
   107   116   110   am
   108   143   142    1
   109   117   120    1
   110   110   111    2
   111   151   150    2
   112   120   121    1
   113   136   137    1
   114   138   137    2
   115   108   103   am
   116   167   165   ar
   117    95    94    2
   118   104   103    2
   119   150   152   am
   120   150   149    1
   121   103   102    1
   122   100    98   ar
   123   122   121    1
   124    92    93    1
   125    99    98   ar
   126   121   123    1
   127   165   166   ar
   128   165   164    1
   129    98    97    1
   130    96    97    1
   131    96    93    1
   132    94    93    1
   133    94   101   am
   134   148   149    1
   135   148   145    1
   136   164   161    1
   137   159   157    1
   138   102   101    1
   139   102   105    1
   140   101   107    1
   141   145   146    1
   142   145   144    1
   143   146   147    2
   144   158   157    1
   145   157   154    1
   146   161   160    1
   147   161   162    1
   148   105   106    1
   149    90    89    1
   150   163   162    2
   151   156   155    2
   152   160   155   am
   153   155   154    1
   154   107   106    1
   155   154   153    1
   156    89    91    1
   157    89    88    1
   158    88    85    1
   159    85    86    1
   160    85    84    1
   161    86    87    2
