@<TRIPOS>MOLECULE
tmp/3llcA01.pdb
 143 135 0 0 0
SMALL
GASTEIGER

@<TRIPOS>ATOM
      1  N         31.9790    2.5000    4.8860 N.3    39  GLY39      -0.1210
      2  CA        33.0230    3.4600    5.3140 C.3    39  GLY39       0.1956
      3  C         34.3520    2.8340    5.7590 C.2    39  GLY39       0.2611
      4  O         34.4780    1.6160    5.9410 O.2    39  GLY39      -0.2717
      5  N         35.3380    3.6970    5.9710 N.am   40  TYR40      -0.1976
      6  CA        36.6560    3.3280    6.4630 C.3    40  TYR40       0.1639
      7  C         36.4510    2.6740    7.8150 C.2    40  TYR40       0.2290
      8  O         35.7270    3.2100    8.6160 O.2    40  TYR40      -0.2864
      9  CB        37.4470    4.6140    6.6590 C.3    40  TYR40       0.0560
     10  CG        38.9160    4.5200    6.9960 C.ar   40  TYR40      -0.0198
     11  CD1       39.8230    4.1110    6.0320 C.ar   40  TYR40      -0.0009
     12  CD2       39.4190    4.9860    8.2130 C.ar   40  TYR40      -0.0009
     13  CE1       41.1810    4.0900    6.2720 C.ar   40  TYR40       0.0417
     14  CE2       40.8020    4.9510    8.4760 C.ar   40  TYR40       0.0417
     15  CZ        41.6670    4.5130    7.4870 C.ar   40  TYR40       0.1957
     16  OH        43.0370    4.4760    7.6480 O.3    40  TYR40      -0.2866
     17  N         30.2730    7.2770    3.1190 N.3   106  SER106     -0.1217
     18  CA        31.5440    7.9080    3.4730 C.3   106  SER106      0.1889
     19  C         32.6750    7.5360    2.4870 C.2   106  SER106      0.2288
     20  O         32.5630    7.8490    1.2810 O.2   106  SER106     -0.2866
     21  CB        31.8320    7.6290    4.9650 C.3   106  SER106      0.2089
     22  OG        32.8190    8.5130    5.4320 O.3   106  SER106     -0.2183
     23  N         32.6560   10.7690    0.9470 N.3   136  ALA136     -0.1245
     24  CA        33.9680   11.3500    1.2540 C.3   136  ALA136      0.1562
     25  C         34.9560   11.2210    0.0880 C.2   136  ALA136      0.2260
     26  O         36.1130   10.7880    0.2690 O.2   136  ALA136     -0.2867
     27  CB        34.5540   10.6810    2.5640 C.3   136  ALA136      0.0290
     28  N         39.0760   12.4260    0.1730 N.3   139  PHE139     -0.1241
     29  CA        39.2530   12.8430    1.5720 C.3   139  PHE139      0.1605
     30  C         40.7190   13.0360    1.9510 C.2   139  PHE139      0.2264
     31  O         41.0480   13.9010    2.7890 O.2   139  PHE139     -0.2867
     32  CB        38.4520   11.9580    2.5770 C.3   139  PHE139      0.0534
     33  CG        39.0460   10.6010    2.8820 C.ar  139  PHE139     -0.0203
     34  CD1       40.1530   10.4540    3.6890 C.ar  139  PHE139     -0.0042
     35  CD2       38.4030    9.4360    2.4330 C.ar  139  PHE139     -0.0042
     36  CE1       40.6450    9.1790    3.9870 C.ar  139  PHE139     -0.0003
     37  CE2       38.9070    8.1720    2.7360 C.ar  139  PHE139     -0.0003
     38  CZ        40.0020    8.0510    3.5040 C.ar  139  PHE139     -0.0000
     39  N         40.3940   16.7990    2.7620 N.3   143  LEU143     -0.1231
     40  CA        39.9900   16.8970    4.1770 C.3   143  LEU143      0.1693
     41  C         41.1490   16.6420    5.1520 C.2   143  LEU143      0.2591
     42  O         41.2050   17.2880    6.2060 O.2   143  LEU143     -0.2718
     43  CB        38.8150   15.9710    4.4770 C.3   143  LEU143      0.0284
     44  CG        37.5330   16.1760    3.6520 C.3   143  LEU143      0.0019
     45  CD1       36.4200   15.1770    4.0380 C.3   143  LEU143      0.0001
     46  CD2       37.0760   17.6780    3.7470 C.3   143  LEU143      0.0001
     47  N         42.0880   15.7550    4.8150 N.am  144  ILE144     -0.1980
     48  CA        43.2440   15.4950    5.7090 C.3   144  ILE144      0.1595
     49  C         44.4540   16.4110    5.4730 C.2   144  ILE144      0.2287
     50  O         44.9140   17.1220    6.4120 O.2   144  ILE144     -0.2864
     51  CB        43.6600   14.0110    5.7150 C.3   144  ILE144      0.0276
     52  CG1       42.4780   13.1310    6.2050 C.3   144  ILE144      0.0022
     53  CG2       44.9340   13.8140    6.5830 C.3   144  ILE144      0.0022
     54  CD1       42.6990   11.6160    6.1310 C.3   144  ILE144      0.0001
     55  N         44.9350   19.9080    7.0430 N.3   147  LEU147     -0.1231
     56  CA        44.9910   19.9570    8.5180 C.3   147  LEU147      0.1693
     57  C         46.2650   19.3880    9.1150 C.2   147  LEU147      0.2591
     58  O         46.4750   19.5420   10.3080 O.2   147  LEU147     -0.2718
     59  CB        43.7940   19.2130    9.1220 C.3   147  LEU147      0.0284
     60  CG        42.4240   19.7920    8.7820 C.3   147  LEU147      0.0019
     61  CD1       41.3360   18.8630    9.2630 C.3   147  LEU147      0.0001
     62  CD2       42.2630   21.2060    9.3470 C.3   147  LEU147      0.0001
     63  N         47.1240   18.7490    8.3170 N.am  148  LEU148     -0.1980
     64  CA        48.3350   18.1330    8.8480 C.3   148  LEU148      0.1596
     65  C         49.3340   19.1630    9.3400 C.2   148  LEU148      0.2287
     66  O         49.5460   20.2020    8.7030 O.2   148  LEU148     -0.2864
     67  CB        49.0380   17.2650    7.8000 C.3   148  LEU148      0.0297
     68  CG        48.3500   16.0040    7.2840 C.3   148  LEU148      0.0022
     69  CD1       49.2420   15.3390    6.2280 C.3   148  LEU148      0.0001
     70  CD2       48.0530   15.0530    8.4030 C.3   148  LEU148      0.0001
     71  N         52.2810   15.2570   12.5260 N.3   152  GLU152     -0.1245
     72  CA        51.7870   14.2320   11.5980 C.3   152  GLU152      0.1567
     73  C         52.7750   13.9610   10.4450 C.2   152  GLU152      0.2260
     74  O         53.0000   12.8020   10.0810 O.2   152  GLU152     -0.2867
     75  CB        50.4230   14.6110   11.0490 C.3   152  GLU152      0.0388
     76  CG        49.2540   14.5740   12.0420 C.3   152  GLU152      0.1160
     77  CD        48.9940   15.9200   12.7340 C.2   152  GLU152      0.3649
     78  OE1       49.9530   16.7060   12.9100 O.co2 152  GLU152     -0.2457
     79  OE2       47.8150   16.1730   13.0900 O.co2 152  GLU152     -0.2457
     80  N         50.3010    7.9850   10.6020 N.3   162  PHE162     -0.1241
     81  CA        50.0010    8.8610   11.7300 C.3   162  PHE162      0.1605
     82  C         48.6470    8.4690   12.3360 C.2   162  PHE162      0.2264
     83  O         47.8270    7.8270   11.6830 O.2   162  PHE162     -0.2867
     84  CB        50.0470   10.3680   11.3510 C.3   162  PHE162      0.0534
     85  CG        48.8530   10.8550   10.6270 C.ar  162  PHE162     -0.0203
     86  CD1       48.8020   10.7860    9.2530 C.ar  162  PHE162     -0.0042
     87  CD2       47.7770   11.4190   11.3040 C.ar  162  PHE162     -0.0042
     88  CE1       47.6990   11.2330    8.5700 C.ar  162  PHE162     -0.0003
     89  CE2       46.6820   11.8590   10.6260 C.ar  162  PHE162     -0.0003
     90  CZ        46.6240   11.7550    9.2390 C.ar  162  PHE162     -0.0000
     91  N         45.1760    9.5950   14.8610 N.3   164  GLU164     -0.1245
     92  CA        44.2860   10.6260   15.3810 C.3   164  GLU164      0.1567
     93  C         43.2620    9.9540   16.2920 C.2   164  GLU164      0.2260
     94  O         42.8010    8.8220   16.0410 O.2   164  GLU164     -0.2867
     95  CB        43.5620   11.3820   14.2630 C.3   164  GLU164      0.0388
     96  CG        44.4660   12.1320   13.3070 C.3   164  GLU164      0.1160
     97  CD        45.0690   13.4000   13.8950 C.2   164  GLU164      0.3649
     98  OE1       44.5980   13.8840   14.9450 O.co2 164  GLU164     -0.2457
     99  OE2       46.0220   13.9200   13.2890 O.co2 164  GLU164     -0.2457
    100  N         42.1030    6.2400   15.0590 N.3   173  ASN173     -0.1240
    101  CA        42.2640    6.1610   13.6110 C.3   173  ASN173      0.1653
    102  C         43.7270    6.2130   13.2390 C.2   173  ASN173      0.2266
    103  O         44.4780    7.0210   13.7860 O.2   173  ASN173     -0.2867
    104  CB        41.5880    7.3410   12.9200 C.3   173  ASN173      0.1155
    105  CG        40.0940    7.2580   12.9440 C.2   173  ASN173      0.2627
    106  OD1       39.5250    6.1760   12.8510 O.2   173  ASN173     -0.2716
    107  ND2       39.4370    8.4120   13.0520 N.am  173  ASN173     -0.0877
    108  N         46.1530    6.4570    9.6670 N.3   175  PHE175     -0.1241
    109  CA        46.1620    6.7360    8.2310 C.3   175  PHE175      0.1605
    110  C         47.6140    6.5090    7.7480 C.2   175  PHE175      0.2264
    111  O         48.5540    7.1020    8.2840 O.2   175  PHE175     -0.2867
    112  CB        45.7340    8.1760    7.9630 C.3   175  PHE175      0.0534
    113  CG        44.3310    8.5020    8.4020 C.ar  175  PHE175     -0.0203
    114  CD1       43.2450    8.1070    7.6560 C.ar  175  PHE175     -0.0042
    115  CD2       44.1140    9.2150    9.5820 C.ar  175  PHE175     -0.0042
    116  CE1       41.9400    8.4040    8.0540 C.ar  175  PHE175     -0.0003
    117  CE2       42.8140    9.5280    9.9840 C.ar  175  PHE175     -0.0003
    118  CZ        41.7420    9.1270    9.2370 C.ar  175  PHE175     -0.0000
    119  N         33.0240   15.1760   10.6240 N.3   205  ASP205     -0.1225
    120  CA        34.0520   14.4310    9.8850 C.3   205  ASP205      0.1805
    121  C         34.0890   14.8060    8.3960 C.2   205  ASP205      0.2597
    122  O         35.1460   15.1320    7.8760 O.2   205  ASP205     -0.2718
    123  CB        33.7940   12.9380    9.9870 C.3   205  ASP205      0.1424
    124  CG        33.8020   12.4380   11.4430 C.2   205  ASP205      0.3668
    125  OD1       34.5190   13.0200   12.2810 O.co2 205  ASP205     -0.2456
    126  OD2       33.0450   11.5080   11.7440 O.co2 205  ASP205     -0.2456
    127  N         32.9280   14.7600    7.7410 N.am  206  VAL206     -0.1980
    128  CA        32.7650   15.2710    6.3640 C.3   206  VAL206      0.1595
    129  C         31.8680   16.5440    6.4000 C.2   206  VAL206      0.2287
    130  O         30.6770   16.4290    6.5930 O.2   206  VAL206     -0.2864
    131  CB        32.1440   14.1850    5.4410 C.3   206  VAL206      0.0276
    132  CG1       31.8890   14.7520    4.0140 C.3   206  VAL206      0.0022
    133  CG2       33.0630   12.9500    5.3590 C.3   206  VAL206      0.0022
    134  N         27.5680   12.3570   11.3270 N.3   233  HIS233     -0.1241
    135  CA        28.2530   11.5760   10.2900 C.3   233  HIS233      0.1621
    136  C         27.6110   10.1860   10.0540 C.2   233  HIS233      0.2264
    137  O         27.6540    9.6720    8.9540 O.2   233  HIS233     -0.2867
    138  CB        29.7640   11.3960   10.5690 C.3   233  HIS233      0.0745
    139  CG        30.5020   10.7770    9.4190 C.ar  233  HIS233      0.0817
    140  ND1       30.4840   11.3280    8.1580 N.ar  233  HIS233     -0.2268
    141  CD2       31.2310    9.6340    9.3260 C.ar  233  HIS233      0.1154
    142  CE1       31.1840   10.5530    7.3320 C.ar  233  HIS233      0.1986
    143  NE2       31.6660    9.5320    8.0220 N.ar  233  HIS233     -0.2212
@<TRIPOS>BOND
     1    25    26    2
     2    25    24    1
     3    28    29    1
     4    23    24    1
     5    24    27    1
     6    20    19    2
     7    29    30    1
     8    29    32    1
     9    30    31    2
    10    35    37   ar
    11    35    33   ar
    12    19    18    1
    13    32    33    1
    14    37    38   ar
    15    39    40    1
    16    33    34   ar
    17    17    18    1
    18    18    21    1
    19    38    36   ar
    20    44    46    1
    21    44    45    1
    22    44    43    1
    23    34    36   ar
    24   132   131    1
    25    40    43    1
    26    40    41    1
    27    47    41   am
    28    47    48    1
    29     1     2    1
    30    21    22    1
    31    41    42    2
    32     2     3    1
    33   133   131    1
    34   131   128    1
    35    49    48    1
    36    49    50    2
    37    48    51    1
    38    51    52    1
    39    51    53    1
    40     3     4    2
    41     3     5   am
    42     5     6    1
    43    11    13   ar
    44    11    10   ar
    45    54    52    1
    46    69    68    1
    47    13    15   ar
    48   128   129    1
    49   128   127    1
    50   129   130    2
    51     6     9    1
    52     6     7    1
    53     9    10    1
    54    10    12   ar
    55    55    56    1
    56    68    67    1
    57    68    70    1
    58   142   143   ar
    59   142   140   ar
    60    15    16    1
    61    15    14   ar
    62   114   116   ar
    63   114   113   ar
    64   127   121   am
    65   110   109    1
    66   110   111    2
    67    67    64    1
    68     7     8    2
    69   122   121    2
    70   112   109    1
    71   112   113    1
    72   143   141   ar
    73   116   118   ar
    74   140   139   ar
    75    12    14   ar
    76   109   108    1
    77    63    64    1
    78    63    57   am
    79   121   120    1
    80   113   115   ar
    81    56    57    1
    82    56    59    1
    83    88    90   ar
    84    88    86   ar
    85    66    65    2
    86    60    59    1
    87    60    61    1
    88    60    62    1
    89    64    65    1
    90   137   136    2
    91    57    58    2
    92   118   117   ar
    93    90    89   ar
    94    86    85   ar
    95   141   139   ar
    96   139   138    1
    97   115   117   ar
    98   120   123    1
    99   120   119    1
   100   123   124    1
   101   136   135    1
   102    74    73    2
   103   135   138    1
   104   135   134    1
   105    73    72    1
   106    80    81    1
   107    89    87   ar
   108    85    87   ar
   109    85    84    1
   110    75    72    1
   111    75    76    1
   112    84    81    1
   113   124   126   ar
   114   124   125   ar
   115    72    71    1
   116    83    82    2
   117    81    82    1
   118    76    77    1
   119    77    78   ar
   120    77    79   ar
   121   106   105    2
   122   104   105    1
   123   104   101    1
   124   105   107   am
   125   102   101    1
   126   102   103    2
   127    99    97   ar
   128    96    97    1
   129    96    95    1
   130   101   100    1
   131    97    98   ar
   132    95    92    1
   133    91    92    1
   134    92    93    1
   135    94    93    2
