@<TRIPOS>MOLECULE
tmp/3llmB00.pdb
 87 81 0 0 0
SMALL
GASTEIGER

@<TRIPOS>ATOM
      1  N         58.8850   46.8030   18.9860 N.3    58  LEU58      -0.1245
      2  CA        59.5020   45.6800   18.2780 C.3    58  LEU58       0.1561
      3  C         59.0830   45.6820   16.8160 C.2    58  LEU58       0.2260
      4  O         57.9710   46.0780   16.4940 O.2    58  LEU58      -0.2867
      5  CB        59.1200   44.3500   18.9170 C.3    58  LEU58       0.0270
      6  CG        59.7280   44.0010   20.2810 C.3    58  LEU58       0.0019
      7  CD1       58.8410   43.0160   20.9900 C.3    58  LEU58       0.0001
      8  CD2       61.1300   43.4380   20.1310 C.3    58  LEU58       0.0001
      9  N         65.6080   36.4190   13.1480 N.3    83  THR83      -0.1203
     10  CA        65.6300   36.4080   14.6050 C.3    83  THR83       0.1994
     11  C         65.5950   37.8260   15.1630 C.2    83  THR83       0.2618
     12  O         66.2960   38.6710   14.6750 O.2    83  THR83      -0.2717
     13  CB        66.9110   35.7460   15.1360 C.3    83  THR83       0.1784
     14  OG1       66.9560   34.3780   14.7230 O.3    83  THR83      -0.2211
     15  CG2       66.9510   35.8060   16.6190 C.3    83  THR83       0.0376
     16  N         64.7590   38.0720   16.1650 N.am   84  GLY84      -0.1942
     17  CA        64.7340   39.3350   16.8800 C.3    84  GLY84       0.2014
     18  C         63.5500   40.1960   16.5230 C.2    84  GLY84       0.2639
     19  O         63.3830   41.2640   17.0940 O.2    84  GLY84      -0.2714
     20  N         62.7140   39.7600   15.5850 N.am   85  CYS85      -0.1953
     21  CA        61.5670   40.5830   15.1730 C.3    85  CYS85       0.1843
     22  C         60.4400   40.5900   16.2130 C.2    85  CYS85       0.2626
     23  O         59.7030   41.5710   16.3260 O.2    85  CYS85      -0.2714
     24  CB        60.9950   40.0900   13.8470 C.3    85  CYS85       0.0997
     25  SG        61.8910   40.5770   12.4030 S.3    85  CYS85      -0.0797
     26  N         60.2850   39.4740   16.9320 N.am   86  GLY86      -0.1940
     27  CA        59.2090   39.2870   17.8990 C.3    86  GLY86       0.2014
     28  C         58.1640   38.2520   17.5170 C.2    86  GLY86       0.2639
     29  O         57.0440   38.2450   18.0500 O.2    86  GLY86      -0.2714
     30  N         58.5140   37.3600   16.6040 N.am   87  LYS87      -0.1963
     31  CA        57.5510   36.3490   16.1480 C.3    87  LYS87       0.1728
     32  C         57.0460   35.5270   17.3370 C.2    87  LYS87       0.2617
     33  O         55.8360   35.4060   17.5660 O.2    87  LYS87      -0.2715
     34  CB        58.1920   35.4060   15.1150 C.3    87  LYS87       0.0311
     35  CG        58.6040   36.0710   13.8130 C.3    87  LYS87       0.0038
     36  CD        59.2700   35.1190   12.8140 C.3    87  LYS87       0.0206
     37  CE        60.6390   34.6190   13.2830 C.3    87  LYS87       0.1093
     38  NZ        61.6390   35.6990   13.4700 N.3    87  LYS87      -0.1314
     39  N         58.0000   35.0000   18.0910 N.am   88  THR88      -0.1937
     40  CA        57.7090   34.0350   19.1040 C.3    88  THR88       0.2028
     41  C         56.8750   34.6310   20.1880 C.2    88  THR88       0.2642
     42  O         55.8100   34.1380   20.5070 O.2    88  THR88      -0.2714
     43  CB        58.9960   33.4490   19.6960 C.3    88  THR88       0.1808
     44  OG1       59.6980   32.7300   18.6670 O.3    88  THR88      -0.2208
     45  CG2       58.6910   32.5250   20.8570 C.3    88  THR88       0.0379
     46  N         57.3510   35.7250   20.7380 N.am   89  THR89      -0.1950
     47  CA        56.7270   36.3040   21.9210 C.3    89  THR89       0.1897
     48  C         55.5440   37.1910   21.6160 C.2    89  THR89       0.2313
     49  O         54.7730   37.4460   22.5240 O.2    89  THR89      -0.2863
     50  CB        57.7140   37.1440   22.7040 C.3    89  THR89       0.1794
     51  OG1       58.1600   38.2240   21.8750 O.3    89  THR89      -0.2208
     52  CG2       58.8950   36.3040   23.1220 C.3    89  THR89       0.0378
     53  N         60.8610   28.8400   29.0080 N.3   122  SER122     -0.1217
     54  CA        61.2900   30.2440   29.1030 C.3   122  SER122      0.1889
     55  C         60.3680   31.1730   28.3490 C.2   122  SER122      0.2288
     56  O         60.1010   32.2860   28.8150 O.2   122  SER122     -0.2866
     57  CB        62.7620   30.5140   28.7230 C.3   122  SER122      0.2089
     58  OG        63.3490   29.5400   27.8770 O.3   122  SER122     -0.2183
     59  N         58.3850   34.2910   29.8350 N.3   126  ARG126     -0.1245
     60  CA        58.5180   35.5650   29.1900 C.3   126  ARG126      0.1563
     61  C         57.1800   36.1540   28.7840 C.2   126  ARG126      0.2260
     62  O         56.9060   37.3150   29.0680 O.2   126  ARG126     -0.2867
     63  CB        59.3920   35.4470   27.9580 C.3   126  ARG126      0.0307
     64  CG        59.4820   36.7440   27.1620 C.3   126  ARG126      0.0489
     65  CD        60.0940   37.8600   27.9640 C.3   126  ARG126      0.2205
     66  NE        59.9820   39.1590   27.3030 N.pl3 126  ARG126     -0.0865
     67  CZ        60.6970   40.2320   27.6410 C.cat 126  ARG126      0.5346
     68  NH1       61.5770   40.1630   28.6380 N.pl3 126  ARG126      0.1354
     69  NH2       60.5370   41.3740   26.9790 N.pl3 126  ARG126      0.1354
     70  N         55.3980   39.5670   30.1200 N.3   130  GLU130     -0.1245
     71  CA        54.9530   40.6830   29.2440 C.3   130  GLU130      0.1567
     72  C         53.4710   41.0150   29.3970 C.2   130  GLU130      0.2260
     73  O         52.9850   41.9640   28.7890 O.2   130  GLU130     -0.2867
     74  CB        55.1980   40.3760   27.7470 C.3   130  GLU130      0.0388
     75  CG        56.6690   40.2500   27.3130 C.3   130  GLU130      0.1160
     76  CD        56.8770   40.2500   25.7830 C.2   130  GLU130      0.3649
     77  OE1       55.9020   40.5270   25.0400 O.co2 130  GLU130     -0.2457
     78  OE2       58.0240   39.9830   25.3260 O.co2 130  GLU130     -0.2457
     79  N         59.6440   28.0030   15.0930 N.3   181  GLU181     -0.1245
     80  CA        60.9710   27.6110   14.6390 C.3   181  GLU181      0.1567
     81  C         61.0030   26.3930   13.7280 C.2   181  GLU181      0.2260
     82  O         61.8700   25.5640   13.8350 O.2   181  GLU181     -0.2867
     83  CB        61.9260   27.4820   15.8340 C.3   181  GLU181      0.0388
     84  CG        61.7140   28.5450   16.9970 C.3   181  GLU181      0.1160
     85  CD        62.0030   30.0370   16.6140 C.2   181  GLU181      0.3649
     86  OE1       62.3790   30.3150   15.4490 O.co2 181  GLU181     -0.2457
     87  OE2       61.8540   30.9410   17.4930 O.co2 181  GLU181     -0.2457
@<TRIPOS>BOND
     1    25    24    1
     2    36    37    1
     3    36    35    1
     4     9    10    1
     5    37    38    1
     6    81    82    2
     7    81    80    1
     8    35    34    1
     9    24    21    1
    10    10    13    1
    11    10    11    1
    12    80    79    1
    13    80    83    1
    14    12    11    2
    15    14    13    1
    16    34    31    1
    17    13    15    1
    18    11    16   am
    19    21    20    1
    20    21    22    1
    21    86    85   ar
    22    20    18   am
    23    83    84    1
    24    31    30    1
    25    31    32    1
    26    16    17    1
    27    22    23    2
    28    22    26   am
    29     4     3    2
    30    18    17    1
    31    18    19    2
    32    30    28   am
    33    85    84    1
    34    85    87   ar
    35     3     2    1
    36    26    27    1
    37    32    33    2
    38    32    39   am
    39    28    27    1
    40    28    29    2
    41    39    40    1
    42     2     5    1
    43     2     1    1
    44    44    43    1
    45     5     6    1
    46    40    43    1
    47    40    41    1
    48    43    45    1
    49     8     6    1
    50    41    42    2
    51    41    46   am
    52     6     7    1
    53    46    47    1
    54    48    47    1
    55    48    49    2
    56    51    50    1
    57    47    50    1
    58    50    52    1
    59    77    76   ar
    60    78    76   ar
    61    76    75    1
    62    69    67    1
    63    64    63    1
    64    64    65    1
    65    66    67    2
    66    66    65    1
    67    75    74    1
    68    67    68    1
    69    74    71    1
    70    58    57    1
    71    63    60    1
    72    55    56    2
    73    55    54    1
    74    57    54    1
    75    61    62    2
    76    61    60    1
    77    73    72    2
    78    53    54    1
    79    60    59    1
    80    71    72    1
    81    71    70    1
