@<TRIPOS>MOLECULE
tmp/3lloA00.pdb
 94 88 0 0 0
SMALL
GASTEIGER

@<TRIPOS>ATOM
      1  N         28.5910  -11.3090   10.8500 N.3    78  VAL78      -0.1231
      2  CA        28.4550  -12.5860   10.0930 C.3    78  VAL78       0.1692
      3  C         28.4480  -13.7700   11.0460 C.2    78  VAL78       0.2591
      4  O         27.6380  -14.6710   10.8930 O.2    78  VAL78      -0.2718
      5  CB        29.6040  -12.6740    9.1110 C.3    78  VAL78       0.0266
      6  CG1       29.7150  -14.0880    8.5210 C.3    78  VAL78       0.0020
      7  CG2       29.3910  -11.6120    7.9870 C.3    78  VAL78       0.0020
      8  N         29.3420  -13.7440   12.0290 N.am   79  LYS79      -0.1980
      9  CA        29.4030  -14.8090   13.0250 C.3    79  LYS79       0.1596
     10  C         28.1020  -14.9340   13.8080 C.2    79  LYS79       0.2287
     11  O         27.5140  -16.0410   13.9420 O.2    79  LYS79      -0.2864
     12  CB        30.6400  -14.6230   13.9550 C.3    79  LYS79       0.0298
     13  CG        30.7370  -15.8210   14.9190 C.3    79  LYS79       0.0038
     14  CD        31.9260  -15.6710   15.8670 C.3    79  LYS79       0.0206
     15  CE        31.9110  -16.8110   16.9280 C.3    79  LYS79       0.1093
     16  NZ        30.6320  -16.8400   17.7970 N.3    79  LYS79      -0.1314
     17  N         25.3130  -16.1740   11.8320 N.3    82  GLY82      -0.1225
     18  CA        25.5960  -17.5680   11.4110 C.3    82  GLY82       0.1811
     19  C         25.3390  -18.5310   12.5790 C.2    82  GLY82       0.2280
     20  O         24.8750  -19.6810   12.3600 O.2    82  GLY82      -0.2866
     21  N         22.0090  -19.7520   12.3570 N.3    85  GLY85      -0.1210
     22  CA        21.6520  -20.3700   11.0610 C.3    85  GLY85       0.1956
     23  C         21.2990  -19.3490    9.9350 C.2    85  GLY85       0.2612
     24  O         20.8480  -19.7480    8.8350 O.2    85  GLY85      -0.2717
     25  N         21.5120  -18.0590   10.1900 N.am   86  ILE86      -0.1965
     26  CA        21.1770  -17.0430    9.1670 C.3    86  ILE86       0.1727
     27  C         22.4670  -16.6510    8.4190 C.2    86  ILE86       0.2616
     28  O         23.5020  -16.3490    9.0600 O.2    86  ILE86      -0.2715
     29  CB        20.5610  -15.7840    9.8290 C.3    86  ILE86       0.0290
     30  CG1       19.2110  -16.1890   10.4700 C.3    86  ILE86       0.0022
     31  CG2       20.4770  -14.6500    8.8000 C.3    86  ILE86       0.0023
     32  CD1       18.5160  -15.1150   11.3460 C.3    86  ILE86       0.0001
     33  N         22.4670  -16.7750    7.1020 N.am   87  TYR87      -0.1960
     34  CA        23.6530  -16.4050    6.3330 C.3    87  TYR87       0.1771
     35  C         23.6110  -14.9280    6.0310 C.2    87  TYR87       0.2619
     36  O         22.5610  -14.3660    5.6760 O.2    87  TYR87      -0.2715
     37  CB        23.6110  -17.0930    4.9660 C.3    87  TYR87       0.0574
     38  CG        24.0120  -18.5290    4.9220 C.ar   87  TYR87      -0.0198
     39  CD1       25.1880  -18.8800    4.2840 C.ar   87  TYR87      -0.0009
     40  CD2       23.1890  -19.5700    5.4740 C.ar   87  TYR87      -0.0009
     41  CE1       25.5980  -20.1570    4.1790 C.ar   87  TYR87       0.0417
     42  CE2       23.6350  -20.9160    5.3140 C.ar   87  TYR87       0.0417
     43  CZ        24.8150  -21.1650    4.6390 C.ar   87  TYR87       0.1957
     44  OH        25.1740  -22.4870    4.4610 O.3    87  TYR87      -0.2866
     45  N         24.7500  -14.2880    6.1840 N.am   88  VAL88      -0.1977
     46  CA        24.9370  -12.8640    5.7530 C.3    88  VAL88       0.1596
     47  C         25.7590  -12.9260    4.4720 C.2    88  VAL88       0.2287
     48  O         26.9380  -13.3670    4.5090 O.2    88  VAL88      -0.2864
     49  CB        25.6720  -12.0440    6.8610 C.3    88  VAL88       0.0276
     50  CG1       26.0070  -10.6050    6.3850 C.3    88  VAL88       0.0022
     51  CG2       24.7960  -12.0700    8.1800 C.3    88  VAL88       0.0022
     52  N         39.0520  -18.3740    7.8410 N.3   109  ASN109     -0.1240
     53  CA        38.3560  -19.5490    7.3210 C.3   109  ASN109      0.1653
     54  C         37.9220  -19.3670    5.8450 C.2   109  ASN109      0.2266
     55  O         37.0720  -18.4970    5.5650 O.2   109  ASN109     -0.2867
     56  CB        37.1480  -19.8410    8.2010 C.3   109  ASN109      0.1155
     57  CG        36.3510  -21.1000    7.7430 C.2   109  ASN109      0.2627
     58  OD1       36.6020  -21.7210    6.7110 O.2   109  ASN109     -0.2716
     59  ND2       35.4340  -21.5020    8.5730 N.am  109  ASN109     -0.0877
     60  N         35.9720  -20.9380    3.8840 N.3   111  ALA111     -0.1231
     61  CA        34.5830  -21.1140    3.6280 C.3   111  ALA111      0.1694
     62  C         33.8840  -19.7360    3.4940 C.2   111  ALA111      0.2591
     63  O         32.8710  -19.6420    2.7930 O.2   111  ALA111     -0.2718
     64  CB        33.9150  -21.9590    4.7130 C.3   111  ALA111      0.0304
     65  N         34.4060  -18.6940    4.1640 N.am  112  LEU112     -0.1980
     66  CA        33.6710  -17.3780    4.1390 C.3   112  LEU112      0.1596
     67  C         33.7440  -16.7340    2.7460 C.2   112  LEU112      0.2287
     68  O         32.9120  -15.8570    2.4510 O.2   112  LEU112     -0.2864
     69  CB        34.1480  -16.3740    5.1920 C.3   112  LEU112      0.0297
     70  CG        33.4230  -16.5180    6.5780 C.3   112  LEU112      0.0022
     71  CD1       33.9320  -17.7950    7.2190 C.3   112  LEU112      0.0001
     72  CD2       33.7410  -15.3290    7.4230 C.3   112  LEU112      0.0001
     73  N         30.4230  -16.4570    0.9340 N.3   115  LEU115     -0.1245
     74  CA        29.4460  -15.4000    1.2060 C.3   115  LEU115      0.1561
     75  C         29.4750  -14.2300    0.1910 C.2   115  LEU115      0.2260
     76  O         28.5880  -13.3590    0.2510 O.2   115  LEU115     -0.2867
     77  CB        29.6920  -14.7860    2.6070 C.3   115  LEU115      0.0270
     78  CG        29.5800  -15.8650    3.7270 C.3   115  LEU115      0.0019
     79  CD1       29.9260  -15.0700    5.0860 C.3   115  LEU115      0.0001
     80  CD2       28.2710  -16.5520    3.7570 C.3   115  LEU115      0.0001
     81  N         23.7170  -25.3940    2.2670 N.3   131  GLU131     -0.1231
     82  CA        23.7820  -26.2190    3.4910 C.3   131  GLU131      0.1699
     83  C         23.0710  -25.5150    4.6640 C.2   131  GLU131      0.2592
     84  O         23.3250  -24.2980    4.9360 O.2   131  GLU131     -0.2718
     85  CB        25.2530  -26.4410    3.8070 C.3   131  GLU131      0.0402
     86  CG        25.5470  -27.8420    4.2780 C.3   131  GLU131      0.1161
     87  CD        26.9790  -27.9130    4.8370 C.2   131  GLU131      0.3649
     88  OE1       27.9170  -27.5380    4.0860 O.co2 131  GLU131     -0.2457
     89  OE2       27.1380  -28.2990    6.0320 O.co2 131  GLU131     -0.2457
     90  N         22.1590  -26.2360    5.3360 N.am  132  ALA132     -0.1980
     91  CA        21.2860  -25.6370    6.3280 C.3   132  ALA132      0.1597
     92  C         22.0070  -25.5840    7.7320 C.2   132  ALA132      0.2287
     93  O         21.6240  -24.7210    8.5930 O.2   132  ALA132     -0.2864
     94  CB        19.9790  -26.4530    6.4730 C.3   132  ALA132      0.0319
@<TRIPOS>BOND
     1    75    76    2
     2    75    74    1
     3    73    74    1
     4    74    77    1
     5    81    82    1
     6    68    67    2
     7    77    78    1
     8    67    66    1
     9    63    62    2
    10    82    85    1
    11    82    83    1
    12    62    61    1
    13    62    65   am
    14    61    60    1
    15    61    64    1
    16    78    80    1
    17    78    79    1
    18    85    86    1
    19    88    87   ar
    20    66    65    1
    21    66    69    1
    22    41    39   ar
    23    41    43   ar
    24    86    87    1
    25    39    38   ar
    26    44    43    1
    27    47    48    2
    28    47    46    1
    29    43    42   ar
    30    83    84    2
    31    83    90   am
    32    87    89   ar
    33    38    37    1
    34    38    40   ar
    35    37    34    1
    36    69    70    1
    37    42    40   ar
    38    90    91    1
    39    55    54    2
    40    36    35    2
    41    46    45    1
    42    46    49    1
    43    54    53    1
    44    35    45   am
    45    35    34    1
    46    91    94    1
    47    91    92    1
    48    34    33    1
    49    50    49    1
    50    70    71    1
    51    70    72    1
    52    58    57    2
    53    49    51    1
    54    33    27   am
    55    53    52    1
    56    53    56    1
    57    92    93    2
    58    57    56    1
    59    57    59   am
    60     7     5    1
    61    27    28    2
    62    27    26    1
    63     6     5    1
    64    31    29    1
    65    24    23    2
    66     5     2    1
    67    26    29    1
    68    26    25    1
    69    29    30    1
    70    23    25   am
    71    23    22    1
    72     2     1    1
    73     2     3    1
    74    30    32    1
    75     4     3    2
    76     3     8   am
    77    22    21    1
    78    18    17    1
    79    18    19    1
    80     8     9    1
    81    20    19    2
    82     9    10    1
    83     9    12    1
    84    10    11    2
    85    12    13    1
    86    13    14    1
    87    14    15    1
    88    15    16    1
