@<TRIPOS>MOLECULE
tmp/3llrD00.pdb
 88 84 0 0 0
SMALL
GASTEIGER

@<TRIPOS>ATOM
      1  N         13.5220   56.6680   21.3370 N.3    16  GLY16      -0.1225
      2  CA        12.8360   57.9390   21.1130 C.3    16  GLY16       0.1811
      3  C         13.7740   59.1320   21.0540 C.2    16  GLY16       0.2280
      4  O         14.6820   59.2590   21.8740 O.2    16  GLY16      -0.2866
      5  N         14.2100   63.1610   21.2040 N.3    18  LEU18      -0.1245
      6  CA        13.8010   64.5340   21.5000 C.3    18  LEU18       0.1561
      7  C         14.9140   65.4920   21.0880 C.2    18  LEU18       0.2260
      8  O         16.0990   65.1510   21.1770 O.2    18  LEU18      -0.2867
      9  CB        13.4780   64.7080   22.9880 C.3    18  LEU18       0.0270
     10  CG        12.2410   64.0080   23.5620 C.3    18  LEU18       0.0019
     11  CD1       12.2050   64.1490   25.0740 C.3    18  LEU18       0.0001
     12  CD2       10.9480   64.5380   22.9450 C.3    18  LEU18       0.0001
     13  N         18.6860   65.8210   22.4840 N.3    21  PHE21      -0.1227
     14  CA        19.0240   64.6140   23.2360 C.3    21  PHE21       0.1736
     15  C         19.3490   63.4420   22.3130 C.2    21  PHE21       0.2596
     16  O         18.9350   63.4250   21.1510 O.2    21  PHE21      -0.2718
     17  CB        17.8850   64.2390   24.1920 C.3    21  PHE21       0.0547
     18  CG        17.6050   65.2790   25.2420 C.ar   21  PHE21      -0.0202
     19  CD1       18.3710   65.3380   26.4020 C.ar   21  PHE21      -0.0042
     20  CD2       16.5740   66.1990   25.0710 C.ar   21  PHE21      -0.0042
     21  CE1       18.1140   66.2980   27.3800 C.ar   21  PHE21      -0.0003
     22  CE2       16.3120   67.1660   26.0380 C.ar   21  PHE21      -0.0003
     23  CZ        17.0820   67.2150   27.1970 C.ar   21  PHE21      -0.0000
     24  N         20.1000   62.4750   22.8400 N.am   22  SER22      -0.1952
     25  CA        20.4220   61.2370   22.1270 C.3    22  SER22       0.1924
     26  C         19.1740   60.3770   21.9660 C.2    22  SER22       0.2314
     27  O         18.2120   60.5350   22.7210 O.2    22  SER22      -0.2863
     28  CB        21.4620   60.4300   22.9110 C.3    22  SER22       0.2116
     29  OG        22.6430   61.1720   23.1440 O.3    22  SER22      -0.2180
     30  N         17.0120   57.5660   22.8680 N.3    24  TRP24      -0.1241
     31  CA        16.9130   57.0860   24.2390 C.3    24  TRP24       0.1605
     32  C         15.8960   55.9520   24.3750 C.2    24  TRP24       0.2264
     33  O         14.8190   56.0110   23.7750 O.2    24  TRP24      -0.2867
     34  CB        16.5480   58.2460   25.1690 C.3    24  TRP24       0.0550
     35  CG        16.9060   57.9940   26.6020 C.ar   24  TRP24       0.0003
     36  CD1       16.1630   57.3160   27.5240 C.ar   24  TRP24       0.0946
     37  CD2       18.1000   58.4100   27.2770 C.ar   24  TRP24       0.0152
     38  NE1       16.8190   57.2780   28.7280 N.ar   24  TRP24      -0.2442
     39  CE2       18.0080   57.9460   28.6090 C.ar   24  TRP24       0.0810
     40  CE3       19.2390   59.1290   26.8860 C.ar   24  TRP24       0.0012
     41  CZ2       19.0110   58.1800   29.5560 C.ar   24  TRP24       0.0191
     42  CZ3       20.2370   59.3660   27.8310 C.ar   24  TRP24       0.0001
     43  CH2       20.1140   58.8900   29.1500 C.ar   24  TRP24       0.0015
     44  N         10.4220   56.9880   29.5980 N.3    48  TRP48      -0.1241
     45  CA        11.8370   56.7330   29.3570 C.3    48  TRP48       0.1605
     46  C         12.3970   55.8390   30.4500 C.2    48  TRP48       0.2264
     47  O         12.0670   56.0060   31.6270 O.2    48  TRP48      -0.2867
     48  CB        12.6350   58.0430   29.3150 C.3    48  TRP48       0.0550
     49  CG        12.0940   59.0800   28.3720 C.ar   48  TRP48       0.0003
     50  CD1       11.4370   60.2250   28.7100 C.ar   48  TRP48       0.0946
     51  CD2       12.1560   59.0620   26.9380 C.ar   48  TRP48       0.0152
     52  NE1       11.0920   60.9260   27.5820 N.ar   48  TRP48      -0.2442
     53  CE2       11.5200   60.2350   26.4790 C.ar   48  TRP48       0.0810
     54  CE3       12.6900   58.1710   25.9980 C.ar   48  TRP48       0.0012
     55  CZ2       11.3990   60.5400   25.1190 C.ar   48  TRP48       0.0191
     56  CZ3       12.5750   58.4750   24.6490 C.ar   48  TRP48       0.0001
     57  CH2       11.9340   59.6510   24.2210 C.ar   48  TRP48       0.0015
     58  N         15.2130   57.2580   34.1630 N.3    51  ASP51      -0.1239
     59  CA        14.5850   58.1300   35.1640 C.3    51  ASP51       0.1674
     60  C         13.0520   58.1360   35.1490 C.2    51  ASP51       0.2266
     61  O         12.4290   58.7750   35.9940 O.2    51  ASP51      -0.2867
     62  CB        15.1220   59.5640   35.0430 C.3    51  ASP51       0.1410
     63  CG        14.7190   60.2410   33.7410 C.2    51  ASP51       0.3668
     64  OD1       14.0710   59.5990   32.8860 O.co2  51  ASP51      -0.2456
     65  OD2       15.0570   61.4300   33.5730 O.co2  51  ASP51      -0.2456
     66  N         10.7430   59.4850   33.1440 N.3    53  LYS53      -0.1245
     67  CA        10.0030   60.6740   32.7160 C.3    53  LYS53       0.1561
     68  C          9.0550   60.3490   31.5650 C.2    53  LYS53       0.2260
     69  O          9.2780   59.3900   30.8190 O.2    53  LYS53      -0.2867
     70  CB        10.9630   61.7930   32.2970 C.3    53  LYS53       0.0271
     71  CG        11.6660   62.4910   33.4550 C.3    53  LYS53       0.0035
     72  CD        12.5270   63.6400   32.9520 C.3    53  LYS53       0.0206
     73  CE        13.2640   64.3290   34.0880 C.3    53  LYS53       0.1093
     74  NZ        14.1870   65.3770   33.5670 N.3    53  LYS53      -0.1314
     75  N          7.1080   61.7460   28.0310 N.3    55  SER55      -0.1217
     76  CA         7.1720   62.7090   26.9390 C.3    55  SER55       0.1889
     77  C          6.2550   62.3000   25.7940 C.2    55  SER55       0.2288
     78  O          6.1050   61.1110   25.5010 O.2    55  SER55      -0.2866
     79  CB         8.6070   62.8500   26.4160 C.3    55  SER55       0.2089
     80  OG         9.5070   63.2250   27.4460 O.3    55  SER55      -0.2183
     81  N         23.2250   57.3400   33.5230 N.3    82  MET82      -0.1245
     82  CA        21.7850   57.1350   33.3470 C.3    82  MET82       0.1570
     83  C         21.4530   56.4360   32.0280 C.2    82  MET82       0.2261
     84  O         20.4820   55.6810   31.9530 O.2    82  MET82      -0.2867
     85  CB        20.9910   58.4330   33.4880 C.3    82  MET82       0.0387
     86  CG        19.5080   58.1770   33.7860 C.3    82  MET82       0.0595
     87  SD        18.5140   59.6670   33.9450 S.3    82  MET82      -0.1393
     88  CE        18.6490   60.3530   32.2970 C.3    82  MET82       0.0692
@<TRIPOS>BOND
     1     3     2    1
     2     3     4    2
     3     7     8    2
     4     7     6    1
     5     2     1    1
     6    16    15    2
     7     5     6    1
     8     6     9    1
     9    26    25    1
    10    26    27    2
    11    25    24    1
    12    25    28    1
    13    15    24   am
    14    15    14    1
    15    13    14    1
    16    30    31    1
    17    28    29    1
    18    12    10    1
    19     9    10    1
    20    14    17    1
    21    10    11    1
    22    33    32    2
    23    17    18    1
    24    57    56   ar
    25    57    55   ar
    26    31    32    1
    27    31    34    1
    28    56    54   ar
    29    20    18   ar
    30    20    22   ar
    31    55    53   ar
    32    34    35    1
    33    18    19   ar
    34    78    77    2
    35    77    76    1
    36    54    51   ar
    37    22    23   ar
    38    19    21   ar
    39    79    76    1
    40    79    80    1
    41    53    51   ar
    42    53    52   ar
    43    35    37   ar
    44    35    36   ar
    45    40    37   ar
    46    40    42   ar
    47    51    49   ar
    48    76    75    1
    49    23    21   ar
    50    37    39   ar
    51    36    38   ar
    52    52    50   ar
    53    42    43   ar
    54    49    50   ar
    55    49    48    1
    56    39    38   ar
    57    39    41   ar
    58    43    41   ar
    59    48    45    1
    60    45    44    1
    61    45    46    1
    62    46    47    2
    63    69    68    2
    64    68    67    1
    65    84    83    2
    66    83    82    1
    67    70    67    1
    68    70    71    1
    69    88    87    1
    70    67    66    1
    71    64    63   ar
    72    72    71    1
    73    72    73    1
    74    82    85    1
    75    82    81    1
    76    85    86    1
    77    74    73    1
    78    65    63   ar
    79    63    62    1
    80    86    87    1
    81    58    59    1
    82    62    59    1
    83    60    59    1
    84    60    61    2
