@<TRIPOS>MOLECULE
tmp/3lltA00.pdb
 195 181 0 0 0
SMALL
GASTEIGER

@<TRIPOS>ATOM
      1  N         66.1020  -33.4400    7.1710 N.3    24  MET24      -0.1230
      2  CA        65.4970  -34.2830    8.2050 C.3    24  MET24       0.1702
      3  C         64.3850  -35.1680    7.6460 C.2    24  MET24       0.2593
      4  O         64.2180  -36.3100    8.0760 O.2    24  MET24      -0.2718
      5  CB        64.9490  -33.4310    9.3510 C.3    24  MET24       0.0401
      6  CG        65.9700  -32.5060    9.9870 C.3    24  MET24       0.0596
      7  SD        65.4290  -31.8730   11.5810 S.3    24  MET24      -0.1393
      8  CE        65.9080  -33.2230   12.6600 C.3    24  MET24       0.0692
      9  N         63.6270  -34.6310    6.6920 N.am   25  GLY25      -0.1942
     10  CA        62.5390  -35.3690    6.0620 C.3    25  GLY25       0.2014
     11  C         61.7550  -34.5460    5.0600 C.2    25  GLY25       0.2639
     12  O         61.7970  -33.3120    5.0800 O.2    25  GLY25      -0.2714
     13  N         61.0370  -35.2400    4.1810 N.am   26  ASP26      -0.1957
     14  CA        60.2260  -34.6010    3.1530 C.3    26  ASP26       0.1840
     15  C         58.7540  -34.9480    3.3090 C.2    26  ASP26       0.2623
     16  O         58.4040  -36.0780    3.6530 O.2    26  ASP26      -0.2715
     17  CB        60.6950  -35.0200    1.7550 C.3    26  ASP26       0.1450
     18  CG        61.9710  -34.3150    1.3220 C.2    26  ASP26       0.3671
     19  OD1       62.1220  -33.1070    1.6010 O.co2  26  ASP26      -0.2456
     20  OD2       62.8210  -34.9710    0.6840 O.co2  26  ASP26      -0.2456
     21  N         57.9000  -33.9590    3.0650 N.am   27  GLY27      -0.1940
     22  CA        56.4700  -34.1890    2.9140 C.3    27  GLY27       0.2014
     23  C         56.0970  -34.0150    1.4540 C.2    27  GLY27       0.2640
     24  O         56.9340  -34.2030    0.5640 O.2    27  GLY27      -0.2714
     25  N         54.8430  -33.6580    1.2020 N.am   28  THR28      -0.1936
     26  CA        54.4040  -33.3430   -0.1550 C.3    28  THR28       0.2028
     27  C         54.3690  -31.8280   -0.3510 C.2    28  THR28       0.2642
     28  O         54.3850  -31.3370   -1.4840 O.2    28  THR28      -0.2714
     29  CB        53.0190  -33.9600   -0.4870 C.3    28  THR28       0.1808
     30  OG1       52.0150  -33.3750    0.3500 O.3    28  THR28      -0.2208
     31  CG2       53.0270  -35.4740   -0.2830 C.3    28  THR28       0.0379
     32  N         54.3370  -31.0960    0.7610 N.am   29  PHE29      -0.1959
     33  CA        54.2460  -29.6360    0.7370 C.3    29  PHE29       0.1771
     34  C         55.5490  -28.9500    1.1490 C.2    29  PHE29       0.2620
     35  O         55.8880  -27.8870    0.6240 O.2    29  PHE29      -0.2715
     36  CB        53.0970  -29.1440    1.6290 C.3    29  PHE29       0.0574
     37  CG        51.7800  -29.8220    1.3600 C.ar   29  PHE29      -0.0200
     38  CD1       51.2570  -30.7350    2.2730 C.ar   29  PHE29      -0.0042
     39  CD2       51.0610  -29.5510    0.1980 C.ar   29  PHE29      -0.0042
     40  CE1       50.0360  -31.3710    2.0350 C.ar   29  PHE29      -0.0003
     41  CE2       49.8380  -30.1820   -0.0500 C.ar   29  PHE29      -0.0003
     42  CZ        49.3260  -31.0930    0.8710 C.ar   29  PHE29      -0.0000
     43  N         56.2710  -29.5550    2.0880 N.am   30  GLY30      -0.1954
     44  CA        57.4750  -28.9430    2.6340 C.3    30  GLY30       0.1869
     45  C         58.6620  -29.8710    2.7930 C.2    30  GLY30       0.2309
     46  O         58.5050  -31.0810    2.9690 O.2    30  GLY30      -0.2863
     47  N         61.9360  -30.3760    5.2450 N.3    32  VAL32      -0.1245
     48  CA        62.3860  -30.0100    6.5890 C.3    32  VAL32       0.1561
     49  C         63.8970  -30.1820    6.7360 C.2    32  VAL32       0.2260
     50  O         64.4180  -31.2950    6.6510 O.2    32  VAL32      -0.2867
     51  CB        61.6250  -30.7990    7.6870 C.3    32  VAL32       0.0252
     52  CG1       62.1210  -30.4190    9.0760 C.3    32  VAL32       0.0019
     53  CG2       60.1290  -30.5460    7.5780 C.3    32  VAL32       0.0019
     54  N         64.3600  -27.2120   13.3430 N.3    45  ALA45      -0.1245
     55  CA        63.8720  -27.8690   12.1420 C.3    45  ALA45       0.1562
     56  C         63.1150  -26.8340   11.3140 C.2    45  ALA45       0.2260
     57  O         62.0820  -26.3150   11.7450 O.2    45  ALA45      -0.2867
     58  CB        62.9760  -29.0410   12.5020 C.3    45  ALA45       0.0290
     59  N         60.9890  -26.0050    8.0830 N.3    47  LYS47      -0.1245
     60  CA        60.1750  -26.5240    6.9920 C.3    47  LYS47       0.1561
     61  C         60.0560  -25.4860    5.8830 C.2    47  LYS47       0.2260
     62  O         59.4230  -24.4440    6.0570 O.2    47  LYS47      -0.2867
     63  CB        58.7920  -26.9630    7.4870 C.3    47  LYS47       0.0271
     64  CG        57.9530  -27.6640    6.4180 C.3    47  LYS47       0.0035
     65  CD        56.8280  -28.4980    7.0150 C.3    47  LYS47       0.0206
     66  CE        55.6030  -27.6580    7.3440 C.3    47  LYS47       0.1093
     67  NZ        54.4660  -28.5140    7.7800 N.3    47  LYS47      -0.1314
     68  N         58.4580  -24.6280    2.5540 N.3    49  VAL49      -0.1245
     69  CA        57.2980  -24.9640    1.7260 C.3    49  VAL49       0.1561
     70  C         57.5650  -24.6080    0.2620 C.2    49  VAL49       0.2260
     71  O         58.2420  -23.6240   -0.0290 O.2    49  VAL49      -0.2867
     72  CB        56.0120  -24.2530    2.2380 C.3    49  VAL49       0.0252
     73  CG1       54.7790  -24.7150    1.4660 C.3    49  VAL49       0.0019
     74  CG2       55.8190  -24.5060    3.7300 C.3    49  VAL49       0.0019
     75  N         48.4680  -22.9100    8.5360 N.3    62  GLU62      -0.1245
     76  CA        49.1900  -23.8470    9.3900 C.3    62  GLU62       0.1567
     77  C         49.9730  -23.1150   10.4820 C.2    62  GLU62       0.2260
     78  O         49.9370  -23.5130   11.6470 O.2    62  GLU62      -0.2867
     79  CB        50.1290  -24.7170    8.5540 C.3    62  GLU62       0.0388
     80  CG        50.7720  -25.8630    9.3280 C.3    62  GLU62       0.1160
     81  CD        51.9390  -26.4980    8.5930 C.2    62  GLU62       0.3649
     82  OE1       52.0710  -26.2890    7.3660 O.co2  62  GLU62      -0.2457
     83  OE2       52.7260  -27.2150    9.2480 O.co2  62  GLU62      -0.2457
     84  N         54.2490  -30.3700   18.7560 N.3    80  VAL80      -0.1245
     85  CA        55.5070  -29.8270   18.2350 C.3    80  VAL80       0.1561
     86  C         55.6350  -28.3390   18.5630 C.2    80  VAL80       0.2260
     87  O         54.6970  -27.5650   18.3540 O.2    80  VAL80      -0.2867
     88  CB        55.6880  -30.0880   16.6990 C.3    80  VAL80       0.0252
     89  CG1       54.6030  -29.3950   15.8690 C.3    80  VAL80       0.0019
     90  CG2       57.0780  -29.6700   16.2300 C.3    80  VAL80       0.0019
     91  N         60.5320  -24.9600   13.6380 N.3    96  PHE96      -0.1227
     92  CA        60.1340  -25.9290   14.6490 C.3    96  PHE96       0.1736
     93  C         61.3110  -26.3260   15.5290 C.2    96  PHE96       0.2595
     94  O         62.4650  -26.0180   15.2190 O.2    96  PHE96      -0.2718
     95  CB        59.5720  -27.1900   13.9880 C.3    96  PHE96       0.0547
     96  CG        58.3470  -26.9550   13.1560 C.ar   96  PHE96      -0.0202
     97  CD1       58.4460  -26.8140   11.7750 C.ar   96  PHE96      -0.0042
     98  CD2       57.0880  -26.8930   13.7490 C.ar   96  PHE96      -0.0042
     99  CE1       57.3110  -26.6060   10.9940 C.ar   96  PHE96      -0.0003
    100  CE2       55.9490  -26.6860   12.9790 C.ar   96  PHE96      -0.0003
    101  CZ        56.0610  -26.5410   11.5960 C.ar   96  PHE96      -0.0000
    102  N         61.0040  -27.0110   16.6290 N.am   97  GLU97      -0.1979
    103  CA        62.0120  -27.7150   17.4150 C.3    97  GLU97       0.1602
    104  C         62.4920  -28.9350   16.6200 C.2    97  GLU97       0.2287
    105  O         61.7110  -29.5240   15.8670 O.2    97  GLU97      -0.2864
    106  CB        61.4320  -28.1590   18.7640 C.3    97  GLU97       0.0415
    107  CG        60.3040  -29.1930   18.6580 C.3    97  GLU97       0.1163
    108  CD        59.8190  -29.7010   20.0050 C.2    97  GLU97       0.3649
    109  OE1       58.5940  -29.9120   20.1450 O.co2  97  GLU97      -0.2457
    110  OE2       60.6540  -29.8920   20.9180 O.co2  97  GLU97      -0.2457
    111  N         63.1830  -32.7310   16.1100 N.3    99  LEU99      -0.1231
    112  CA        62.6480  -33.9570   16.6980 C.3    99  LEU99       0.1693
    113  C         63.2760  -35.2060   16.0810 C.2    99  LEU99       0.2592
    114  O         63.9500  -35.1270   15.0540 O.2    99  LEU99      -0.2718
    115  CB        61.1200  -33.9930   16.5630 C.3    99  LEU99       0.0284
    116  CG        60.3100  -32.9050   17.2790 C.3    99  LEU99       0.0019
    117  CD1       58.8690  -32.9040   16.7930 C.3    99  LEU99       0.0001
    118  CD2       60.3640  -33.0590   18.7950 C.3    99  LEU99       0.0001
    119  N         63.0550  -36.3540   16.7180 N.am  100  GLY100     -0.1957
    120  CA        63.5740  -37.6300   16.2290 C.3   100  GLY100      0.1869
    121  C         62.7220  -38.2410   15.1310 C.2   100  GLY100      0.2309
    122  O         61.8680  -37.5630   14.5600 O.2   100  GLY100     -0.2863
    123  N         59.8700  -40.6570   13.1730 N.3   102  SER102     -0.1217
    124  CA        58.4730  -40.9900   13.4260 C.3   102  SER102      0.1889
    125  C         58.3530  -42.4000   13.9930 C.2   102  SER102      0.2288
    126  O         59.2690  -43.2170   13.8490 O.2   102  SER102     -0.2866
    127  CB        57.6440  -40.8730   12.1450 C.3   102  SER102      0.2089
    128  OG        57.8190  -42.0090   11.3210 O.3   102  SER102     -0.2183
    129  N         58.7500  -44.7990   11.1490 N.3   105  GLU105     -0.1245
    130  CA        60.1490  -45.0710   10.8140 C.3   105  GLU105      0.1567
    131  C         60.7660  -46.1160   11.7410 C.2   105  GLU105      0.2260
    132  O         61.5280  -46.9700   11.2890 O.2   105  GLU105     -0.2867
    133  CB        60.9840  -43.7890   10.8600 C.3   105  GLU105      0.0388
    134  CG        60.6400  -42.7610    9.7920 C.3   105  GLU105      0.1160
    135  CD        61.4740  -41.4960    9.9190 C.2   105  GLU105      0.3649
    136  OE1       60.8890  -40.4140   10.1590 O.co2 105  GLU105     -0.2457
    137  OE2       62.7180  -41.5880    9.7940 O.co2 105  GLU105     -0.2457
    138  N         44.6440  -35.6050   10.5880 N.3   143  ASP143     -0.1239
    139  CA        45.6750  -36.4000    9.9130 C.3   143  ASP143      0.1674
    140  C         46.5450  -37.2250   10.8720 C.2   143  ASP143      0.2266
    141  O         47.7730  -37.2520   10.7540 O.2   143  ASP143     -0.2867
    142  CB        46.5350  -35.5090    9.0050 C.3   143  ASP143      0.1410
    143  CG        47.2670  -36.2960    7.9270 C.2   143  ASP143      0.3668
    144  OD1       46.8750  -37.4500    7.6430 O.co2 143  ASP143     -0.2456
    145  OD2       48.2390  -35.7540    7.3590 O.co2 143  ASP143     -0.2456
    146  N         48.3600  -40.2900   12.1830 N.3   145  LYS145     -0.1245
    147  CA        49.0130  -41.4910   11.6710 C.3   145  LYS145      0.1561
    148  C         50.4080  -41.5740   12.2870 C.2   145  LYS145      0.2260
    149  O         50.9390  -40.5530   12.7250 O.2   145  LYS145     -0.2867
    150  CB        49.0760  -41.4880   10.1340 C.3   145  LYS145      0.0271
    151  CG        49.6440  -40.2260    9.5030 C.3   145  LYS145      0.0035
    152  CD        49.6360  -40.3440    7.9910 C.3   145  LYS145      0.0206
    153  CE        50.2460  -39.1270    7.3260 C.3   145  LYS145      0.1093
    154  NZ        50.2450  -39.2860    5.8500 N.3   145  LYS145     -0.1314
    155  N         53.2310  -41.7020   11.0380 N.3   147  GLU147     -0.1231
    156  CA        54.1630  -40.8000   10.3550 C.3   147  GLU147      0.1699
    157  C         54.1400  -39.4020   10.9720 C.2   147  GLU147      0.2592
    158  O         55.1360  -38.6810   10.9190 O.2   147  GLU147     -0.2718
    159  CB        53.8490  -40.7020    8.8540 C.3   147  GLU147      0.0402
    160  CG        54.2020  -41.9420    8.0340 C.3   147  GLU147      0.1161
    161  CD        53.0540  -42.9360    7.9060 C.2   147  GLU147      0.3649
    162  OE1       53.0300  -43.6760    6.8990 O.co2 147  GLU147     -0.2457
    163  OE2       52.1750  -42.9860    8.7970 O.co2 147  GLU147     -0.2457
    164  N         52.9990  -39.0300   11.5470 N.am  148  ASN148     -0.1974
    165  CA        52.8190  -37.7060   12.1400 C.3   148  ASN148      0.1688
    166  C         53.0090  -37.6630   13.6560 C.2   148  ASN148      0.2292
    167  O         52.6830  -36.6690   14.3100 O.2   148  ASN148     -0.2864
    168  CB        51.4670  -37.1150   11.7330 C.3   148  ASN148      0.1181
    169  CG        51.4360  -36.6880   10.2780 C.2   148  ASN148      0.2629
    170  OD1       52.4780  -36.4420    9.6660 O.2   148  ASN148     -0.2716
    171  ND2       50.2370  -36.5950    9.7150 N.am  148  ASN148     -0.0877
    172  N         56.1540  -38.0360   16.1300 N.3   150  LEU150     -0.1245
    173  CA        57.6140  -38.1060   16.1680 C.3   150  LEU150      0.1561
    174  C         58.1540  -38.3520   17.5700 C.2   150  LEU150      0.2260
    175  O         57.5690  -37.9080   18.5590 O.2   150  LEU150     -0.2867
    176  CB        58.2500  -36.8340   15.5880 C.3   150  LEU150      0.0270
    177  CG        57.8950  -36.3200   14.1870 C.3   150  LEU150      0.0019
    178  CD1       58.8670  -35.2250   13.7900 C.3   150  LEU150      0.0001
    179  CD2       57.8900  -37.4180   13.1340 C.3   150  LEU150      0.0001
    180  N         52.8930  -33.7310   14.9010 N.3   185  ILE185     -0.1231
    181  CA        53.2520  -32.7760   13.8540 C.3   185  ILE185      0.1692
    182  C         52.1650  -32.7170   12.7790 C.2   185  ILE185      0.2592
    183  O         51.1430  -33.4010   12.8830 O.2   185  ILE185     -0.2718
    184  CB        54.6380  -33.0940   13.2060 C.3   185  ILE185      0.0266
    185  CG1       54.6020  -34.4140   12.4240 C.3   185  ILE185      0.0019
    186  CG2       55.7460  -33.0950   14.2630 C.3   185  ILE185      0.0020
    187  CD1       55.6250  -34.5080   11.3030 C.3   185  ILE185      0.0001
    188  N         52.3960  -31.8820   11.7640 N.am  186  ASP186     -0.1974
    189  CA        51.5940  -31.8460   10.5380 C.3   186  ASP186      0.1709
    190  C         50.1710  -31.3440   10.7790 C.2   186  ASP186      0.2293
    191  O         49.1990  -32.0820   10.6080 O.2   186  ASP186     -0.2864
    192  CB        51.5970  -33.2220    9.8550 C.3   186  ASP186      0.1436
    193  CG        51.3920  -33.1400    8.3520 C.2   186  ASP186      0.3671
    194  OD1       51.6510  -32.0740    7.7520 O.co2 186  ASP186     -0.2456
    195  OD2       50.9880  -34.1630    7.7650 O.co2 186  ASP186     -0.2456
@<TRIPOS>BOND
     1    28    27    2
     2    29    31    1
     3    29    26    1
     4    29    30    1
     5    27    26    1
     6    27    32   am
     7    26    25    1
     8    41    39   ar
     9    41    42   ar
    10    71    70    2
    11    39    37   ar
    12    70    69    1
    13    24    23    2
    14    35    34    2
    15    20    18   ar
    16    33    32    1
    17    33    34    1
    18    33    36    1
    19    42    40   ar
    20    34    43   am
    21    25    23   am
    22    18    19   ar
    23    18    17    1
    24    37    36    1
    25    37    38   ar
    26    23    22    1
    27    73    72    1
    28    69    72    1
    29    69    68    1
    30    17    14    1
    31    40    38   ar
    32    43    44    1
    33    72    74    1
    34    44    45    1
    35    45    46    2
    36    22    21    1
    37    21    15   am
    38    14    15    1
    39    14    13    1
    40    15    16    2
    41    13    11   am
    42    11    12    2
    43    11    10    1
    44    47    48    1
    45   154   153    1
    46    61    62    2
    47    61    60    1
    48    10     9    1
    49    64    65    1
    50    64    63    1
    51    48    49    1
    52    48    51    1
    53    50    49    2
    54     9     3   am
    55   162   161   ar
    56    60    63    1
    57    60    59    1
    58    65    66    1
    59     1     2    1
    60   153   152    1
    61    66    67    1
    62   145   143   ar
    63    82    81   ar
    64    53    51    1
    65   144   143   ar
    66     3     4    2
    67     3     2    1
    68    51    52    1
    69   194   193   ar
    70   195   193   ar
    71   161   160    1
    72   161   163   ar
    73   143   142    1
    74   152   151    1
    75   160   159    1
    76     2     5    1
    77   193   192    1
    78    75    76    1
    79    79    80    1
    80    79    76    1
    81    81    83   ar
    82    81    80    1
    83   159   156    1
    84   142   139    1
    85     5     6    1
    86    76    77    1
    87   151   150    1
    88   170   169    2
    89   171   169   am
    90   134   135    1
    91   134   133    1
    92   137   135   ar
    93   192   189    1
    94   139   138    1
    95   139   140    1
    96   135   136   ar
    97     6     7    1
    98   150   147    1
    99   169   168    1
   100   156   157    1
   101   156   155    1
   102    77    78    2
   103   189   190    1
   104   189   188    1
   105   191   190    2
   106   141   140    2
   107   130   133    1
   108   130   129    1
   109   130   131    1
   110   158   157    2
   111   157   164   am
   112    99   101   ar
   113    99    97   ar
   114   132   131    2
   115   187   185    1
   116    56    57    2
   117    56    55    1
   118   128   127    1
   119   164   165    1
   120     7     8    1
   121   101   100   ar
   122   147   146    1
   123   147   148    1
   124   168   165    1
   125   188   182   am
   126    97    96   ar
   127   165   166    1
   128    55    58    1
   129    55    54    1
   130   127   124    1
   131   148   149    2
   132   185   184    1
   133   182   183    2
   134   182   181    1
   135   100    98   ar
   136   179   177    1
   137    96    98   ar
   138    96    95    1
   139   123   124    1
   140   184   181    1
   141   184   186    1
   142   124   125    1
   143    91    92    1
   144   166   167    2
   145   178   177    1
   146   126   125    2
   147   181   180    1
   148    95    92    1
   149   177   176    1
   150   122   121    2
   151    92    93    1
   152   114   113    2
   153   121   120    1
   154    94    93    2
   155    93   102   am
   156   176   173    1
   157   105   104    2
   158    89    88    1
   159   113   112    1
   160   113   119   am
   161   111   112    1
   162   172   173    1
   163   173   174    1
   164   120   119    1
   165    90    88    1
   166   115   112    1
   167   115   116    1
   168   104   103    1
   169   102   103    1
   170    88    85    1
   171   117   116    1
   172   116   118    1
   173   103   106    1
   174   174   175    2
   175    85    86    1
   176    85    84    1
   177    87    86    2
   178   107   106    1
   179   107   108    1
   180   108   109   ar
   181   108   110   ar
