@<TRIPOS>MOLECULE
tmp/3lluA00.pdb
 182 176 0 0 0
SMALL
GASTEIGER

@<TRIPOS>ATOM
      1  N         35.8400    6.7700   27.7360 N.3    10  ARG10      -0.1231
      2  CA        36.8730    7.7210   28.1270 C.3    10  ARG10       0.1694
      3  C         37.3080    8.5500   26.9540 C.2    10  ARG10       0.2592
      4  O         37.4030    8.0750   25.8170 O.2    10  ARG10      -0.2718
      5  CB        38.0720    7.0400   28.7710 C.3    10  ARG10       0.0321
      6  CG        37.7550    6.4430   30.1650 C.3    10  ARG10       0.0489
      7  CD        39.0240    6.2530   31.0000 C.3    10  ARG10       0.2205
      8  NE        38.7230    5.8190   32.3640 N.pl3  10  ARG10      -0.0865
      9  CZ        38.3410    6.6260   33.3830 C.cat  10  ARG10       0.5346
     10  NH1       38.1320    7.9230   33.2130 N.pl3  10  ARG10       0.1354
     11  NH2       38.1170    6.1070   34.5860 N.pl3  10  ARG10       0.1354
     12  N         37.5600    9.8180   27.2480 N.am   11  ARG11      -0.1966
     13  CA        38.0410   10.8030   26.2770 C.3    11  ARG11       0.1729
     14  C         36.9850   11.3040   25.2880 C.2    11  ARG11       0.2617
     15  O         37.3150   12.0640   24.3880 O.2    11  ARG11      -0.2715
     16  CB        39.2990   10.3620   25.5140 C.3    11  ARG11       0.0348
     17  CG        40.5370   10.1530   26.3560 C.3    11  ARG11       0.0492
     18  CD        41.7090    9.6590   25.5130 C.3    11  ARG11       0.2205
     19  NE        41.4640    8.4070   24.8190 N.pl3  11  ARG11      -0.0865
     20  CZ        41.1240    7.2460   25.3640 C.cat  11  ARG11       0.5346
     21  NH1       41.0080    7.1260   26.6840 N.pl3  11  ARG11       0.1354
     22  NH2       40.8650    6.1950   24.6000 N.pl3  11  ARG11       0.1354
     23  N         35.7310   10.9000   25.4680 N.am   12  SER12      -0.1936
     24  CA        34.6910   11.3420   24.5510 C.3    12  SER12       0.2055
     25  C         34.3870   12.8250   24.6940 C.2    12  SER12       0.2644
     26  O         33.8950   13.4260   23.7460 O.2    12  SER12      -0.2714
     27  CB        33.4480   10.4890   24.7150 C.3    12  SER12       0.2130
     28  OG        32.9630   10.4470   26.0580 O.3    12  SER12      -0.2179
     29  N         34.6030   13.3930   25.9000 N.am   13  GLY13      -0.1939
     30  CA        34.4190   14.8250   26.1370 C.3    13  GLY13       0.2014
     31  C         33.4090   15.2170   27.1740 C.2    13  GLY13       0.2639
     32  O         33.0290   16.3560   27.2200 O.2    13  GLY13      -0.2714
     33  N         32.9740   14.2710   27.9920 N.am   14  LYS14      -0.1963
     34  CA        31.9520   14.4830   29.0060 C.3    14  LYS14       0.1728
     35  C         32.2910   15.6290   29.9310 C.2    14  LYS14       0.2617
     36  O         31.4820   16.5400   30.1330 O.2    14  LYS14      -0.2715
     37  CB        31.7590   13.1920   29.8010 C.3    14  LYS14       0.0311
     38  CG        31.2750   12.0130   28.9940 C.3    14  LYS14       0.0038
     39  CD        31.1520   10.7290   29.8200 C.3    14  LYS14       0.0206
     40  CE        32.4400   10.2530   30.4360 C.3    14  LYS14       0.1093
     41  NZ        33.4400    9.8350   29.4160 N.3    14  LYS14      -0.1314
     42  N         33.4640   15.5670   30.5540 N.am   15  SER15      -0.1936
     43  CA        33.8000   16.5680   31.5580 C.3    15  SER15       0.2055
     44  C         33.9840   17.9600   30.9250 C.2    15  SER15       0.2643
     45  O         33.5860   19.0050   31.4970 O.2    15  SER15      -0.2714
     46  CB        35.0400   16.1760   32.3160 C.3    15  SER15       0.2130
     47  OG        34.8620   14.9300   33.0070 O.3    15  SER15      -0.2179
     48  N         34.5530   17.9790   29.7220 N.am   16  SER16      -0.1949
     49  CA        34.7040   19.2110   28.9290 C.3    16  SER16       0.1924
     50  C         33.3590   19.8680   28.7060 C.2    16  SER16       0.2314
     51  O         33.2060   21.0850   28.8120 O.2    16  SER16      -0.2863
     52  CB        35.3410   18.8690   27.5760 C.3    16  SER16       0.2116
     53  OG        36.6780   18.3890   27.7050 O.3    16  SER16      -0.2180
     54  N         37.1460   26.3970   26.0980 N.3    27  PRO27      -0.2116
     55  CA        37.4010   25.0950   25.4980 C.3    27  PRO27       0.1372
     56  C         38.8880   24.7170   25.4280 C.2    27  PRO27       0.2244
     57  O         39.2240   23.5700   25.6110 O.2    27  PRO27      -0.2868
     58  CB        36.7650   25.2070   24.1220 C.3    27  PRO27       0.0268
     59  CG        36.3140   26.5740   23.9650 C.3    27  PRO27       0.0207
     60  CD        36.3350   27.2780   25.2470 C.3    27  PRO27       0.0892
     61  N         40.2150   22.8100   28.4480 N.3    30  THR30      -0.1203
     62  CA        39.7310   21.4400   28.7000 C.3    30  THR30       0.1994
     63  C         40.7660   20.3830   28.3260 C.2    30  THR30       0.2617
     64  O         40.6870   19.2430   28.7810 O.2    30  THR30      -0.2717
     65  CB        38.4260   21.1260   27.9510 C.3    30  THR30       0.1784
     66  OG1       38.6370   21.1010   26.5270 O.3    30  THR30      -0.2211
     67  CG2       37.2900   22.0880   28.3320 C.3    30  THR30       0.0376
     68  N         41.7560   20.7550   27.5250 N.am   31  LEU31      -0.1979
     69  CA        42.8380   19.8270   27.2000 C.3    31  LEU31       0.1596
     70  C         43.5460   19.2880   28.4550 C.2    31  LEU31       0.2287
     71  O         44.1670   18.2090   28.4160 O.2    31  LEU31      -0.2864
     72  CB        43.8980   20.5060   26.3050 C.3    31  LEU31       0.0297
     73  CG        43.4820   20.8010   24.8800 C.3    31  LEU31       0.0022
     74  CD1       44.4110   21.8070   24.2630 C.3    31  LEU31       0.0001
     75  CD2       43.4050   19.5470   24.0410 C.3    31  LEU31       0.0001
     76  N         42.1150   18.6850   31.4800 N.3    33  LEU33      -0.1231
     77  CA        41.2520   17.9590   32.4100 C.3    33  LEU33       0.1693
     78  C         41.8260   16.5790   32.7210 C.2    33  LEU33       0.2592
     79  O         42.2880   15.8700   31.8470 O.2    33  LEU33      -0.2718
     80  CB        39.8320   17.8360   31.8840 C.3    33  LEU33       0.0284
     81  CG        39.0550   19.1490   31.8330 C.3    33  LEU33       0.0019
     82  CD1       37.7600   18.9620   31.0570 C.3    33  LEU33       0.0001
     83  CD2       38.8160   19.6780   33.2870 C.3    33  LEU33       0.0001
     84  N         41.7970   16.2190   33.9930 N.am   34  GLU34      -0.1966
     85  CA        42.1130   14.8490   34.3860 C.3    34  GLU34       0.1733
     86  C         41.0080   13.8800   33.9900 C.2    34  GLU34       0.2617
     87  O         39.8280   14.2450   33.9740 O.2    34  GLU34      -0.2715
     88  CB        42.3170   14.8420   35.9030 C.3    34  GLU34       0.0429
     89  CG        42.7670   13.5640   36.4990 C.3    34  GLU34       0.1163
     90  CD        44.0460   13.0510   35.8590 C.2    34  GLU34       0.3649
     91  OE1       45.1420   13.4050   36.3550 O.co2  34  GLU34      -0.2457
     92  OE2       43.9640   12.3130   34.8360 O.co2  34  GLU34      -0.2457
     93  N         41.3810   12.6520   33.7200 N.am   35  SER35      -0.1936
     94  CA        40.4080   11.5940   33.5110 C.3    35  SER35       0.2055
     95  C         39.6030   11.3970   34.7910 C.2    35  SER35       0.2643
     96  O         40.1450   11.4150   35.8920 O.2    35  SER35      -0.2714
     97  CB        41.1090   10.2760   33.1620 C.3    35  SER35       0.2130
     98  OG        42.0400   10.4800   32.1030 O.3    35  SER35      -0.2179
     99  N         38.3000   11.2240   34.6320 N.am   36  THR36      -0.1950
    100  CA        37.3830   11.2020   35.7590 C.3    36  THR36       0.1897
    101  C         37.3420    9.8390   36.4210 C.2    36  THR36       0.2313
    102  O         37.1910    8.8290   35.7380 O.2    36  THR36      -0.2863
    103  CB        35.9710   11.6540   35.2720 C.3    36  THR36       0.1794
    104  OG1       36.1030   12.9300   34.5890 O.3    36  THR36      -0.2208
    105  CG2       34.9720   11.7190   36.3860 C.3    36  THR36       0.0378
    106  N         30.0560   11.0370   34.6710 N.3    57  PHE57      -0.1241
    107  CA        30.5900    9.7110   34.9740 C.3    57  PHE57       0.1605
    108  C         32.0310    9.5270   34.4750 C.2    57  PHE57       0.2264
    109  O         32.4000   10.0570   33.4300 O.2    57  PHE57      -0.2867
    110  CB        29.7160    8.6300   34.3300 C.3    57  PHE57       0.0534
    111  CG        28.4570    8.3590   35.0620 C.ar   57  PHE57      -0.0203
    112  CD1       28.3300    7.2420   35.8720 C.ar   57  PHE57      -0.0042
    113  CD2       27.3800    9.1920   34.9260 C.ar   57  PHE57      -0.0042
    114  CE1       27.1360    6.9780   36.5280 C.ar   57  PHE57      -0.0003
    115  CE2       26.1870    8.9180   35.6410 C.ar   57  PHE57      -0.0003
    116  CZ        26.1000    7.8230   36.4040 C.ar   57  PHE57      -0.0000
    117  N         34.4260    7.5030   32.2450 N.3    59  GLY59      -0.1225
    118  CA        34.1400    6.8410   31.0000 C.3    59  GLY59       0.1811
    119  C         34.0210    5.3600   31.1970 C.2    59  GLY59       0.2280
    120  O         34.6690    4.7840   32.0720 O.2    59  GLY59      -0.2866
    121  N         35.4890   12.0730   15.9770 N.3    87  GLN87      -0.1245
    122  CA        36.7900   12.0240   15.3150 C.3    87  GLN87       0.1566
    123  C         37.5020   10.6850   15.4270 C.2    87  GLN87       0.2260
    124  O         38.5100   10.4770   14.7620 O.2    87  GLN87      -0.2867
    125  CB        37.6910   13.1200   15.8780 C.3    87  GLN87       0.0367
    126  CG        37.2250   14.5070   15.5400 C.3    87  GLN87       0.0905
    127  CD        38.2470   15.5760   15.9920 C.2    87  GLN87       0.2608
    128  OE1       39.4650   15.3610   15.9110 O.2    87  GLN87      -0.2717
    129  NE2       37.7690   16.7270   16.3910 N.am   87  GLN87      -0.0878
    130  N         29.9870   14.1310   19.0270 N.3   118  HIS118     -0.1226
    131  CA        30.7530   15.2240   19.6050 C.3   118  HIS118      0.1752
    132  C         32.1350   15.3980   18.9610 C.2   118  HIS118      0.2595
    133  O         32.6220   14.5190   18.2660 O.2   118  HIS118     -0.2718
    134  CB        30.8250   14.9810   21.1200 C.3   118  HIS118      0.0759
    135  CG        31.3780   16.1160   21.9060 C.ar  118  HIS118      0.0818
    136  ND1       30.8270   17.3790   21.8960 N.ar  118  HIS118     -0.2268
    137  CD2       32.4770   16.1790   22.6830 C.ar  118  HIS118      0.1154
    138  CE1       31.5530   18.1670   22.6730 C.ar  118  HIS118      0.1986
    139  NE2       32.5690   17.4630   23.1610 N.ar  118  HIS118     -0.2212
    140  N         32.7350   16.5620   19.1920 N.am  119  LYS119     -0.1980
    141  CA        34.0060   16.9490   18.6160 C.3   119  LYS119      0.1596
    142  C         33.9160   17.1730   17.1070 C.2   119  LYS119      0.2287
    143  O         34.8550   16.9560   16.3650 O.2   119  LYS119     -0.2864
    144  CB        35.1650   15.9830   18.9660 C.3   119  LYS119      0.0298
    145  CG        35.2590   15.5600   20.3910 C.3   119  LYS119      0.0038
    146  CD        36.6020   14.9480   20.6930 C.3   119  LYS119      0.0206
    147  CE        36.7380   14.3500   22.1090 C.3   119  LYS119      0.1093
    148  NZ        38.0300   13.6050   22.2590 N.3   119  LYS119     -0.1314
    149  N         33.9620   19.8200   15.4090 N.3   121  ASP121     -0.1239
    150  CA        34.8520   20.8600   14.9000 C.3   121  ASP121      0.1674
    151  C         35.9740   20.2730   14.0310 C.2   121  ASP121      0.2266
    152  O         36.4430   20.9530   13.1290 O.2   121  ASP121     -0.2867
    153  CB        35.4580   21.6700   16.0660 C.3   121  ASP121      0.1410
    154  CG        36.0490   20.7670   17.1260 C.2   121  ASP121      0.3668
    155  OD1       35.2960   20.2200   17.9550 O.co2 121  ASP121     -0.2456
    156  OD2       37.2760   20.6000   17.1650 O.co2 121  ASP121     -0.2456
    157  N         30.0710   20.4420   19.5270 N.3   159  SER159     -0.1202
    158  CA        31.4620   20.8150   19.7590 C.3   159  SER159      0.2020
    159  C         31.5030   21.8120   20.8930 C.2   159  SER159      0.2619
    160  O         30.6510   22.7070   20.9640 O.2   159  SER159     -0.2717
    161  CB        32.0500   21.4500   18.5130 C.3   159  SER159      0.2103
    162  OG        33.3570   21.9590   18.7280 O.3   159  SER159     -0.2182
    163  N         32.5160   21.6840   21.7380 N.am  160  ILE160     -0.1965
    164  CA        32.7460   22.6950   22.7490 C.3   160  ILE160      0.1727
    165  C         33.3090   23.9980   22.1960 C.2   160  ILE160      0.2616
    166  O         33.3470   24.9950   22.9240 O.2   160  ILE160     -0.2715
    167  CB        33.6870   22.2070   23.9070 C.3   160  ILE160      0.0290
    168  CG1       35.1080   21.9330   23.3860 C.3   160  ILE160      0.0022
    169  CG2       33.0670   21.0190   24.6670 C.3   160  ILE160      0.0023
    170  CD1       36.1250   21.5880   24.5100 C.3   160  ILE160      0.0001
    171  N         33.6860   24.0130   20.9100 N.am  161  TYR161     -0.1974
    172  CA        34.3470   25.1730   20.3010 C.3   161  TYR161      0.1639
    173  C         33.3610   26.1080   19.6140 C.2   161  TYR161      0.2290
    174  O         33.7710   27.0940   19.0050 O.2   161  TYR161     -0.2864
    175  CB        35.4520   24.7340   19.3290 C.3   161  TYR161      0.0560
    176  CG        36.6780   24.2180   20.0750 C.ar  161  TYR161     -0.0198
    177  CD1       37.6300   25.0970   20.5340 C.ar  161  TYR161     -0.0009
    178  CD2       36.8430   22.8550   20.3630 C.ar  161  TYR161     -0.0009
    179  CE1       38.7130   24.6450   21.2660 C.ar  161  TYR161      0.0417
    180  CE2       37.9230   22.4050   21.0840 C.ar  161  TYR161      0.0417
    181  CZ        38.8680   23.2900   21.5170 C.ar  161  TYR161      0.1957
    182  OH        39.9600   22.8560   22.2470 O.3   161  TYR161     -0.2866
@<TRIPOS>BOND
     1   152   151    2
     2   151   150    1
     3   124   123    2
     4   150   149    1
     5   150   153    1
     6   122   123    1
     7   122   125    1
     8   122   121    1
     9   126   125    1
    10   126   127    1
    11   128   127    2
    12   127   129   am
    13   153   154    1
    14   143   142    2
    15   142   141    1
    16   154   156   ar
    17   154   155   ar
    18   133   132    2
    19   161   162    1
    20   161   158    1
    21   141   144    1
    22   141   140    1
    23   132   140   am
    24   132   131    1
    25   144   145    1
    26   174   173    2
    27   130   131    1
    28   175   176    1
    29   175   172    1
    30   157   158    1
    31   131   134    1
    32   173   172    1
    33   158   159    1
    34   176   178   ar
    35   176   177   ar
    36   172   171    1
    37   178   180   ar
    38   145   146    1
    39   177   179   ar
    40   146   147    1
    41   159   160    2
    42   159   163   am
    43   171   165   am
    44   180   181   ar
    45   134   135    1
    46   179   181   ar
    47   181   182    1
    48   163   164    1
    49   136   135   ar
    50   136   138   ar
    51   135   137   ar
    52   147   148    1
    53   165   164    1
    54   165   166    2
    55   138   139   ar
    56   137   139   ar
    57   164   167    1
    58   168   167    1
    59   168   170    1
    60    26    25    2
    61   167   169    1
    62    59    58    1
    63    59    60    1
    64    75    73    1
    65    58    55    1
    66    74    73    1
    67    15    14    2
    68    24    25    1
    69    24    27    1
    70    24    23    1
    71    22    20    1
    72    25    29   am
    73    27    28    1
    74    19    20    2
    75    19    18    1
    76    73    72    1
    77    60    54    1
    78    14    23   am
    79    14    13    1
    80    20    21    1
    81    56    55    1
    82    56    57    2
    83    55    54    1
    84    18    17    1
    85    16    13    1
    86    16    17    1
    87     4     3    2
    88    29    30    1
    89    30    31    1
    90    13    12    1
    91    72    69    1
    92    66    65    1
    93     3    12   am
    94     3     2    1
    95    31    32    2
    96    31    33   am
    97    69    68    1
    98    69    70    1
    99    68    63   am
   100    52    53    1
   101    52    49    1
   102     1     2    1
   103    65    67    1
   104    65    62    1
   105    33    34    1
   106     2     5    1
   107    63    62    1
   108    63    64    2
   109    71    70    2
   110    61    62    1
   111    50    51    2
   112    50    49    1
   113     5     6    1
   114    49    48    1
   115    38    37    1
   116    38    39    1
   117    34    37    1
   118    34    35    1
   119    41    40    1
   120    48    44   am
   121    39    40    1
   122    35    36    2
   123    35    42   am
   124     6     7    1
   125    42    43    1
   126    44    45    2
   127    44    43    1
   128   118   119    1
   129   118   117    1
   130     7     8    1
   131    82    81    1
   132   119   120    2
   133    76    77    1
   134    43    46    1
   135    81    80    1
   136    81    83    1
   137    79    78    2
   138    80    77    1
   139    98    97    1
   140    46    47    1
   141     8     9    2
   142    77    78    1
   143    78    84   am
   144    97    94    1
   145    10     9    1
   146     9    11    1
   147   109   108    2
   148    94    93    1
   149    94    95    1
   150    93    86   am
   151    87    86    2
   152    86    85    1
   153    84    85    1
   154   110   107    1
   155   110   111    1
   156    85    88    1
   157   108   107    1
   158   104   103    1
   159    99    95   am
   160    99   100    1
   161   106   107    1
   162    95    96    2
   163    92    90   ar
   164   113   111   ar
   165   113   115   ar
   166   111   112   ar
   167   103   100    1
   168   103   105    1
   169   115   116   ar
   170   102   101    2
   171   100   101    1
   172    90    91   ar
   173    90    89    1
   174   112   114   ar
   175    88    89    1
   176   116   114   ar
