@<TRIPOS>MOLECULE
tmp/3lm0A00.pdb
 142 132 0 0 0
SMALL
GASTEIGER

@<TRIPOS>ATOM
      1  N         25.6400   50.5330   -0.0550 N.3    20  LYS20      -0.1245
      2  CA        25.9290   49.1360    0.1990 C.3    20  LYS20       0.1561
      3  C         24.8510   48.2880   -0.4900 C.2    20  LYS20       0.2260
      4  O         23.7450   48.1460    0.0290 O.2    20  LYS20      -0.2867
      5  CB        25.9790   48.8600    1.7170 C.3    20  LYS20       0.0271
      6  CG        26.5910   47.4870    2.1380 C.3    20  LYS20       0.0035
      7  CD        26.9420   47.4840    3.6470 C.3    20  LYS20       0.0206
      8  CE        27.9250   46.3780    4.0810 C.3    20  LYS20       0.1093
      9  NZ        27.3060   45.0660    4.5640 N.3    20  LYS20      -0.1314
     10  N         23.7100   44.7540   -1.0210 N.3    22  LEU22      -0.1231
     11  CA        23.8740   43.5240   -0.2300 C.3    22  LEU22       0.1693
     12  C         23.7980   42.2530   -1.0580 C.2    22  LEU22       0.2592
     13  O         24.4670   41.2710   -0.7360 O.2    22  LEU22      -0.2718
     14  CB        22.7900   43.4500    0.8650 C.3    22  LEU22       0.0284
     15  CG        22.8290   44.5880    1.8790 C.3    22  LEU22       0.0019
     16  CD1       21.5660   44.5950    2.7570 C.3    22  LEU22       0.0001
     17  CD2       24.1290   44.4610    2.7100 C.3    22  LEU22       0.0001
     18  N         22.9610   42.2310   -2.0890 N.am   23  GLY23      -0.1957
     19  CA        22.9190   41.0650   -2.9960 C.3    23  GLY23       0.1869
     20  C         22.2440   41.3380   -4.3240 C.2    23  GLY23       0.2309
     21  O         21.4200   42.2270   -4.4210 O.2    23  GLY23      -0.2863
     22  N         19.1610   43.3280   -3.4160 N.3    30  VAL30      -0.1245
     23  CA        18.9880   43.7980   -2.0660 C.3    30  VAL30       0.1561
     24  C         20.0090   44.8710   -1.8000 C.2    30  VAL30       0.2260
     25  O         21.2120   44.6890   -2.0340 O.2    30  VAL30      -0.2867
     26  CB        19.1560   42.6840   -1.0190 C.3    30  VAL30       0.0252
     27  CG1       18.7860   43.2340    0.3820 C.3    30  VAL30       0.0019
     28  CG2       18.3150   41.4940   -1.3670 C.3    30  VAL30       0.0019
     29  N         17.2260   46.2380    5.1790 N.3    43  ALA43      -0.1245
     30  CA        17.5780   45.6650    3.9000 C.3    43  ALA43       0.1562
     31  C         16.3400   45.7950    3.0350 C.2    43  ALA43       0.2260
     32  O         15.3130   45.2600    3.4020 O.2    43  ALA43      -0.2867
     33  CB        17.9180   44.2150    4.0800 C.3    43  ALA43       0.0290
     34  N         14.6390   44.6340   -0.2510 N.3    45  LYS45      -0.1245
     35  CA        14.7260   43.6170   -1.3060 C.3    45  LYS45       0.1561
     36  C         13.7440   43.9520   -2.4170 C.2    45  LYS45       0.2260
     37  O         12.5480   44.0020   -2.1730 O.2    45  LYS45      -0.2867
     38  CB        14.3970   42.2380   -0.7610 C.3    45  LYS45       0.0271
     39  CG        14.4200   41.1160   -1.7990 C.3    45  LYS45       0.0035
     40  CD        14.3790   39.7580   -1.0910 C.3    45  LYS45       0.0206
     41  CE        14.7950   38.5660   -1.9820 C.3    45  LYS45       0.1093
     42  NZ        14.0450   37.3130   -1.5410 N.3    45  LYS45      -0.1314
     43  N         13.9500   36.1310    9.6430 N.3    77  ILE77      -0.1245
     44  CA        14.1020   37.5450    9.3330 C.3    77  ILE77       0.1561
     45  C         12.7070   38.1970    9.4050 C.2    77  ILE77       0.2260
     46  O         11.6940   37.6020    8.9450 O.2    77  ILE77      -0.2867
     47  CB        14.7490   37.7160    7.9480 C.3    77  ILE77       0.0252
     48  CG1       15.4040   39.0810    7.7810 C.3    77  ILE77       0.0019
     49  CG2       13.7390   37.4160    6.8540 C.3    77  ILE77       0.0019
     50  CD1       16.6150   39.3570    8.7860 C.3    77  ILE77       0.0001
     51  N         13.1430   44.7320    5.0800 N.3    93  LEU93      -0.1231
     52  CA        13.4380   43.6170    5.9570 C.3    93  LEU93       0.1693
     53  C         14.4250   44.0420    7.0240 C.2    93  LEU93       0.2592
     54  O         15.2070   44.9660    6.8150 O.2    93  LEU93      -0.2718
     55  CB        13.9790   42.4650    5.1310 C.3    93  LEU93       0.0284
     56  CG        13.0660   41.7440    4.1090 C.3    93  LEU93       0.0019
     57  CD1       13.8780   41.1260    2.9900 C.3    93  LEU93       0.0001
     58  CD2       12.2470   40.6740    4.7710 C.3    93  LEU93       0.0001
     59  N         14.3260   43.4070    8.1960 N.am   94  GLU94      -0.1966
     60  CA        15.3360   43.4760    9.2540 C.3    94  GLU94       0.1733
     61  C         16.7340   43.3470    8.6600 C.2    94  GLU94       0.2616
     62  O         16.9930   42.4570    7.8310 O.2    94  GLU94      -0.2715
     63  CB        15.1100   42.2970   10.2070 C.3    94  GLU94       0.0429
     64  CG        16.1450   42.0840   11.3100 C.3    94  GLU94       0.1163
     65  CD        15.8170   40.8600   12.1900 C.2    94  GLU94       0.3649
     66  OE1       14.8750   40.1250   11.8110 O.co2  94  GLU94      -0.2457
     67  OE2       16.5210   40.6270   13.2380 O.co2  94  GLU94      -0.2457
     68  N         17.6340   44.2130    9.1060 N.am   95  TYR95      -0.1960
     69  CA        19.0350   44.1600    8.6950 C.3    95  TYR95       0.1771
     70  C         19.8150   43.2340    9.6080 C.2    95  TYR95       0.2619
     71  O         19.8300   43.4290   10.8280 O.2    95  TYR95      -0.2715
     72  CB        19.6420   45.5650    8.7760 C.3    95  TYR95       0.0574
     73  CG        21.0450   45.6750    8.2120 C.ar   95  TYR95      -0.0198
     74  CD1       21.2770   45.5190    6.8370 C.ar   95  TYR95      -0.0009
     75  CD2       22.1290   45.9440    9.0370 C.ar   95  TYR95      -0.0009
     76  CE1       22.5270   45.6040    6.3280 C.ar   95  TYR95       0.0417
     77  CE2       23.3910   46.0490    8.5270 C.ar   95  TYR95       0.0417
     78  CZ        23.5810   45.8790    7.1760 C.ar   95  TYR95       0.1957
     79  OH        24.8340   45.9770    6.6710 O.3    95  TYR95      -0.2866
     80  N         20.4220   42.2140    9.0160 N.am   96  ALA96      -0.1963
     81  CA        21.4010   41.3110    9.6440 C.3    96  ALA96       0.1728
     82  C         22.8520   41.7170    9.3120 C.2    96  ALA96       0.2616
     83  O         23.3990   41.3250    8.2740 O.2    96  ALA96      -0.2715
     84  CB        21.1560   39.9260    9.1960 C.3    96  ALA96       0.0334
     85  N         23.4670   42.4470   10.2340 N.am   97  ALA97      -0.1977
     86  CA        24.7540   43.1190   10.0110 C.3    97  ALA97       0.1597
     87  C         25.9530   42.1760   10.0030 C.2    97  ALA97       0.2287
     88  O         27.0590   42.5820    9.6590 O.2    97  ALA97      -0.2864
     89  CB        24.9710   44.2270   11.0830 C.3    97  ALA97       0.0319
     90  N         26.1040   39.4660    8.1840 N.3    99  GLY99      -0.1210
     91  CA        26.1970   38.7770    6.8950 C.3    99  GLY99       0.1956
     92  C         25.9260   37.2820    6.9950 C.2    99  GLY99       0.2611
     93  O         25.2520   36.8330    7.9100 O.2    99  GLY99      -0.2717
     94  N         26.4790   36.5130    6.0580 N.am  100  GLU100     -0.1979
     95  CA        26.0630   35.1350    5.8240 C.3   100  GLU100      0.1602
     96  C         26.8920   34.1730    6.6630 C.2   100  GLU100      0.2287
     97  O         28.0730   34.4180    6.8540 O.2   100  GLU100     -0.2864
     98  CB        26.2520   34.7770    4.3410 C.3   100  GLU100      0.0415
     99  CG        25.4830   35.6250    3.3460 C.3   100  GLU100      0.1163
    100  CD        25.8590   35.3340    1.8730 C.2   100  GLU100      0.3649
    101  OE1       25.1450   35.8310    0.9870 O.co2 100  GLU100     -0.2457
    102  OE2       26.8330   34.6120    1.5840 O.co2 100  GLU100     -0.2457
    103  N         24.3990   30.5120    2.3780 N.3   145  GLN145     -0.1231
    104  CA        24.1730   31.8740    1.9340 C.3   145  GLN145      0.1698
    105  C         22.8070   32.4470    2.3860 C.2   145  GLN145      0.2592
    106  O         22.6100   33.6520    2.3660 O.2   145  GLN145     -0.2718
    107  CB        24.3090   31.9870    0.4200 C.3   145  GLN145      0.0381
    108  CG        25.7180   31.6990   -0.1130 C.3   145  GLN145      0.0905
    109  CD        25.9530   30.2130   -0.3180 C.2   145  GLN145      0.2608
    110  OE1       25.1410   29.3740    0.1120 O.2   145  GLN145     -0.2717
    111  NE2       27.0570   29.8740   -0.9500 N.am  145  GLN145     -0.0878
    112  N         21.8720   31.5930    2.7970 N.am  146  ASN146     -0.1974
    113  CA        20.5630   32.0460    3.2120 C.3   146  ASN146      0.1688
    114  C         20.2910   31.9650    4.7140 C.2   146  ASN146      0.2292
    115  O         19.1360   31.9520    5.1240 O.2   146  ASN146     -0.2864
    116  CB        19.4880   31.2650    2.4700 C.3   146  ASN146      0.1181
    117  CG        19.3610   31.6860    1.0600 C.2   146  ASN146      0.2629
    118  OD1       19.7800   32.7880    0.6940 O.2   146  ASN146     -0.2716
    119  ND2       18.7630   30.8280    0.2440 N.am  146  ASN146     -0.0877
    120  N         21.5950   34.2890    7.8220 N.3   148  LEU148     -0.1245
    121  CA        22.3730   35.4530    8.1940 C.3   148  LEU148      0.1561
    122  C         22.6220   35.4900    9.7160 C.2   148  LEU148      0.2260
    123  O         22.0440   34.6800   10.4820 O.2   148  LEU148     -0.2867
    124  CB        21.6710   36.7270    7.7460 C.3   148  LEU148      0.0270
    125  CG        21.3010   36.7320    6.2590 C.3   148  LEU148      0.0019
    126  CD1       20.7460   38.1100    5.8600 C.3   148  LEU148      0.0001
    127  CD2       22.4640   36.3500    5.3370 C.3   148  LEU148      0.0001
    128  N         16.6100   33.5200    5.9260 N.3   161  VAL161     -0.1231
    129  CA        16.1240   34.3920    4.8760 C.3   161  VAL161      0.1692
    130  C         15.7580   33.6400    3.6000 C.2   161  VAL161      0.2592
    131  O         15.9940   32.4360    3.4900 O.2   161  VAL161     -0.2718
    132  CB        17.1450   35.5140    4.4940 C.3   161  VAL161      0.0266
    133  CG1       17.4910   36.4370    5.7090 C.3   161  VAL161      0.0020
    134  CG2       18.3930   34.9120    3.8360 C.3   161  VAL161      0.0020
    135  N         15.1790   34.3840    2.6460 N.am  162  ASP162     -0.1974
    136  CA        14.7800   33.9140    1.2970 C.3   162  ASP162      0.1709
    137  C         13.8180   32.7400    1.2690 C.2   162  ASP162      0.2293
    138  O         14.2190   31.5890    1.0510 O.2   162  ASP162     -0.2864
    139  CB        15.9770   33.5630    0.4320 C.3   162  ASP162      0.1436
    140  CG        15.7030   33.7970   -1.0480 C.2   162  ASP162      0.3671
    141  OD1       14.5010   33.7540   -1.5140 O.co2 162  ASP162     -0.2456
    142  OD2       16.7010   34.0600   -1.7500 O.co2 162  ASP162     -0.2456
@<TRIPOS>BOND
     1    21    20    2
     2    20    19    1
     3    22    23    1
     4    19    18    1
     5    36    37    2
     6    36    35    1
     7    18    12   am
     8    23    24    1
     9    23    26    1
    10    25    24    2
    11    41    42    1
    12    41    40    1
    13    39    40    1
    14    39    38    1
    15   142   140   ar
    16   141   140   ar
    17    28    26    1
    18    35    38    1
    19    35    34    1
    20    12    13    2
    21    12    11    1
    22   140   139    1
    23    10    11    1
    24    26    27    1
    25   111   109   am
    26     3     4    2
    27     3     2    1
    28   109   108    1
    29   109   110    2
    30    11    14    1
    31   108   107    1
    32     1     2    1
    33     2     5    1
    34   119   117   am
    35   107   104    1
    36   139   136    1
    37   118   117    2
    38    14    15    1
    39   101   100   ar
    40   138   137    2
    41   117   116    1
    42   137   136    1
    43   136   135    1
    44   102   100   ar
    45     5     6    1
    46   100    99    1
    47    15    17    1
    48    15    16    1
    49   104   103    1
    50   104   105    1
    51     6     7    1
    52   106   105    2
    53   105   112   am
    54   116   113    1
    55   135   130   am
    56   112   113    1
    57    57    56    1
    58    31    32    2
    59    31    30    1
    60   113   114    1
    61    99    98    1
    62   131   130    2
    63   130   129    1
    64     7     8    1
    65   134   132    1
    66    30    33    1
    67    30    29    1
    68     8     9    1
    69    56    58    1
    70    56    55    1
    71    98    95    1
    72   132   129    1
    73   132   133    1
    74   114   115    2
    75   129   128    1
    76    51    52    1
    77    55    52    1
    78   127   125    1
    79    95    94    1
    80    95    96    1
    81   126   125    1
    82    52    53    1
    83    94    92   am
    84   125   124    1
    85    76    74   ar
    86    76    78   ar
    87    96    97    2
    88    79    78    1
    89    54    53    2
    90    74    73   ar
    91    49    47    1
    92    91    92    1
    93    91    90    1
    94    92    93    2
    95    53    59   am
    96    78    77   ar
    97   124   121    1
    98    48    47    1
    99    48    50    1
   100   120   121    1
   101    62    61    2
   102    47    44    1
   103   121   122    1
   104    59    60    1
   105    73    72    1
   106    73    75   ar
   107    83    82    2
   108    77    75   ar
   109    61    68   am
   110    61    60    1
   111    69    72    1
   112    69    68    1
   113    69    70    1
   114    46    45    2
   115    80    70   am
   116    80    81    1
   117    84    81    1
   118    60    63    1
   119    82    81    1
   120    82    85   am
   121    44    45    1
   122    44    43    1
   123    70    71    2
   124    88    87    2
   125   122   123    2
   126    87    86    1
   127    86    85    1
   128    86    89    1
   129    63    64    1
   130    64    65    1
   131    66    65   ar
   132    65    67   ar
