@<TRIPOS>MOLECULE
tmp/3lm3A00.pdb
 83 80 0 0 0
SMALL
GASTEIGER

@<TRIPOS>ATOM
      1  N         19.0950   42.3640   21.3810 N.3   331  ASN331     -0.1225
      2  CA        19.3930   43.5260   22.1740 C.3   331  ASN331      0.1785
      3  C         18.6930   44.7770   21.6700 C.2   331  ASN331      0.2597
      4  O         18.7810   45.8160   22.3250 O.2   331  ASN331     -0.2718
      5  CB        20.8980   43.7910   22.1810 C.3   331  ASN331      0.1169
      6  CG        21.4140   44.2280   20.8290 C.2   331  ASN331      0.2627
      7  OD1       21.3650   43.4700   19.8710 O.2   331  ASN331     -0.2716
      8  ND2       21.9480   45.4600   20.7590 N.am  331  ASN331     -0.0877
      9  N         17.9980   44.6640   20.5360 N.am  332  LEU332     -0.1980
     10  CA        17.3550   45.8260   19.9220 C.3   332  LEU332      0.1596
     11  C         15.8640   45.8920   20.1920 C.2   332  LEU332      0.2287
     12  O         15.1560   44.8780   20.1290 O.2   332  LEU332     -0.2864
     13  CB        17.6270   45.8180   18.4120 C.3   332  LEU332      0.0297
     14  CG        19.0860   45.9350   17.9790 C.3   332  LEU332      0.0022
     15  CD1       19.2070   45.7910   16.4580 C.3   332  LEU332      0.0001
     16  CD2       19.7240   47.2580   18.4520 C.3   332  LEU332      0.0001
     17  N         15.1180   53.4080   17.6500 N.3   346  LEU346     -0.1231
     18  CA        15.8360   52.1570   17.9100 C.3   346  LEU346      0.1693
     19  C         16.6490   52.3270   19.1770 C.2   346  LEU346      0.2592
     20  O         17.3160   53.3710   19.3720 O.2   346  LEU346     -0.2718
     21  CB        16.7780   51.8470   16.7580 C.3   346  LEU346      0.0284
     22  CG        17.4220   50.4580   16.7950 C.3   346  LEU346      0.0019
     23  CD1       16.4030   49.3370   16.5690 C.3   346  LEU346      0.0001
     24  CD2       18.5320   50.3720   15.7780 C.3   346  LEU346      0.0001
     25  N         16.6270   51.2980   20.0230 N.am  347  ARG347     -0.1966
     26  CA        17.2950   51.3490   21.3350 C.3   347  ARG347      0.1729
     27  C         17.9930   50.0220   21.6190 C.2   347  ARG347      0.2616
     28  O         17.4520   48.9700   21.3090 O.2   347  ARG347     -0.2715
     29  CB        16.2880   51.6480   22.4340 C.3   347  ARG347      0.0348
     30  CG        16.8920   51.8000   23.8210 C.3   347  ARG347      0.0492
     31  CD        15.8760   52.3640   24.8250 C.3   347  ARG347      0.2205
     32  NE        14.7450   51.4790   25.0890 N.pl3 347  ARG347     -0.0865
     33  CZ        14.6560   50.6270   26.1160 C.cat 347  ARG347      0.5346
     34  NH1       15.6530   50.5260   26.9880 N.pl3 347  ARG347      0.1354
     35  NH2       13.5710   49.8740   26.2700 N.pl3 347  ARG347      0.1354
     36  N         19.2150   50.0940   22.1410 N.am  348  ASP348     -0.1971
     37  CA        19.9680   48.9430   22.6340 C.3   348  ASP348      0.1709
     38  C         19.5430   48.7880   24.0760 C.2   348  ASP348      0.2293
     39  O         20.1480   49.4150   24.9690 O.2   348  ASP348     -0.2864
     40  CB        21.4880   49.1980   22.4880 C.3   348  ASP348      0.1436
     41  CG        22.3390   48.1710   23.2010 C.2   348  ASP348      0.3671
     42  OD1       21.8430   47.0630   23.4390 O.co2 348  ASP348     -0.2456
     43  OD2       23.5080   48.5000   23.5410 O.co2 348  ASP348     -0.2456
     44  N         20.6920   53.5020   27.9590 N.3   354  SER354     -0.1203
     45  CA        21.0100   53.8730   26.5770 C.3   354  SER354      0.2005
     46  C         19.7220   54.4420   25.9740 C.2   354  SER354      0.2460
     47  O         18.6670   53.8370   26.0940 O.2   354  SER354     -0.2732
     48  CB        21.4880   52.6380   25.8000 C.3   354  SER354      0.2103
     49  OG        22.0700   52.9710   24.5510 O.3   354  SER354     -0.2182
     50  N         19.7830   55.6450   25.3790 N.am  355  PRO355     -0.2728
     51  CA        18.5330   56.2000   24.8460 C.3   355  PRO355      0.1401
     52  C         18.1330   55.5890   23.5030 C.2   355  PRO355      0.2269
     53  O         18.9540   54.9320   22.8450 O.2   355  PRO355     -0.2865
     54  CB        18.8790   57.6810   24.6510 C.3   355  PRO355      0.0296
     55  CG        20.3040   57.6670   24.2680 C.3   355  PRO355      0.0237
     56  CD        20.9310   56.5330   25.1090 C.3   355  PRO355      0.0939
     57  N         17.3110   56.1800   19.6120 N.3   357  TYR357     -0.1241
     58  CA        17.7320   57.0280   18.5250 C.3   357  TYR357      0.1605
     59  C         16.7400   56.9770   17.3800 C.2   357  TYR357      0.2264
     60  O         16.2110   55.9360   17.0410 O.2   357  TYR357     -0.2867
     61  CB        19.0970   56.5770   18.0010 C.3   357  TYR357      0.0534
     62  CG        20.2050   56.8240   18.9850 C.ar  357  TYR357     -0.0201
     63  CD1       20.4210   55.9600   20.0510 C.ar  357  TYR357     -0.0009
     64  CD2       21.0030   57.9400   18.8700 C.ar  357  TYR357     -0.0009
     65  CE1       21.4360   56.2120   20.9780 C.ar  357  TYR357      0.0417
     66  CE2       22.0260   58.2050   19.7950 C.ar  357  TYR357      0.0417
     67  CZ        22.2270   57.3320   20.8380 C.ar  357  TYR357      0.1957
     68  OH        23.2370   57.5830   21.7690 O.3   357  TYR357     -0.2866
     69  N         16.0830   56.4820   13.7980 N.3   359  ILE359     -0.1245
     70  CA        16.7050   55.8570   12.6350 C.3   359  ILE359      0.1561
     71  C         15.9470   56.1130   11.3300 C.2   359  ILE359      0.2260
     72  O         16.4630   55.8300   10.2440 O.2   359  ILE359     -0.2867
     73  CB        16.9590   54.3320   12.8120 C.3   359  ILE359      0.0252
     74  CG1       15.6590   53.5350   12.8870 C.3   359  ILE359      0.0019
     75  CG2       17.8350   54.1030   14.0500 C.3   359  ILE359      0.0019
     76  CD1       15.8860   52.0110   12.6580 C.3   359  ILE359      0.0001
     77  N         21.9570   57.7890   12.9180 N.3   400  PRO400     -0.2116
     78  CA        20.9560   57.8550   13.9750 C.3   400  PRO400      0.1372
     79  C         21.2760   58.9610   14.9840 C.2   400  PRO400      0.2244
     80  O         22.4450   59.1330   15.3910 O.2   400  PRO400     -0.2868
     81  CB        21.0380   56.4780   14.6210 C.3   400  PRO400      0.0268
     82  CG        21.3980   55.5910   13.4450 C.3   400  PRO400      0.0207
     83  CD        22.4410   56.4130   12.7020 C.3   400  PRO400      0.0892
@<TRIPOS>BOND
     1    72    71    2
     2    71    70    1
     3    70    73    1
     4    70    69    1
     5    76    74    1
     6    83    77    1
     7    83    82    1
     8    73    74    1
     9    73    75    1
    10    77    78    1
    11    82    81    1
    12    78    81    1
    13    78    79    1
    14    79    80    2
    15    24    22    1
    16    15    14    1
    17    23    22    1
    18    21    22    1
    19    21    18    1
    20    60    59    2
    21    59    58    1
    22    17    18    1
    23    18    19    1
    24    14    13    1
    25    14    16    1
    26    61    58    1
    27    61    62    1
    28    13    10    1
    29    58    57    1
    30    64    62   ar
    31    64    66   ar
    32    62    63   ar
    33    19    20    2
    34    19    25   am
    35    66    67   ar
    36     7     6    2
    37    10    11    1
    38    10     9    1
    39    25    26    1
    40    63    65   ar
    41    12    11    2
    42     9     3   am
    43     8     6   am
    44     6     5    1
    45    67    65   ar
    46    67    68    1
    47    28    27    2
    48    26    27    1
    49    26    29    1
    50     1     2    1
    51    27    36   am
    52     3     2    1
    53     3     4    2
    54    36    37    1
    55     2     5    1
    56    29    30    1
    57    40    37    1
    58    40    41    1
    59    37    38    1
    60    53    52    2
    61    41    42   ar
    62    41    43   ar
    63    52    51    1
    64    30    31    1
    65    38    39    2
    66    55    54    1
    67    55    56    1
    68    49    48    1
    69    54    51    1
    70    31    32    1
    71    51    50    1
    72    32    33    2
    73    56    50    1
    74    50    46   am
    75    48    45    1
    76    46    47    2
    77    46    45    1
    78    33    35    1
    79    33    34    1
    80    45    44    1
