@<TRIPOS>MOLECULE
tmp/3lm4D00.pdb
 170 166 0 0 0
SMALL
GASTEIGER

@<TRIPOS>ATOM
      1  N          6.7970   47.0630   15.2130 N.3   154  ASN154     -0.1240
      2  CA         5.4320   47.2940   15.6550 C.3   154  ASN154      0.1653
      3  C          4.9880   48.6430   15.1220 C.2   154  ASN154      0.2266
      4  O          5.5730   49.6740   15.4570 O.2   154  ASN154     -0.2867
      5  CB         5.3630   47.2960   17.1830 C.3   154  ASN154      0.1155
      6  CG         3.9400   47.2350   17.7020 C.2   154  ASN154      0.2627
      7  OD1        3.0860   48.0350   17.3110 O.2   154  ASN154     -0.2716
      8  ND2        3.6790   46.2870   18.5980 N.am  154  ASN154     -0.0877
      9  N         -5.7190   41.3530   19.8540 N.3   178  VAL178     -0.1245
     10  CA        -6.3940   41.8650   21.0320 C.3   178  VAL178      0.1561
     11  C         -7.5710   42.6860   20.5540 C.2   178  VAL178      0.2260
     12  O         -7.4470   43.4940   19.6350 O.2   178  VAL178     -0.2867
     13  CB        -5.4860   42.7770   21.8770 C.3   178  VAL178      0.0252
     14  CG1       -6.2880   43.3800   23.0250 C.3   178  VAL178      0.0019
     15  CG2       -4.3110   41.9800   22.4260 C.3   178  VAL178      0.0019
     16  N         -7.5610   46.1090   18.4990 N.3   185  ILE185     -0.1231
     17  CA        -6.6480   47.1750   18.8690 C.3   185  ILE185      0.1692
     18  C         -5.1970   46.7180   18.7830 C.2   185  ILE185      0.2592
     19  O         -4.2710   47.4920   19.0240 O.2   185  ILE185     -0.2718
     20  CB        -6.9540   47.7030   20.2760 C.3   185  ILE185      0.0266
     21  CG1       -6.9010   46.5610   21.2910 C.3   185  ILE185      0.0019
     22  CG2       -8.3310   48.3560   20.2850 C.3   185  ILE185      0.0020
     23  CD1       -7.1120   47.0290   22.7250 C.3   185  ILE185      0.0001
     24  N         -5.0090   45.4530   18.4220 N.am  186  GLY186     -0.1957
     25  CA        -3.6670   44.9130   18.2810 C.3   186  GLY186      0.1869
     26  C         -3.6470   43.6200   17.4850 C.2   186  GLY186      0.2309
     27  O         -4.5140   42.7710   17.6510 O.2   186  GLY186     -0.2863
     28  N         -0.7140   40.6490   15.7460 N.3   188  TRP188     -0.1241
     29  CA         0.6640   40.1800   15.5860 C.3   188  TRP188      0.1605
     30  C          0.6570   39.1800   14.4410 C.2   188  TRP188      0.2264
     31  O         -0.0430   38.1670   14.4850 O.2   188  TRP188     -0.2867
     32  CB         1.1470   39.5710   16.9110 C.3   188  TRP188      0.0550
     33  CG         1.2990   40.6380   17.9590 C.ar  188  TRP188      0.0003
     34  CD1        2.4410   41.3260   18.2740 C.ar  188  TRP188      0.0946
     35  CD2        0.2500   41.2260   18.7390 C.ar  188  TRP188      0.0152
     36  NE1        2.1640   42.3100   19.1950 N.ar  188  TRP188     -0.2442
     37  CE2        0.8270   42.2710   19.4980 C.ar  188  TRP188      0.0810
     38  CE3       -1.1220   40.9740   18.8690 C.ar  188  TRP188      0.0012
     39  CZ2        0.0760   43.0650   20.3710 C.ar  188  TRP188      0.0191
     40  CZ3       -1.8710   41.7660   19.7410 C.ar  188  TRP188      0.0001
     41  CH2       -1.2700   42.7970   20.4790 C.ar  188  TRP188      0.0015
     42  N          5.6720   36.5180   15.3540 N.3   195  HIS195     -0.1241
     43  CA         5.4490   37.7110   14.5450 C.3   195  HIS195      0.1621
     44  C          6.7480   38.4280   14.1870 C.2   195  HIS195      0.2264
     45  O          7.7460   38.3440   14.9110 O.2   195  HIS195     -0.2867
     46  CB         4.5550   38.7030   15.2890 C.3   195  HIS195      0.0745
     47  CG         5.2520   39.4130   16.4090 C.ar  195  HIS195      0.0817
     48  ND1        5.6410   38.7730   17.5660 N.ar  195  HIS195     -0.2268
     49  CD2        5.6640   40.6970   16.5320 C.ar  195  HIS195      0.1154
     50  CE1        6.2640   39.6320   18.3530 C.ar  195  HIS195      0.1986
     51  NE2        6.2920   40.8070   17.7490 N.ar  195  HIS195     -0.2212
     52  N         -3.3150   49.9190   17.7900 N.3   200  ARG200     -0.1231
     53  CA        -4.0820   51.1420   17.6320 C.3   200  ARG200      0.1694
     54  C         -3.4410   52.3670   18.2780 C.2   200  ARG200      0.2592
     55  O         -2.9600   52.3090   19.4040 O.2   200  ARG200     -0.2718
     56  CB        -5.4960   50.9370   18.1860 C.3   200  ARG200      0.0321
     57  CG        -6.4260   52.1260   17.9900 C.3   200  ARG200      0.0489
     58  CD        -6.6010   52.5000   16.5220 C.3   200  ARG200      0.2205
     59  NE        -7.6830   51.7600   15.8750 N.pl3 200  ARG200     -0.0865
     60  CZ        -8.9740   51.9320   16.1470 C.cat 200  ARG200      0.5346
     61  NH1       -9.3530   52.8220   17.0540 N.pl3 200  ARG200      0.1354
     62  NH2       -9.8900   51.2160   15.5090 N.pl3 200  ARG200      0.1354
     63  N         -3.4300   53.4740   17.5410 N.am  201  ASP201     -0.1974
     64  CA        -2.8830   54.7320   18.0320 C.3   201  ASP201      0.1709
     65  C         -3.9990   55.3390   18.8820 C.2   201  ASP201      0.2293
     66  O         -5.0570   55.6850   18.3600 O.2   201  ASP201     -0.2864
     67  CB        -2.5650   55.6540   16.8540 C.3   201  ASP201      0.1436
     68  CG        -1.8390   56.9160   17.2750 C.2   201  ASP201      0.3671
     69  OD1       -2.1760   57.4730   18.3420 O.co2 201  ASP201     -0.2456
     70  OD2       -0.9400   57.3580   16.5300 O.co2 201  ASP201     -0.2456
     71  N          5.6540   52.3670   16.3840 N.3   209  HIS209     -0.1226
     72  CA         5.6130   52.1600   17.8250 C.3   209  HIS209      0.1752
     73  C          7.0300   51.7880   18.2670 C.2   209  HIS209      0.2596
     74  O          7.5830   52.4180   19.1640 O.2   209  HIS209     -0.2718
     75  CB         4.6230   51.0690   18.2190 C.3   209  HIS209      0.0759
     76  CG         4.4170   50.9800   19.6980 C.ar  209  HIS209      0.0818
     77  ND1        5.2730   50.2880   20.5260 N.ar  209  HIS209     -0.2268
     78  CD2        3.5090   51.5750   20.5070 C.ar  209  HIS209      0.1154
     79  CE1        4.9030   50.4600   21.7820 C.ar  209  HIS209      0.1986
     80  NE2        3.8350   51.2380   21.7990 N.ar  209  HIS209     -0.2212
     81  N          7.6200   50.7720   17.6370 N.am  210  HIS210     -0.1975
     82  CA         8.9930   50.3830   17.9560 C.3   210  HIS210      0.1656
     83  C          9.6390   49.3850   16.9950 C.2   210  HIS210      0.2291
     84  O          8.9650   48.6480   16.2710 O.2   210  HIS210     -0.2864
     85  CB         9.1060   49.8190   19.3800 C.3   210  HIS210      0.0771
     86  CG         8.4100   48.5070   19.5740 C.ar  210  HIS210      0.0820
     87  ND1        7.1170   48.4140   20.0400 N.ar  210  HIS210     -0.2267
     88  CD2        8.8250   47.2360   19.3610 C.ar  210  HIS210      0.1154
     89  CE1        6.7660   47.1420   20.1100 C.ar  210  HIS210      0.1986
     90  NE2        7.7840   46.4070   19.7030 N.ar  210  HIS210     -0.2212
     91  N          5.8600   39.3780   27.8610 N.3   241  HIS241     -0.1241
     92  CA         4.4650   39.5710   27.4640 C.3   241  HIS241      0.1621
     93  C          3.8150   38.1950   27.2890 C.2   241  HIS241      0.2264
     94  O          4.3890   37.3230   26.6350 O.2   241  HIS241     -0.2867
     95  CB         4.3670   40.2830   26.1020 C.3   241  HIS241      0.0745
     96  CG         4.8830   41.6890   26.0870 C.ar  241  HIS241      0.0817
     97  ND1        4.3640   42.6860   26.8850 N.ar  241  HIS241     -0.2268
     98  CD2        5.8130   42.2840   25.3020 C.ar  241  HIS241      0.1154
     99  CE1        4.9470   43.8340   26.5890 C.ar  241  HIS241      0.1986
    100  NE2        5.8310   43.6180   25.6320 N.ar  241  HIS241     -0.2212
    101  N          1.2010   37.7650   25.6430 N.3   243  ILE243     -0.1231
    102  CA         0.8870   37.8720   24.2200 C.3   243  ILE243      0.1692
    103  C          2.2170   37.7720   23.4720 C.2   243  ILE243      0.2592
    104  O          3.1090   38.5950   23.6760 O.2   243  ILE243     -0.2718
    105  CB         0.2270   39.2260   23.9030 C.3   243  ILE243      0.0266
    106  CG1       -1.1580   39.2930   24.5540 C.3   243  ILE243      0.0019
    107  CG2        0.1300   39.4220   22.3990 C.3   243  ILE243      0.0020
    108  CD1       -1.7460   40.6800   24.5780 C.3   243  ILE243      0.0001
    109  N          2.3260   36.7550   22.6170 N.am  244  THR244     -0.1953
    110  CA         3.5210   36.4510   21.8160 C.3   244  THR244      0.1897
    111  C          4.6740   35.8880   22.6490 C.2   244  THR244      0.2313
    112  O          5.7580   35.6370   22.1190 O.2   244  THR244     -0.2863
    113  CB         4.0590   37.6820   21.0240 C.3   244  THR244      0.1794
    114  OG1        4.6990   38.6040   21.9140 O.3   244  THR244     -0.2208
    115  CG2        2.9270   38.3740   20.2840 C.3   244  THR244      0.0378
    116  N         11.8810   47.8280   26.7460 N.3   250  TYR250     -0.1241
    117  CA        11.6470   49.0050   25.9180 C.3   250  TYR250      0.1605
    118  C         12.4230   50.2040   26.4480 C.2   250  TYR250      0.2264
    119  O         12.3820   50.4990   27.6380 O.2   250  TYR250     -0.2867
    120  CB        10.1560   49.3530   25.8930 C.3   250  TYR250      0.0534
    121  CG         9.2760   48.2690   25.3160 C.ar  250  TYR250     -0.0201
    122  CD1        9.2620   48.0100   23.9480 C.ar  250  TYR250     -0.0009
    123  CD2        8.4780   47.4830   26.1430 C.ar  250  TYR250     -0.0009
    124  CE1        8.4740   46.9900   23.4140 C.ar  250  TYR250      0.0417
    125  CE2        7.6870   46.4590   25.6220 C.ar  250  TYR250      0.0417
    126  CZ         7.6910   46.2180   24.2600 C.ar  250  TYR250      0.1957
    127  OH         6.9220   45.2050   23.7480 O.3   250  TYR250     -0.2866
    128  N         -6.7060   41.2020   30.2480 N.3   283  ILE283     -0.1245
    129  CA        -5.3830   41.2770   29.6330 C.3   283  ILE283      0.1561
    130  C         -4.1350   41.2410   30.5330 C.2   283  ILE283      0.2260
    131  O         -3.0130   41.2740   30.0270 O.2   283  ILE283     -0.2867
    132  CB        -5.3210   42.5640   28.7820 C.3   283  ILE283      0.0252
    133  CG1       -4.2910   42.4320   27.6650 C.3   283  ILE283      0.0019
    134  CG2       -4.9870   43.7530   29.6670 C.3   283  ILE283      0.0019
    135  CD1       -4.7140   41.4810   26.5810 C.3   283  ILE283      0.0001
    136  N         -1.5260   38.8830   29.4610 N.3   286  GLY286     -0.1210
    137  CA        -1.1160   39.2670   28.1270 C.3   286  GLY286      0.1956
    138  C         -0.0980   40.3930   28.1010 C.2   286  GLY286      0.2611
    139  O          0.8420   40.3540   27.3130 O.2   286  GLY286     -0.2717
    140  N         -0.2800   41.3930   28.9640 N.am  287  LEU287     -0.1979
    141  CA         0.6340   42.5310   29.0240 C.3   287  LEU287      0.1596
    142  C          1.9740   42.1570   29.6570 C.2   287  LEU287      0.2287
    143  O          3.0330   42.5640   29.1770 O.2   287  LEU287     -0.2864
    144  CB         0.0090   43.6780   29.8190 C.3   287  LEU287      0.0297
    145  CG        -1.3200   44.2430   29.3000 C.3   287  LEU287      0.0022
    146  CD1       -1.7730   45.3690   30.2180 C.3   287  LEU287      0.0001
    147  CD2       -1.1560   44.7470   27.8780 C.3   287  LEU287      0.0001
    148  N          3.5750   54.0050   26.6940 N.3   299  TYR299     -0.1227
    149  CA         3.4540   52.7680   25.9330 C.3   299  TYR299      0.1736
    150  C          2.2420   52.7080   25.0150 C.2   299  TYR299      0.2595
    151  O          2.3600   52.3100   23.8610 O.2   299  TYR299     -0.2718
    152  CB         3.4380   51.5460   26.8500 C.3   299  TYR299      0.0548
    153  CG         3.5670   50.2660   26.0620 C.ar  299  TYR299     -0.0200
    154  CD1        4.8070   49.8480   25.5790 C.ar  299  TYR299     -0.0009
    155  CD2        2.4400   49.5180   25.7200 C.ar  299  TYR299     -0.0009
    156  CE1        4.9200   48.7210   24.7740 C.ar  299  TYR299      0.0417
    157  CE2        2.5440   48.3900   24.9140 C.ar  299  TYR299      0.0417
    158  CZ         3.7890   47.9970   24.4440 C.ar  299  TYR299      0.1957
    159  OH         3.8960   46.8880   23.6440 O.3   299  TYR299     -0.2866
    160  N          1.0770   53.1050   25.5140 N.am  300  PHE300     -0.1976
    161  CA        -0.1290   53.0520   24.6950 C.3   300  PHE300      0.1639
    162  C         -0.4380   54.3320   23.9230 C.2   300  PHE300      0.2290
    163  O         -1.3880   54.3730   23.1430 O.2   300  PHE300     -0.2864
    164  CB        -1.3350   52.6860   25.5660 C.3   300  PHE300      0.0560
    165  CG        -1.1710   51.4000   26.3180 C.ar  300  PHE300     -0.0200
    166  CD1       -0.5980   51.3840   27.5840 C.ar  300  PHE300     -0.0042
    167  CD2       -1.5540   50.1940   25.7430 C.ar  300  PHE300     -0.0042
    168  CE1       -0.4100   50.1850   28.2680 C.ar  300  PHE300     -0.0003
    169  CE2       -1.3690   48.9890   26.4160 C.ar  300  PHE300     -0.0003
    170  CZ        -0.7950   48.9850   27.6810 C.ar  300  PHE300     -0.0000
@<TRIPOS>BOND
     1    44    43    1
     2    44    45    2
     3    30    31    2
     4    30    29    1
     5    43    46    1
     6    43    42    1
     7     3     4    2
     8     3     2    1
     9     1     2    1
    10    46    47    1
    11    62    60    1
    12    29    28    1
    13    29    32    1
    14     2     5    1
    15    59    60    2
    16    59    58    1
    17    60    61    1
    18    84    83    2
    19    71    72    1
    20    47    49   ar
    21    47    48   ar
    22    58    57    1
    23    70    68   ar
    24    49    51   ar
    25    67    68    1
    26    67    64    1
    27    32    33    1
    28    83    82    1
    29     5     6    1
    30    68    69   ar
    31     7     6    2
    32    26    27    2
    33    26    25    1
    34    63    64    1
    35    63    54   am
    36    48    50   ar
    37    53    52    1
    38    53    56    1
    39    53    54    1
    40    81    82    1
    41    81    73   am
    42     6     8   am
    43    51    50   ar
    44    72    75    1
    45    72    73    1
    46    82    85    1
    47    33    34   ar
    48    33    35   ar
    49    57    56    1
    50    64    65    1
    51    75    76    1
    52    73    74    2
    53    34    36   ar
    54    54    55    2
    55    25    24    1
    56    66    65    2
    57    24    18   am
    58    16    17    1
    59    35    38   ar
    60    35    37   ar
    61    18    17    1
    62    18    19    2
    63    17    20    1
    64    38    40   ar
    65    36    37   ar
    66    88    86   ar
    67    88    90   ar
    68    85    86    1
    69    37    39   ar
    70    86    87   ar
    71    12    11    2
    72    76    78   ar
    73    76    77   ar
    74    90    89   ar
    75    40    41   ar
    76     9    10    1
    77    87    89   ar
    78    20    22    1
    79    20    21    1
    80   115   113    1
    81    39    41   ar
    82    78    80   ar
    83    77    79   ar
    84    11    10    1
    85   113   110    1
    86   113   114    1
    87    10    13    1
    88    21    23    1
    89    79    80   ar
    90   110   109    1
    91   110   111    1
    92    13    15    1
    93    13    14    1
    94   112   111    2
    95   107   105    1
    96   109   103   am
    97   163   162    2
    98   124   122   ar
    99   124   126   ar
   100   103   104    2
   101   103   102    1
   102   159   158    1
   103   127   126    1
   104   151   150    2
   105   105   102    1
   106   105   106    1
   107   162   161    1
   108   122   121   ar
   109   102   101    1
   110   126   125   ar
   111   158   156   ar
   112   158   157   ar
   113   106   108    1
   114   161   160    1
   115   161   164    1
   116   156   154   ar
   117   157   155   ar
   118   150   160   am
   119   150   149    1
   120    98   100   ar
   121    98    96   ar
   122   121   120    1
   123   121   123   ar
   124   164   165    1
   125   154   153   ar
   126   125   123   ar
   127   100    99   ar
   128   155   153   ar
   129   167   165   ar
   130   167   169   ar
   131   120   117    1
   132   117   118    1
   133   117   116    1
   134   149   148    1
   135   149   152    1
   136   153   152    1
   137    96    95    1
   138    96    97   ar
   139    95    92    1
   140   165   166   ar
   141   169   170   ar
   142   118   119    2
   143   135   133    1
   144    99    97   ar
   145    94    93    2
   146    93    92    1
   147   139   138    2
   148    92    91    1
   149   166   168   ar
   150   133   132    1
   151   170   168   ar
   152   147   145    1
   153   138   137    1
   154   138   140   am
   155   137   136    1
   156   132   129    1
   157   132   134    1
   158   140   141    1
   159   141   142    1
   160   141   144    1
   161   143   142    2
   162   145   144    1
   163   145   146    1
   164   129   128    1
   165   129   130    1
   166   131   130    2
