@<TRIPOS>MOLECULE
tmp/3lm5A00.pdb
 138 129 0 0 0
SMALL
GASTEIGER

@<TRIPOS>ATOM
      1  N         18.0600   -3.2380   -1.0640 N.3    22  LEU22      -0.1231
      2  CA        17.9000   -2.0730   -0.2400 C.3    22  LEU22       0.1693
      3  C         17.9330   -0.7590   -1.0300 C.2    22  LEU22       0.2592
      4  O         17.2360    0.1950   -0.6840 O.2    22  LEU22      -0.2718
      5  CB        19.0170   -2.0500    0.8150 C.3    22  LEU22       0.0284
      6  CG        18.8890   -3.0580    1.9420 C.3    22  LEU22       0.0019
      7  CD1       20.1330   -3.0240    2.8230 C.3    22  LEU22       0.0001
      8  CD2       17.5840   -2.7530    2.7460 C.3    22  LEU22       0.0001
      9  N         18.7430   -0.7080   -2.0770 N.am   23  GLY23      -0.1957
     10  CA        18.8660    0.4980   -2.8900 C.3    23  GLY23       0.1869
     11  C         19.5950    0.2450   -4.2060 C.2    23  GLY23       0.2309
     12  O         20.3740   -0.6870   -4.3260 O.2    23  GLY23      -0.2863
     13  N         22.7030   -1.7550   -3.4270 N.3    30  VAL30      -0.1245
     14  CA        22.9120   -2.1480   -2.0290 C.3    30  VAL30       0.1561
     15  C         21.9210   -3.2540   -1.7370 C.2    30  VAL30       0.2260
     16  O         20.7180   -3.0750   -1.9410 O.2    30  VAL30      -0.2867
     17  CB        22.6200   -1.0110   -1.0480 C.3    30  VAL30       0.0252
     18  CG1       22.9370   -1.4490    0.4120 C.3    30  VAL30       0.0019
     19  CG2       23.3920    0.2340   -1.4390 C.3    30  VAL30       0.0019
     20  N         24.7290   -4.4970    5.2630 N.3    43  ALA43      -0.1245
     21  CA        24.3570   -3.9510    3.9750 C.3    43  ALA43       0.1562
     22  C         25.5920   -4.0750    3.0600 C.2    43  ALA43       0.2260
     23  O         26.6570   -3.6010    3.4060 O.2    43  ALA43      -0.2867
     24  CB        23.9400   -2.4820    4.1540 C.3    43  ALA43       0.0290
     25  N         27.1550   -2.8770   -0.3110 N.3    45  LYS45      -0.1245
     26  CA        27.0540   -1.9120   -1.4170 C.3    45  LYS45       0.1561
     27  C         28.0510   -2.2140   -2.5040 C.2    45  LYS45       0.2260
     28  O         29.2640   -2.1580   -2.2850 O.2    45  LYS45      -0.2867
     29  CB        27.3360   -0.5090   -0.9410 C.3    45  LYS45       0.0271
     30  CG        27.1800    0.5450   -2.0360 C.3    45  LYS45       0.0035
     31  CD        26.8470    1.8960   -1.4070 C.3    45  LYS45       0.0206
     32  CE        26.9510    3.1180   -2.3620 C.3    45  LYS45       0.1093
     33  NZ        26.5180    2.8990   -3.7390 N.3    45  LYS45      -0.1314
     34  N         36.4030    7.2980   -0.7570 N.3    63  GLU63      -0.1245
     35  CA        35.2080    7.0740    0.0540 C.3    63  GLU63       0.1567
     36  C         35.4820    6.0910    1.2130 C.2    63  GLU63       0.2260
     37  O         35.0210    6.2920    2.3270 O.2    63  GLU63      -0.2867
     38  CB        34.0780    6.5680   -0.8490 C.3    63  GLU63       0.0388
     39  CG        32.7440    6.4600   -0.1930 C.3    63  GLU63       0.1160
     40  CD        31.6020    6.0720   -1.1610 C.2    63  GLU63       0.3649
     41  OE1       31.7160    6.2470   -2.3920 O.co2  63  GLU63      -0.2457
     42  OE2       30.5720    5.5850   -0.6740 O.co2  63  GLU63      -0.2457
     43  N         35.1270    6.7620    5.3840 N.3    67  LEU67      -0.1245
     44  CA        34.3850    5.9360    6.3150 C.3    67  LEU67       0.1561
     45  C         35.3130    5.4340    7.3850 C.2    67  LEU67       0.2260
     46  O         34.9400    5.3850    8.5590 O.2    67  LEU67      -0.2867
     47  CB        33.7330    4.7480    5.6140 C.3    67  LEU67       0.0270
     48  CG        32.5870    5.0910    4.6780 C.3    67  LEU67       0.0019
     49  CD1       32.2030    3.8730    3.8380 C.3    67  LEU67       0.0001
     50  CD2       31.3920    5.6720    5.4610 C.3    67  LEU67       0.0001
     51  N         27.9640    5.8220    9.4710 N.3    77  ILE77      -0.1245
     52  CA        27.8180    4.3820    9.2510 C.3    77  ILE77       0.1561
     53  C         29.2240    3.7960    9.2270 C.2    77  ILE77       0.2260
     54  O         30.1350    4.4070    8.6720 O.2    77  ILE77      -0.2867
     55  CB        27.1120    4.1350    7.9030 C.3    77  ILE77       0.0252
     56  CG1       26.5480    2.7290    7.8150 C.3    77  ILE77       0.0019
     57  CG2       28.0520    4.4590    6.7400 C.3    77  ILE77       0.0019
     58  CD1       25.2740    2.5130    8.6680 C.3    77  ILE77       0.0001
     59  N         31.3470   -2.8920   -0.4160 N.3    91  LEU91      -0.1245
     60  CA        31.4520   -2.4220    0.9550 C.3    91  LEU91       0.1561
     61  C         30.5030   -3.1950    1.8750 C.2    91  LEU91       0.2260
     62  O         29.3030   -3.1980    1.6410 O.2    91  LEU91      -0.2867
     63  CB        31.0750   -0.9470    1.0040 C.3    91  LEU91       0.0270
     64  CG        31.8760   -0.0030    0.1320 C.3    91  LEU91       0.0019
     65  CD1       31.3760    1.4150    0.3580 C.3    91  LEU91       0.0001
     66  CD2       33.3870   -0.1330    0.4120 C.3    91  LEU91       0.0001
     67  N         28.6970   -3.0550    5.1040 N.3    93  LEU93      -0.1231
     68  CA        28.3900   -1.9180    5.9650 C.3    93  LEU93       0.1693
     69  C         27.4410   -2.3170    7.0870 C.2    93  LEU93       0.2592
     70  O         26.6450   -3.2460    6.9440 O.2    93  LEU93      -0.2718
     71  CB        27.8020   -0.7800    5.1470 C.3    93  LEU93       0.0284
     72  CG        28.6600   -0.1730    4.0440 C.3    93  LEU93       0.0019
     73  CD1       27.7920    0.3110    2.8550 C.3    93  LEU93       0.0001
     74  CD2       29.5330    0.9190    4.5710 C.3    93  LEU93       0.0001
     75  N         27.6220   -1.6700    8.2330 N.am   94  GLU94      -0.1966
     76  CA        26.7160   -1.7390    9.3600 C.3    94  GLU94       0.1733
     77  C         25.2630   -1.6620    8.8870 C.2    94  GLU94       0.2616
     78  O         24.9060   -0.7950    8.0730 O.2    94  GLU94      -0.2715
     79  CB        27.0270   -0.5350   10.2460 C.3    94  GLU94       0.0429
     80  CG        26.0560   -0.2600   11.3750 C.3    94  GLU94       0.1163
     81  CD        26.4050    1.0190   12.1520 C.2    94  GLU94       0.3649
     82  OE1       27.2520    1.8030   11.6970 O.co2  94  GLU94      -0.2457
     83  OE2       25.8140    1.2500   13.2210 O.co2  94  GLU94      -0.2457
     84  N         24.4200   -2.5400    9.3920 N.am   95  TYR95      -0.1960
     85  CA        23.0010   -2.5500    8.9640 C.3    95  TYR95       0.1771
     86  C         22.1840   -1.5670    9.8020 C.2    95  TYR95       0.2619
     87  O         22.2640   -1.5680   11.0380 O.2    95  TYR95      -0.2715
     88  CB        22.4150   -3.9490    9.0830 C.3    95  TYR95       0.0574
     89  CG        21.0590   -4.1700    8.4160 C.ar   95  TYR95      -0.0198
     90  CD1       20.9180   -4.1540    7.0340 C.ar   95  TYR95      -0.0009
     91  CD2       19.9410   -4.4800    9.1730 C.ar   95  TYR95      -0.0009
     92  CE1       19.6810   -4.3860    6.4370 C.ar   95  TYR95       0.0417
     93  CE2       18.7100   -4.7070    8.5910 C.ar   95  TYR95       0.0417
     94  CZ        18.5890   -4.6660    7.2210 C.ar   95  TYR95       0.1957
     95  OH        17.3570   -4.9030    6.6620 O.3    95  TYR95      -0.2866
     96  N         21.4180   -0.7300    9.1150 N.am   96  ALA96      -0.1977
     97  CA        20.4650    0.1960    9.7280 C.3    96  ALA96       0.1597
     98  C         19.0550   -0.1580    9.2460 C.2    96  ALA96       0.2287
     99  O         18.6750    0.1520    8.1190 O.2    96  ALA96      -0.2864
    100  CB        20.7950    1.6060    9.3760 C.3    96  ALA96       0.0319
    101  N         20.1990    7.6000    7.5750 N.3   147  LEU147     -0.1245
    102  CA        19.3570    6.4750    7.8840 C.3   147  LEU147      0.1561
    103  C         19.1720    6.4290    9.4040 C.2   147  LEU147      0.2260
    104  O         19.8270    7.1770   10.1600 O.2   147  LEU147     -0.2867
    105  CB        20.0060    5.1820    7.3560 C.3   147  LEU147      0.0270
    106  CG        20.3750    5.1260    5.8640 C.3   147  LEU147      0.0019
    107  CD1       20.8350    3.7300    5.5010 C.3   147  LEU147      0.0001
    108  CD2       19.1720    5.4870    4.9490 C.3   147  LEU147      0.0001
    109  N         25.2220    8.2920    5.6570 N.3   160  VAL160     -0.1231
    110  CA        25.7290    7.4240    4.6120 C.3   160  VAL160      0.1692
    111  C         26.0260    8.1870    3.3150 C.2   160  VAL160      0.2592
    112  O         25.8360    9.3890    3.2290 O.2   160  VAL160     -0.2718
    113  CB        24.7070    6.3180    4.2390 C.3   160  VAL160      0.0266
    114  CG1       24.4420    5.3620    5.4200 C.3   160  VAL160      0.0020
    115  CG2       23.4020    6.9420    3.6970 C.3   160  VAL160      0.0020
    116  N         26.4820    7.4450    2.3010 N.am  161  ASP161     -0.1960
    117  CA        26.6490    7.9380    0.9280 C.3   161  ASP161      0.1840
    118  C         27.6760    9.0710    0.8480 C.2   161  ASP161      0.2622
    119  O         27.3600   10.2060    0.4690 O.2   161  ASP161     -0.2715
    120  CB        25.2880    8.3300    0.2890 C.3   161  ASP161      0.1450
    121  CG        24.4200    7.1070   -0.0990 C.2   161  ASP161      0.3671
    122  OD1       23.2810    7.2820   -0.5980 O.co2 161  ASP161     -0.2456
    123  OD2       24.8590    5.9650    0.0840 O.co2 161  ASP161     -0.2456
    124  N         28.9210    8.7340    1.1740 N.am  162  PHE162     -0.1960
    125  CA        30.0280    9.7010    1.1570 C.3   162  PHE162      0.1771
    126  C         30.6550    9.8780   -0.2130 C.2   162  PHE162      0.2620
    127  O         31.7800   10.3900   -0.3390 O.2   162  PHE162     -0.2715
    128  CB        31.0930    9.3240    2.2080 C.3   162  PHE162      0.0574
    129  CG        30.6310    9.5570    3.6220 C.ar  162  PHE162     -0.0200
    130  CD1       31.0200   10.7000    4.3220 C.ar  162  PHE162     -0.0042
    131  CD2       29.7640    8.6680    4.2240 C.ar  162  PHE162     -0.0042
    132  CE1       30.5660   10.9300    5.6030 C.ar  162  PHE162     -0.0003
    133  CE2       29.3120    8.8900    5.5150 C.ar  162  PHE162     -0.0003
    134  CZ        29.7120   10.0170    6.2030 C.ar  162  PHE162     -0.0000
    135  N         29.9190    9.5080   -1.2600 N.am  163  GLY163     -0.1954
    136  CA        30.4580    9.5980   -2.6220 C.3   163  GLY163      0.1869
    137  C         30.8690   10.9840   -3.0810 C.2   163  GLY163      0.2309
    138  O         31.7270   11.1030   -3.9480 O.2   163  GLY163     -0.2863
@<TRIPOS>BOND
     1    12    11    2
     2    11    10    1
     3   138   137    2
     4    33    32    1
     5    13    14    1
     6   137   136    1
     7    10     9    1
     8   136   135    1
     9    27    28    2
    10    27    26    1
    11    41    40   ar
    12    32    31    1
    13     9     3   am
    14    30    31    1
    15    30    29    1
    16    14    15    1
    17    14    17    1
    18    16    15    2
    19    19    17    1
    20    26    29    1
    21    26    25    1
    22   135   126   am
    23    40    42   ar
    24    40    39    1
    25     1     2    1
    26    17    18    1
    27     3     4    2
    28     3     2    1
    29    38    39    1
    30    38    35    1
    31    34    35    1
    32   122   121   ar
    33    59    60    1
    34   127   126    2
    35     2     5    1
    36   126   125    1
    37   121   123   ar
    38   121   120    1
    39    35    36    1
    40    64    65    1
    41    64    66    1
    42    64    63    1
    43   120   117    1
    44   119   118    2
    45     5     6    1
    46   118   117    1
    47   118   124   am
    48   117   116    1
    49    60    63    1
    50    60    61    1
    51   125   124    1
    52   125   128    1
    53    36    37    2
    54    62    61    2
    55     6     8    1
    56     6     7    1
    57   128   129    1
    58   116   111   am
    59    73    72    1
    60    22    23    2
    61    22    21    1
    62   112   111    2
    63   111   110    1
    64   129   131   ar
    65   129   130   ar
    66   115   113    1
    67    49    48    1
    68    21    24    1
    69    21    20    1
    70    72    74    1
    71    72    71    1
    72   131   133   ar
    73   113   110    1
    74   113   114    1
    75   130   132   ar
    76   110   109    1
    77    48    50    1
    78    48    47    1
    79   108   106    1
    80    67    68    1
    81    71    68    1
    82    43    44    1
    83   107   106    1
    84   133   134   ar
    85   132   134   ar
    86    47    44    1
    87   106   105    1
    88    68    69    1
    89    44    45    1
    90    92    90   ar
    91    92    94   ar
    92    95    94    1
    93    57    55    1
    94    70    69    2
    95    90    89   ar
    96    69    75   am
    97    94    93   ar
    98   105   102    1
    99    45    46    2
   100   101   102    1
   101    56    55    1
   102    56    58    1
   103   102   103    1
   104    55    52    1
   105    78    77    2
   106    99    98    2
   107    75    76    1
   108    89    88    1
   109    89    91   ar
   110    93    91   ar
   111    54    53    2
   112    77    76    1
   113    77    84   am
   114    85    88    1
   115    85    84    1
   116    85    86    1
   117    96    97    1
   118    96    86   am
   119    53    52    1
   120    98    97    1
   121    52    51    1
   122    76    79    1
   123   100    97    1
   124   103   104    2
   125    86    87    2
   126    79    80    1
   127    80    81    1
   128    82    81   ar
   129    81    83   ar
