@<TRIPOS>MOLECULE
tmp/3lm8B00.pdb
 96 95 0 0 0
SMALL
GASTEIGER

@<TRIPOS>ATOM
      1  N         -2.4620   21.1000  -39.5120 N.3   167  LEU167     -0.1245
      2  CA        -1.7240   22.3520  -39.4100 C.3   167  LEU167      0.1561
      3  C         -2.5260   23.4050  -40.1700 C.2   167  LEU167      0.2260
      4  O         -3.2180   23.0840  -41.1380 O.2   167  LEU167     -0.2867
      5  CB        -0.3360   22.1960  -40.0320 C.3   167  LEU167      0.0270
      6  CG         0.4050   20.9110  -39.6430 C.3   167  LEU167      0.0019
      7  CD1        1.6550   20.7870  -40.4700 C.3   167  LEU167      0.0001
      8  CD2        0.7390   20.9120  -38.1450 C.3   167  LEU167      0.0001
      9  N          2.9080   26.9580  -44.7060 N.3   171  LYS171     -0.1231
     10  CA         3.2220   26.9040  -46.1230 C.3   171  LYS171      0.1693
     11  C          2.7030   25.5720  -46.6550 C.2   171  LYS171      0.2592
     12  O          2.1140   25.5060  -47.7330 O.2   171  LYS171     -0.2718
     13  CB         4.7410   26.9940  -46.3180 C.3   171  LYS171      0.0285
     14  CG         5.2070   27.0470  -47.7670 C.3   171  LYS171      0.0035
     15  CD         6.7090   27.1890  -47.8230 C.3   171  LYS171      0.0206
     16  CE         7.2310   27.0470  -49.2320 C.3   171  LYS171      0.1093
     17  NZ         8.7050   26.8250  -49.2250 N.3   171  LYS171     -0.1314
     18  N          2.9210   24.5170  -45.8790 N.am  172  TYR172     -0.1963
     19  CA         2.4750   23.1820  -46.2590 C.3   172  TYR172      0.1756
     20  C          1.3580   22.7390  -45.3280 C.2   172  TYR172      0.2461
     21  O          1.6120   22.2310  -44.2340 O.2   172  TYR172     -0.2730
     22  CB         3.6420   22.1990  -46.1880 C.3   172  TYR172      0.0574
     23  CG         4.7980   22.6100  -47.0730 C.ar  172  TYR172     -0.0198
     24  CD1        4.7980   22.3140  -48.4390 C.ar  172  TYR172     -0.0009
     25  CD2        5.8720   23.3450  -46.5560 C.ar  172  TYR172     -0.0009
     26  CE1        5.8340   22.7410  -49.2690 C.ar  172  TYR172      0.0417
     27  CE2        6.9100   23.7760  -47.3810 C.ar  172  TYR172      0.0417
     28  CZ         6.8820   23.4750  -48.7370 C.ar  172  TYR172      0.1957
     29  OH         7.8750   23.9520  -49.5650 O.3   172  TYR172     -0.2866
     30  N          0.1010   22.9390  -45.7490 N.am  173  PRO173     -0.2716
     31  CA        -1.0700   22.5660  -44.9580 C.3   173  PRO173      0.1536
     32  C         -1.1030   21.0980  -44.6080 C.2   173  PRO173      0.2598
     33  O         -0.2000   20.3410  -44.9620 O.2   173  PRO173     -0.2715
     34  CB        -2.2290   22.9650  -45.8590 C.3   173  PRO173      0.0310
     35  CG        -1.6940   24.1830  -46.5250 C.3   173  PRO173      0.0237
     36  CD        -0.3040   23.7440  -46.9140 C.3   173  PRO173      0.0939
     37  N         -2.1620   20.6990  -43.9150 N.am  174  LEU174     -0.1978
     38  CA        -2.3210   19.3130  -43.5160 C.3   174  LEU174      0.1596
     39  C         -3.6260   19.2360  -42.7410 C.2   174  LEU174      0.2287
     40  O         -3.8170   19.9540  -41.7560 O.2   174  LEU174     -0.2864
     41  CB        -1.1350   18.8920  -42.6430 C.3   174  LEU174      0.0297
     42  CG        -0.5820   17.4760  -42.8140 C.3   174  LEU174      0.0022
     43  CD1       -0.2520   17.2270  -44.2790 C.3   174  LEU174      0.0001
     44  CD2        0.6680   17.3020  -41.9430 C.3   174  LEU174      0.0001
     45  N          9.7290   11.9670  -42.2750 N.3   184  THR184     -0.1203
     46  CA        10.5440   13.1850  -42.3030 C.3   184  THR184      0.1994
     47  C          9.7660   14.2030  -43.1260 C.2   184  THR184      0.2618
     48  O         10.2710   15.2690  -43.4770 O.2   184  THR184     -0.2717
     49  CB        11.9140   12.9580  -42.9670 C.3   184  THR184      0.1784
     50  OG1       11.7290   12.6830  -44.3590 O.3   184  THR184     -0.2211
     51  CG2       12.6400   11.7990  -42.3010 C.3   184  THR184      0.0376
     52  N          8.5200   13.8360  -43.4160 N.am  185  LEU185     -0.1965
     53  CA         7.5780   14.6360  -44.1940 C.3   185  LEU185      0.1728
     54  C          7.3710   16.0580  -43.6960 C.2   185  LEU185      0.2616
     55  O          7.5220   17.0250  -44.4520 O.2   185  LEU185     -0.2715
     56  CB         6.2150   13.9380  -44.2230 C.3   185  LEU185      0.0311
     57  CG         5.0160   14.7740  -44.6750 C.3   185  LEU185      0.0022
     58  CD1        5.2350   15.2690  -46.0980 C.3   185  LEU185      0.0001
     59  CD2        3.7480   13.9370  -44.5810 C.3   185  LEU185      0.0001
     60  N          7.0140   16.1580  -42.4180 N.am  186  CYS186     -0.1954
     61  CA         6.7120   17.4210  -41.7730 C.3   186  CYS186      0.1843
     62  C          7.8910   18.2650  -41.3230 C.2   186  CYS186      0.2625
     63  O          7.7220   19.1640  -40.4990 O.2   186  CYS186     -0.2714
     64  CB         5.7850   17.1580  -40.5890 C.3   186  CYS186      0.0997
     65  SG         4.4150   16.0620  -41.0070 S.3   186  CYS186     -0.0797
     66  N          9.0780   17.9800  -41.8510 N.am  187  ILE187     -0.1963
     67  CA        10.2730   18.7610  -41.5190 C.3   187  ILE187      0.1727
     68  C         10.3800   19.9590  -42.4600 C.2   187  ILE187      0.2617
     69  O          9.9000   19.9220  -43.5940 O.2   187  ILE187     -0.2715
     70  CB        11.5670   17.9520  -41.6930 C.3   187  ILE187      0.0290
     71  CG1       11.6060   16.7960  -40.6960 C.3   187  ILE187      0.0022
     72  CG2       12.7730   18.8730  -41.5300 C.3   187  ILE187      0.0023
     73  CD1       12.8130   15.8860  -40.8710 C.3   187  ILE187      0.0001
     74  N         11.0190   21.0180  -41.9750 N.am  188  SER188     -0.1936
     75  CA        11.2330   22.2330  -42.7510 C.3   188  SER188      0.2055
     76  C          9.9800   22.9900  -43.1770 C.2   188  SER188      0.2643
     77  O          9.9790   23.6620  -44.2050 O.2   188  SER188     -0.2714
     78  CB        12.0810   21.9170  -43.9850 C.3   188  SER188      0.2130
     79  OG        13.3820   21.4980  -43.6070 O.3   188  SER188     -0.2179
     80  N          8.9090   22.8870  -42.4020 N.am  189  ASN189     -0.1957
     81  CA         7.7050   23.6250  -42.7510 C.3   189  ASN189      0.1819
     82  C          7.9650   25.0690  -42.3570 C.2   189  ASN189      0.2621
     83  O          8.8980   25.3640  -41.6010 O.2   189  ASN189     -0.2715
     84  CB         6.4790   23.1040  -41.9950 C.3   189  ASN189      0.1195
     85  CG         5.1780   23.3970  -42.7290 C.2   189  ASN189      0.2630
     86  OD1        4.1380   22.7800  -42.4590 O.2   189  ASN189     -0.2716
     87  ND2        5.2280   24.3370  -43.6670 N.am  189  ASN189     -0.0877
     88  N          7.1500   25.9710  -42.8840 N.am  190  GLU190     -0.1977
     89  CA         7.2870   27.3850  -42.5750 C.3   190  GLU190      0.1602
     90  C          5.9130   27.8920  -42.1820 C.2   190  GLU190      0.2287
     91  O          4.9110   27.2060  -42.3770 O.2   190  GLU190     -0.2864
     92  CB         7.7960   28.1550  -43.7970 C.3   190  GLU190      0.0415
     93  CG         9.1430   27.6800  -44.3280 C.3   190  GLU190      0.1163
     94  CD         9.4930   28.3070  -45.6720 C.2   190  GLU190      0.3649
     95  OE1        9.6160   29.5480  -45.7310 O.co2 190  GLU190     -0.2457
     96  OE2        9.6400   27.5630  -46.6670 O.co2 190  GLU190     -0.2457
@<TRIPOS>BOND
     1    29    28    1
     2    26    28   ar
     3    26    24   ar
     4    16    17    1
     5    16    15    1
     6    28    27   ar
     7    24    23   ar
     8    15    14    1
     9    14    13    1
    10    12    11    2
    11    27    25   ar
    12    23    25   ar
    13    23    22    1
    14    36    35    1
    15    36    30    1
    16    96    94   ar
    17    11    10    1
    18    11    18   am
    19    35    34    1
    20    13    10    1
    21    19    22    1
    22    19    18    1
    23    19    20    1
    24    10     9    1
    25    58    57    1
    26    34    31    1
    27    30    20   am
    28    30    31    1
    29    95    94   ar
    30    94    93    1
    31    20    21    2
    32    33    32    2
    33    31    32    1
    34    57    59    1
    35    57    56    1
    36    32    37   am
    37    55    54    2
    38    50    49    1
    39    93    92    1
    40    43    42    1
    41    56    53    1
    42    77    76    2
    43    53    54    1
    44    53    52    1
    45    78    79    1
    46    78    75    1
    47    37    38    1
    48    92    89    1
    49    54    60   am
    50    87    85   am
    51    69    68    2
    52    38    39    1
    53    38    41    1
    54    48    47    2
    55    52    47   am
    56    76    75    1
    57    76    80   am
    58    47    46    1
    59    49    46    1
    60    49    51    1
    61    88    89    1
    62    88    82   am
    63    42    41    1
    64    42    44    1
    65    81    80    1
    66    81    82    1
    67    81    84    1
    68    75    74    1
    69    39    40    2
    70    85    86    2
    71    85    84    1
    72    89    90    1
    73    68    74   am
    74    68    67    1
    75    60    61    1
    76    91    90    2
    77    82    83    2
    78    46    45    1
    79    66    67    1
    80    66    62   am
    81    61    62    1
    82    61    64    1
    83    70    72    1
    84    70    67    1
    85    70    71    1
    86    62    63    2
    87     4     3    2
    88    65    64    1
    89    73    71    1
    90     7     6    1
    91     3     2    1
    92     5     6    1
    93     5     2    1
    94     6     8    1
    95     1     2    1
