@<TRIPOS>MOLECULE
tmp/3lm9A00.pdb
 105 101 0 0 0
SMALL
GASTEIGER

@<TRIPOS>ATOM
      1  N         47.2580  -40.5850  -26.1980 N.3    57  PHE57      -0.1227
      2  CA        46.0210  -39.8620  -26.5210 C.3    57  PHE57       0.1736
      3  C         45.6040  -40.2170  -27.9570 C.2    57  PHE57       0.2596
      4  O         46.4520  -40.5350  -28.7850 O.2    57  PHE57      -0.2718
      5  CB        46.1730  -38.3150  -26.3530 C.3    57  PHE57       0.0547
      6  CG        47.0180  -37.6590  -27.3910 C.ar   57  PHE57      -0.0202
      7  CD1       46.4450  -37.1280  -28.5350 C.ar   57  PHE57      -0.0042
      8  CD2       48.3660  -37.5270  -27.2250 C.ar   57  PHE57      -0.0042
      9  CE1       47.2370  -36.5070  -29.4890 C.ar   57  PHE57      -0.0003
     10  CE2       49.1720  -36.9220  -28.2190 C.ar   57  PHE57      -0.0003
     11  CZ        48.5900  -36.4160  -29.3310 C.ar   57  PHE57      -0.0000
     12  N         44.2990  -40.2340  -28.2230 N.am   58  GLY58      -0.1943
     13  CA        43.7630  -40.6700  -29.5170 C.3    58  GLY58       0.1998
     14  C         42.8320  -39.6350  -30.0920 C.2    58  GLY58       0.2480
     15  O         42.7810  -38.5070  -29.6320 O.2    58  GLY58      -0.2729
     16  N         42.0410  -39.9990  -31.0770 N.am   59  PRO59      -0.2726
     17  CA        41.9060  -41.2970  -31.6420 C.3    59  PRO59       0.1402
     18  C         43.1780  -41.8610  -32.1900 C.2    59  PRO59       0.2269
     19  O         44.0230  -41.1200  -32.6760 O.2    59  PRO59      -0.2865
     20  CB        40.9160  -41.0750  -32.7780 C.3    59  PRO59       0.0296
     21  CG        40.0730  -39.8970  -32.2950 C.3    59  PRO59       0.0237
     22  CD        41.0320  -39.0320  -31.5700 C.3    59  PRO59       0.0939
     23  N         45.1820  -46.9360  -26.2240 N.3   100  THR100     -0.1203
     24  CA        44.9280  -45.5980  -25.7630 C.3   100  THR100      0.1994
     25  C         45.4280  -45.4210  -24.3220 C.2   100  THR100      0.2618
     26  O         45.6740  -46.4270  -23.5440 O.2   100  THR100     -0.2717
     27  CB        43.4370  -45.2320  -25.8430 C.3   100  THR100      0.1784
     28  OG1       42.6710  -46.1460  -25.0460 O.3   100  THR100     -0.2211
     29  CG2       42.9920  -45.3230  -27.3180 C.3   100  THR100      0.0376
     30  N         45.5690  -44.1730  -23.9550 N.am  101  ASP101     -0.1959
     31  CA        45.9150  -43.8260  -22.6340 C.3   101  ASP101      0.1840
     32  C         44.9060  -44.2900  -21.6120 C.2   101  ASP101      0.2621
     33  O         45.2800  -44.7450  -20.5930 O.2   101  ASP101     -0.2715
     34  CB        46.1700  -42.3320  -22.5370 C.3   101  ASP101      0.1450
     35  CG        45.0320  -41.5000  -23.0620 C.2   101  ASP101      0.3671
     36  OD1       43.9860  -42.0190  -23.4140 O.co2 101  ASP101     -0.2456
     37  OD2       45.1730  -40.3030  -23.1070 O.co2 101  ASP101     -0.2456
     38  N         43.6300  -44.1570  -21.8900 N.am  102  VAL102     -0.1977
     39  CA        42.5880  -44.6160  -20.9530 C.3   102  VAL102      0.1596
     40  C         42.4530  -46.1340  -20.9430 C.2   102  VAL102      0.2287
     41  O         42.1530  -46.6940  -19.9030 O.2   102  VAL102     -0.2864
     42  CB        41.1910  -43.9360  -21.2570 C.3   102  VAL102      0.0276
     43  CG1       41.3150  -42.4570  -20.9950 C.3   102  VAL102      0.0022
     44  CG2       40.7200  -44.1770  -22.7410 C.3   102  VAL102      0.0022
     45  N         38.6790  -40.9440  -17.7760 N.3   125  THR125     -0.1218
     46  CA        39.4410  -39.7780  -17.3520 C.3   125  THR125      0.1862
     47  C         38.7070  -38.5080  -17.7460 C.2   125  THR125      0.2287
     48  O         38.1730  -38.3820  -18.8530 O.2   125  THR125     -0.2866
     49  CB        40.8820  -39.7660  -17.8610 C.3   125  THR125      0.1770
     50  OG1       41.6040  -38.8160  -17.0690 O.3   125  THR125     -0.2211
     51  CG2       41.0180  -39.3790  -19.3100 C.3   125  THR125      0.0375
     52  N         40.8190  -33.6330  -21.8930 N.3   129  GLY129     -0.1210
     53  CA        39.7440  -34.3040  -22.6180 C.3   129  GLY129      0.1956
     54  C         38.9690  -35.2490  -21.7080 C.2   129  GLY129      0.2612
     55  O         39.3600  -35.4400  -20.5180 O.2   129  GLY129     -0.2717
     56  N         37.8810  -35.7950  -22.2440 N.am  130  ILE130     -0.1965
     57  CA        37.2590  -36.9160  -21.6500 C.3   130  ILE130      0.1727
     58  C         37.4360  -38.1440  -22.5250 C.2   130  ILE130      0.2616
     59  O         37.2820  -38.1130  -23.7280 O.2   130  ILE130     -0.2715
     60  CB        35.8080  -36.6700  -21.4000 C.3   130  ILE130      0.0290
     61  CG1       35.6610  -35.5360  -20.3970 C.3   130  ILE130      0.0022
     62  CG2       35.0920  -37.9640  -20.8620 C.3   130  ILE130      0.0023
     63  CD1       34.1530  -35.0210  -20.2100 C.3   130  ILE130      0.0001
     64  N         37.8100  -39.2440  -21.9060 N.am  131  GLY131     -0.1955
     65  CA        37.9280  -40.5390  -22.6010 C.3   131  GLY131      0.1869
     66  C         37.7210  -41.7020  -21.6560 C.2   131  GLY131      0.2309
     67  O         37.7010  -41.5410  -20.4300 O.2   131  GLY131     -0.2863
     68  N         38.5270  -48.2810  -31.0440 N.3   146  HIS146     -0.1241
     69  CA        38.4250  -48.1940  -29.5990 C.3   146  HIS146      0.1621
     70  C         37.2940  -47.2090  -29.3570 C.2   146  HIS146      0.2264
     71  O         36.9610  -46.4640  -30.2500 O.2   146  HIS146     -0.2867
     72  CB        39.7330  -47.6440  -29.0090 C.3   146  HIS146      0.0745
     73  CG        40.1230  -46.3310  -29.5920 C.ar  146  HIS146      0.0817
     74  ND1       39.6650  -45.1450  -29.0990 N.ar  146  HIS146     -0.2268
     75  CD2       40.9920  -46.0110  -30.5870 C.ar  146  HIS146      0.1154
     76  CE1       40.1940  -44.1440  -29.7900 C.ar  146  HIS146      0.1986
     77  NE2       41.0180  -44.6400  -30.6920 N.ar  146  HIS146     -0.2212
     78  N         35.1820  -43.9090  -27.8910 N.3   148  GLU148     -0.1245
     79  CA        35.4440  -42.5030  -27.7820 C.3   148  GLU148      0.1567
     80  C         34.2720  -41.9290  -26.9970 C.2   148  GLU148      0.2260
     81  O         33.5660  -41.0400  -27.4400 O.2   148  GLU148     -0.2867
     82  CB        35.5870  -41.8560  -29.1600 C.3   148  GLU148      0.0388
     83  CG        37.0380  -41.8910  -29.7560 C.3   148  GLU148      0.1160
     84  CD        38.0220  -41.0850  -28.8890 C.2   148  GLU148      0.3649
     85  OE1       37.5790  -40.0370  -28.3980 O.co2 148  GLU148     -0.2457
     86  OE2       39.2040  -41.4760  -28.6560 O.co2 148  GLU148     -0.2457
     87  N         32.6410  -38.1790  -26.3600 N.3   150  HIS150     -0.1241
     88  CA        31.9520  -37.3690  -27.3620 C.3   150  HIS150      0.1621
     89  C         30.5010  -37.7110  -27.5460 C.2   150  HIS150      0.2264
     90  O         29.8780  -37.2900  -28.5190 O.2   150  HIS150     -0.2867
     91  CB        32.7200  -37.3940  -28.6890 C.3   150  HIS150      0.0745
     92  CG        34.1100  -36.8240  -28.5340 C.ar  150  HIS150      0.0817
     93  ND1       34.3920  -35.4780  -28.6820 N.ar  150  HIS150     -0.2268
     94  CD2       35.2590  -37.4120  -28.1110 C.ar  150  HIS150      0.1154
     95  CE1       35.6670  -35.2800  -28.3960 C.ar  150  HIS150      0.1986
     96  NE2       36.2180  -36.4360  -28.0470 N.ar  150  HIS150     -0.2212
     97  N         32.4680  -34.1430  -23.4080 N.3   173  GLU173     -0.1245
     98  CA        33.7770  -33.5000  -23.2530 C.3   173  GLU173      0.1567
     99  C         33.6530  -31.9930  -23.4500 C.2   173  GLU173      0.2260
    100  O         34.2870  -31.2090  -22.7220 O.2   173  GLU173     -0.2867
    101  CB        34.7990  -34.0510  -24.2600 C.3   173  GLU173      0.0388
    102  CG        36.1160  -33.2370  -24.3730 C.3   173  GLU173      0.1160
    103  CD        37.1490  -33.9140  -25.2300 C.2   173  GLU173      0.3649
    104  OE1       37.5990  -35.0670  -24.8780 O.co2 173  GLU173     -0.2457
    105  OE2       37.4630  -33.3220  -26.2980 O.co2 173  GLU173     -0.2457
@<TRIPOS>BOND
     1    20    21    1
     2    20    17    1
     3    19    18    2
     4    21    22    1
     5    18    17    1
     6    17    16    1
     7    22    16    1
     8    16    14   am
     9    68    69    1
    10    77    75   ar
    11    77    76   ar
    12    75    73   ar
    13    71    70    2
    14    14    15    2
    15    14    13    1
    16    76    74   ar
    17    83    82    1
    18    83    84    1
    19    69    70    1
    20    69    72    1
    21    73    74   ar
    22    73    72    1
    23    13    12    1
    24     9    11   ar
    25     9     7   ar
    26    11    10   ar
    27    82    79    1
    28    84    86   ar
    29    84    85   ar
    30     4     3    2
    31    91    92    1
    32    91    88    1
    33    93    92   ar
    34    93    95   ar
    35     7     6   ar
    36    92    94   ar
    37    90    89    2
    38    95    96   ar
    39    12     3   am
    40    10     8   ar
    41    94    96   ar
    42     3     2    1
    43    78    79    1
    44    79    80    1
    45    89    88    1
    46    81    80    2
    47     6     8   ar
    48     6     5    1
    49    88    87    1
    50    29    27    1
    51     2     5    1
    52     2     1    1
    53   105   103   ar
    54    23    24    1
    55    27    24    1
    56    27    28    1
    57    24    25    1
    58   103   104   ar
    59   103   102    1
    60   102   101    1
    61    25    30   am
    62    25    26    2
    63   101    98    1
    64    30    31    1
    65    59    58    2
    66    99    98    1
    67    99   100    2
    68    36    35   ar
    69    97    98    1
    70    37    35   ar
    71    35    34    1
    72    44    42    1
    73    31    34    1
    74    31    32    1
    75    53    52    1
    76    53    54    1
    77    65    64    1
    78    65    66    1
    79    58    64   am
    80    58    57    1
    81    56    54   am
    82    56    57    1
    83    38    32   am
    84    38    39    1
    85    54    55    2
    86    66    67    2
    87    57    60    1
    88    32    33    2
    89    60    62    1
    90    60    61    1
    91    42    43    1
    92    42    39    1
    93    39    40    1
    94    40    41    2
    95    61    63    1
    96    51    49    1
    97    48    47    2
    98    49    46    1
    99    49    50    1
   100    45    46    1
   101    47    46    1
