@<TRIPOS>MOLECULE
tmp/3lm9A01.pdb
 132 126 0 0 0
SMALL
GASTEIGER

@<TRIPOS>ATOM
      1  N         50.8970  -37.8570  -23.9330 N.3     8  GLY8       -0.1210
      2  CA        49.8110  -36.9080  -23.7000 C.3     8  GLY8        0.1956
      3  C         49.9900  -35.7770  -24.6800 C.2     8  GLY8        0.2612
      4  O         51.0500  -35.6310  -25.2990 O.2     8  GLY8       -0.2717
      5  N         48.9640  -34.9700  -24.8340 N.am    9  GLY9       -0.1942
      6  CA        49.0630  -33.7990  -25.6790 C.3     9  GLY9        0.2014
      7  C         49.9060  -32.6960  -25.1180 C.2     9  GLY9        0.2640
      8  O         50.4630  -31.9540  -25.8840 O.2     9  GLY9       -0.2714
      9  N         50.0750  -32.6290  -23.7890 N.am   10  THR10      -0.1936
     10  CA        50.9250  -31.6020  -23.1500 C.3    10  THR10       0.2028
     11  C         52.2440  -32.1720  -22.7280 C.2    10  THR10       0.2642
     12  O         53.2620  -31.5210  -22.9120 O.2    10  THR10      -0.2714
     13  CB        50.2060  -30.9750  -21.9310 C.3    10  THR10       0.1808
     14  OG1       48.9770  -30.4150  -22.4110 O.3    10  THR10      -0.2208
     15  CG2       50.9930  -29.8070  -21.2760 C.3    10  THR10       0.0379
     16  N         52.2480  -33.4150  -22.1980 N.am   11  LYS11      -0.1977
     17  CA        53.4800  -34.0390  -21.7810 C.3    11  LYS11       0.1596
     18  C         53.5610  -35.5210  -22.0930 C.2    11  LYS11       0.2287
     19  O         52.5530  -36.1770  -22.2590 O.2    11  LYS11      -0.2864
     20  CB        53.7310  -33.7510  -20.2940 C.3    11  LYS11       0.0298
     21  CG        52.8050  -34.3950  -19.2960 C.3    11  LYS11       0.0038
     22  CD        53.1530  -33.9330  -17.8240 C.3    11  LYS11       0.0206
     23  CE        52.4500  -34.7670  -16.6630 C.3    11  LYS11       0.1093
     24  NZ        52.6390  -34.0760  -15.2470 N.3    11  LYS11      -0.1314
     25  N         38.6790  -40.9440  -17.7760 N.3   125  THR125     -0.1218
     26  CA        39.4410  -39.7780  -17.3520 C.3   125  THR125      0.1862
     27  C         38.7070  -38.5080  -17.7460 C.2   125  THR125      0.2287
     28  O         38.1730  -38.3820  -18.8530 O.2   125  THR125     -0.2866
     29  CB        40.8820  -39.7660  -17.8610 C.3   125  THR125      0.1770
     30  OG1       41.6040  -38.8160  -17.0690 O.3   125  THR125     -0.2211
     31  CG2       41.0180  -39.3790  -19.3100 C.3   125  THR125      0.0375
     32  N         39.8900  -34.7240  -17.8280 N.3   127  GLY127     -0.1210
     33  CA        40.8580  -33.6710  -17.7630 C.3   127  GLY127      0.1956
     34  C         40.7770  -32.7260  -18.9320 C.2   127  GLY127      0.2613
     35  O         39.7590  -32.0770  -19.1630 O.2   127  GLY127     -0.2717
     36  N         41.8740  -32.6070  -19.6590 N.am  128  THR128     -0.1938
     37  CA        41.9090  -31.7730  -20.8570 C.3   128  THR128      0.2028
     38  C         40.8970  -32.2960  -21.8510 C.2   128  THR128      0.2642
     39  O         40.2110  -31.5070  -22.5610 O.2   128  THR128     -0.2714
     40  CB        43.3300  -31.7420  -21.4570 C.3   128  THR128      0.1808
     41  OG1       44.1780  -31.0930  -20.4970 O.3   128  THR128     -0.2208
     42  CG2       43.3780  -30.9830  -22.8260 C.3   128  THR128      0.0379
     43  N         40.8190  -33.6330  -21.8930 N.am  129  GLY129     -0.1954
     44  CA        39.7440  -34.3040  -22.6180 C.3   129  GLY129      0.1869
     45  C         38.9690  -35.2490  -21.7080 C.2   129  GLY129      0.2309
     46  O         39.3600  -35.4400  -20.5180 O.2   129  GLY129     -0.2863
     47  N         37.9440  -30.2300  -18.2290 N.3   178  GLY178     -0.1210
     48  CA        38.5730  -29.1640  -17.4870 C.3   178  GLY178      0.1940
     49  C         38.5110  -27.8390  -18.2230 C.2   178  GLY178      0.2453
     50  O         38.0980  -26.7940  -17.6530 O.2   178  GLY178     -0.2732
     51  N         38.9140  -27.8480  -19.4860 N.am  179  PRO179     -0.2728
     52  CA        38.8270  -26.5830  -20.2480 C.3   179  PRO179      0.1401
     53  C         37.4070  -26.0660  -20.4730 C.2   179  PRO179      0.2269
     54  O         37.2310  -24.8870  -20.6680 O.2   179  PRO179     -0.2865
     55  CB        39.4700  -26.9150  -21.5980 C.3   179  PRO179      0.0296
     56  CG        40.4540  -28.0610  -21.2680 C.3   179  PRO179      0.0237
     57  CD        39.7610  -28.8540  -20.1310 C.3   179  PRO179      0.0939
     58  N         36.6020  -24.0890  -17.4250 N.3   182  GLU182     -0.1245
     59  CA        37.2320  -22.7610  -17.4240 C.3   182  GLU182      0.1567
     60  C         36.6050  -21.7950  -18.4020 C.2   182  GLU182      0.2260
     61  O         36.2960  -20.6760  -18.0360 O.2   182  GLU182     -0.2867
     62  CB        38.7400  -22.8400  -17.6900 C.3   182  GLU182      0.0388
     63  CG        39.4080  -23.8310  -16.7260 C.3   182  GLU182      0.1160
     64  CD        40.8730  -24.1250  -17.0580 C.2   182  GLU182      0.3649
     65  OE1       41.5450  -23.2520  -17.7030 O.co2 182  GLU182     -0.2457
     66  OE2       41.3130  -25.2440  -16.6460 O.co2 182  GLU182     -0.2457
     67  N         40.3540  -20.8520  -13.6710 N.3   188  LYS188     -0.1231
     68  CA        40.8740  -22.2170  -13.7280 C.3   188  LYS188      0.1693
     69  C         40.1190  -23.1030  -12.7430 C.2   188  LYS188      0.2592
     70  O         39.7340  -22.6600  -11.6480 O.2   188  LYS188     -0.2718
     71  CB        42.3940  -22.2880  -13.4410 C.3   188  LYS188      0.0285
     72  CG        43.3200  -21.7430  -14.5890 C.3   188  LYS188      0.0035
     73  CD        44.4540  -22.7600  -14.9930 C.3   188  LYS188      0.0206
     74  CE        45.5400  -22.1310  -15.9150 C.3   188  LYS188      0.1093
     75  NZ        46.6320  -21.3610  -15.1490 N.3   188  LYS188     -0.1314
     76  N         39.9330  -24.3560  -13.1620 N.am  189  ALA189     -0.1966
     77  CA        39.2430  -25.3850  -12.3700 C.3   189  ALA189      0.1728
     78  C         39.7260  -25.5010  -10.9090 C.2   189  ALA189      0.2616
     79  O         38.9300  -25.3670   -9.9940 O.2   189  ALA189     -0.2715
     80  CB        39.3120  -26.7590  -13.0840 C.3   189  ALA189      0.0334
     81  N         41.0160  -25.7220  -10.6870 N.am  190  ALA190     -0.1977
     82  CA        41.5540  -25.7740   -9.3060 C.3   190  ALA190      0.1597
     83  C         41.1590  -24.5640   -8.4220 C.2   190  ALA190      0.2287
     84  O         41.1110  -24.6800   -7.1900 O.2   190  ALA190     -0.2864
     85  CB        43.0860  -25.9690   -9.3240 C.3   190  ALA190      0.0319
     86  N         30.4160  -27.5860   -9.3680 N.3   199  TRP199     -0.1241
     87  CA        30.5700  -28.9910   -9.1380 C.3   199  TRP199      0.1605
     88  C         29.2200  -29.7360   -9.1520 C.2   199  TRP199      0.2264
     89  O         29.1890  -30.9060   -9.5250 O.2   199  TRP199     -0.2867
     90  CB        31.3870  -29.2510   -7.8720 C.3   199  TRP199      0.0550
     91  CG        32.5660  -28.3970   -7.8600 C.ar  199  TRP199      0.0003
     92  CD1       32.8070  -27.3800   -7.0220 C.ar  199  TRP199      0.0946
     93  CD2       33.6400  -28.4260   -8.7790 C.ar  199  TRP199      0.0152
     94  NE1       33.9800  -26.7700   -7.3470 N.ar  199  TRP199     -0.2442
     95  CE2       34.4970  -27.3860   -8.4480 C.ar  199  TRP199      0.0810
     96  CE3       33.9630  -29.2360   -9.8620 C.ar  199  TRP199      0.0012
     97  CZ2       35.6630  -27.1380   -9.1400 C.ar  199  TRP199      0.0191
     98  CZ3       35.1260  -28.9810  -10.5590 C.ar  199  TRP199      0.0001
     99  CH2       35.9550  -27.9530  -10.2000 C.ar  199  TRP199      0.0015
    100  N         41.6630  -38.3900  -13.6090 N.3   224  GLY224     -0.1210
    101  CA        41.9680  -37.1250  -14.2860 C.3   224  GLY224      0.1956
    102  C         41.9220  -35.8970  -13.3950 C.2   224  GLY224      0.2612
    103  O         41.4620  -35.9210  -12.2560 O.2   224  GLY224     -0.2717
    104  N         42.3900  -34.7940  -13.9610 N.am  225  GLY225     -0.1942
    105  CA        42.5840  -33.5880  -13.2110 C.3   225  GLY225      0.2014
    106  C         41.3340  -33.0830  -12.5660 C.2   225  GLY225      0.2638
    107  O         41.3760  -32.6200  -11.4410 O.2   225  GLY225     -0.2714
    108  N         40.2140  -33.1600  -13.2600 N.am  226  VAL226     -0.1977
    109  CA        38.9910  -32.5530  -12.7480 C.3   226  VAL226      0.1596
    110  C         38.5680  -33.3620  -11.5270 C.2   226  VAL226      0.2287
    111  O         38.1070  -32.8100  -10.5420 O.2   226  VAL226     -0.2864
    112  CB        37.8960  -32.5280  -13.8470 C.3   226  VAL226      0.0276
    113  CG1       36.5560  -32.2350  -13.2940 C.3   226  VAL226      0.0022
    114  CG2       38.2580  -31.5190  -14.9390 C.3   226  VAL226      0.0022
    115  N         40.1760  -34.5880   -9.2240 N.3   227  GLN227     -0.1231
    116  CA        40.8040  -34.2090   -7.9520 C.3   227  GLN227      0.1698
    117  C         39.8490  -33.4000   -7.0380 C.2   227  GLN227      0.2592
    118  O         40.0550  -33.3550   -5.8140 O.2   227  GLN227     -0.2718
    119  CB        42.1030  -33.4210   -8.1990 C.3   227  GLN227      0.0381
    120  CG        43.1000  -34.1400   -9.1230 C.3   227  GLN227      0.0905
    121  CD        43.5330  -35.4750   -8.5150 C.2   227  GLN227      0.2608
    122  OE1       44.1180  -35.4960   -7.4410 O.2   227  GLN227     -0.2717
    123  NE2       43.2110  -36.5880   -9.1820 N.am  227  GLN227     -0.0878
    124  N         38.8420  -32.7260   -7.6010 N.am  228  GLN228     -0.1979
    125  CA        37.7770  -32.1610   -6.7710 C.3   228  GLN228      0.1601
    126  C         36.8860  -33.3120   -6.3420 C.2   228  GLN228      0.2287
    127  O         35.8920  -33.6360   -7.0090 O.2   228  GLN228     -0.2864
    128  CB        36.9340  -31.1670   -7.5560 C.3   228  GLN228      0.0394
    129  CG        37.6830  -29.9460   -8.0700 C.3   228  GLN228      0.0908
    130  CD        38.2940  -29.0960   -6.9600 C.2   228  GLN228      0.2608
    131  OE1       39.4630  -28.6790   -7.0590 O.2   228  GLN228     -0.2717
    132  NE2       37.5190  -28.8500   -5.8950 N.am  228  GLN228     -0.0878
@<TRIPOS>BOND
     1     8     7    2
     2     6     7    1
     3     6     5    1
     4     4     3    2
     5     7     9   am
     6     5     3   am
     7     3     2    1
     8     1     2    1
     9     9    10    1
    10    10    11    1
    11    10    13    1
    12    12    11    2
    13    42    40    1
    14    11    16   am
    15    44    43    1
    16    44    45    1
    17    39    38    2
    18    14    13    1
    19    19    18    2
    20    16    17    1
    21    18    17    1
    22    13    15    1
    23    43    38   am
    24    38    37    1
    25    17    20    1
    26    45    46    2
    27    55    56    1
    28    55    52    1
    29    40    37    1
    30    40    41    1
    31    56    57    1
    32    37    36    1
    33    54    53    2
    34    53    52    1
    35    20    21    1
    36    52    51    1
    37    57    51    1
    38    36    34   am
    39    51    49   am
    40    31    29    1
    41    21    22    1
    42    35    34    2
    43    34    33    1
    44    28    27    2
    45    60    61    2
    46    60    59    1
    47    47    48    1
    48    49    50    2
    49    49    48    1
    50    29    26    1
    51    29    30    1
    52    32    33    1
    53    22    23    1
    54    25    26    1
    55    27    26    1
    56    65    64   ar
    57    62    59    1
    58    62    63    1
    59    58    59    1
    60    64    63    1
    61    64    66   ar
    62    23    24    1
    63    74    75    1
    64    74    73    1
    65    73    72    1
    66   114   112    1
    67    72    71    1
    68   101   100    1
    69   101   102    1
    70   104   102   am
    71   104   105    1
    72   112   113    1
    73   112   109    1
    74    68    67    1
    75    68    71    1
    76    68    69    1
    77   102   103    2
    78   108   109    1
    79   108   106   am
    80   105   106    1
    81    76    69   am
    82    76    77    1
    83    80    77    1
    84   109   110    1
    85    69    70    2
    86   106   107    2
    87    77    78    1
    88   110   111    2
    89    78    81   am
    90    78    79    2
    91    81    82    1
    92    98    99   ar
    93    98    96   ar
    94    99    97   ar
    95    96    93   ar
    96    89    88    2
    97    86    87    1
    98    85    82    1
    99    82    83    1
   100   115   116    1
   101   123   121   am
   102    88    87    1
   103    97    95   ar
   104    87    90    1
   105   120   121    1
   106   120   119    1
   107    93    95   ar
   108    93    91   ar
   109   121   122    2
   110    95    94   ar
   111    83    84    2
   112   119   116    1
   113   129   128    1
   114   129   130    1
   115   116   117    1
   116    90    91    1
   117    91    92   ar
   118   124   117   am
   119   124   125    1
   120   128   125    1
   121    94    92   ar
   122   131   130    2
   123   117   118    2
   124   127   126    2
   125   130   132   am
   126   125   126    1
