@<TRIPOS>MOLECULE
tmp/3lmhB00.pdb
 150 145 0 0 0
SMALL
GASTEIGER

@<TRIPOS>ATOM
      1  N         17.1410  -13.3520  -52.9780 N.3    35  PHE35      -0.1227
      2  CA        17.6740  -12.0050  -53.1530 C.3    35  PHE35       0.1736
      3  C         19.1240  -11.9230  -52.6800 C.2    35  PHE35       0.2595
      4  O         19.7910  -10.8950  -52.8310 O.2    35  PHE35      -0.2718
      5  CB        16.8210  -10.9840  -52.3970 C.3    35  PHE35       0.0547
      6  CG        16.9680  -11.0520  -50.8960 C.ar   35  PHE35      -0.0202
      7  CD1       17.9150  -10.2710  -50.2380 C.ar   35  PHE35      -0.0042
      8  CD2       16.1510  -11.8920  -50.1390 C.ar   35  PHE35      -0.0042
      9  CE1       18.0520  -10.3280  -48.8550 C.ar   35  PHE35      -0.0003
     10  CE2       16.2770  -11.9510  -48.7450 C.ar   35  PHE35      -0.0003
     11  CZ        17.2290  -11.1730  -48.1060 C.ar   35  PHE35      -0.0000
     12  N         19.5920  -13.0060  -52.0720 N.am   36  ALA36      -0.1966
     13  CA        20.9570  -13.0900  -51.5870 C.3    36  ALA36       0.1728
     14  C         21.3260  -14.5520  -51.4150 C.2    36  ALA36       0.2616
     15  O         20.4510  -15.4170  -51.3360 O.2    36  ALA36      -0.2715
     16  CB        21.1100  -12.3280  -50.2680 C.3    36  ALA36       0.0334
     17  N         22.6240  -14.8250  -51.3810 N.am   37  GLU37      -0.1963
     18  CA        23.1180  -16.1720  -51.1520 C.3    37  GLU37       0.1733
     19  C         24.3700  -16.1440  -50.2820 C.2    37  GLU37       0.2617
     20  O         25.0600  -15.1260  -50.1980 O.2    37  GLU37      -0.2715
     21  CB        23.4000  -16.8770  -52.4830 C.3    37  GLU37       0.0429
     22  CG        24.4970  -16.2260  -53.3230 C.3    37  GLU37       0.1163
     23  CD        24.6530  -16.8570  -54.6990 C.2    37  GLU37       0.3649
     24  OE1       23.9870  -17.8830  -54.9790 O.co2  37  GLU37      -0.2457
     25  OE2       25.4510  -16.3200  -55.5020 O.co2  37  GLU37      -0.2457
     26  N         24.6410  -17.2630  -49.6220 N.am   38  GLY38      -0.1940
     27  CA        25.8620  -17.4230  -48.8510 C.3    38  GLY38       0.2014
     28  C         26.5760  -18.6810  -49.2870 C.2    38  GLY38       0.2639
     29  O         26.2690  -19.2480  -50.3410 O.2    38  GLY38      -0.2714
     30  N         27.5200  -19.1270  -48.4650 N.am   39  ALA39      -0.1963
     31  CA        28.2820  -20.3350  -48.7550 C.3    39  ALA39       0.1728
     32  C         27.3950  -21.5780  -48.9080 C.2    39  ALA39       0.2616
     33  O         27.6440  -22.4120  -49.7860 O.2    39  ALA39      -0.2715
     34  CB        29.3480  -20.5550  -47.6860 C.3    39  ALA39       0.0334
     35  N         26.3530  -21.6890  -48.0800 N.am   40  LEU40      -0.1963
     36  CA        25.5600  -22.9290  -48.0080 C.3    40  LEU40       0.1728
     37  C         24.0520  -22.7900  -48.2450 C.2    40  LEU40       0.2616
     38  O         23.3580  -23.7970  -48.4140 O.2    40  LEU40      -0.2715
     39  CB        25.8140  -23.6510  -46.6740 C.3    40  LEU40       0.0311
     40  CG        27.2690  -24.0030  -46.3490 C.3    40  LEU40       0.0022
     41  CD1       27.4000  -24.4490  -44.8960 C.3    40  LEU40       0.0001
     42  CD2       27.8130  -25.0630  -47.3150 C.3    40  LEU40       0.0001
     43  N         23.5490  -21.5580  -48.2700 N.am   41  ARG41      -0.1963
     44  CA        22.1060  -21.3350  -48.3790 C.3    41  ARG41       0.1729
     45  C         21.7120  -19.9960  -49.0020 C.2    41  ARG41       0.2616
     46  O         22.5070  -19.0590  -49.0460 O.2    41  ARG41      -0.2715
     47  CB        21.4340  -21.5030  -47.0080 C.3    41  ARG41       0.0348
     48  CG        22.0480  -20.6810  -45.9210 C.3    41  ARG41       0.0492
     49  CD        21.6640  -21.1720  -44.5450 C.3    41  ARG41       0.2205
     50  NE        22.0700  -20.1790  -43.5610 N.pl3  41  ARG41      -0.0865
     51  CZ        21.6010  -20.0970  -42.3230 C.cat  41  ARG41       0.5346
     52  NH1       20.6940  -20.9580  -41.8910 N.pl3  41  ARG41       0.1354
     53  NH2       22.0380  -19.1400  -41.5150 N.pl3  41  ARG41       0.1354
     54  N         20.4660  -19.9260  -49.4660 N.am   42  GLU42      -0.1963
     55  CA        19.9270  -18.7360  -50.1220 C.3    42  GLU42       0.1733
     56  C         18.8590  -18.0720  -49.2640 C.2    42  GLU42       0.2616
     57  O         18.0820  -18.7550  -48.5970 O.2    42  GLU42      -0.2715
     58  CB        19.3450  -19.1220  -51.4860 C.3    42  GLU42       0.0429
     59  CG        20.3200  -19.9160  -52.3660 C.3    42  GLU42       0.1163
     60  CD        19.7180  -20.3650  -53.6850 C.2    42  GLU42       0.3649
     61  OE1       18.5360  -20.7720  -53.7070 O.co2  42  GLU42      -0.2457
     62  OE2       20.4330  -20.3190  -54.7070 O.co2  42  GLU42      -0.2457
     63  N         18.8330  -16.7430  -49.2720 N.am   43  ALA43      -0.1977
     64  CA        17.8200  -15.9870  -48.5450 C.3    43  ALA43       0.1597
     65  C         16.7130  -15.5150  -49.4870 C.2    43  ALA43       0.2287
     66  O         16.9930  -15.0320  -50.5860 O.2    43  ALA43      -0.2864
     67  CB        18.4460  -14.8140  -47.8230 C.3    43  ALA43       0.0319
     68  N         12.6520  -12.9790  -43.7710 N.3    87  VAL87      -0.1245
     69  CA        13.5980  -13.6770  -44.6280 C.3    87  VAL87       0.1561
     70  C         13.5360  -15.1760  -44.3670 C.2    87  VAL87       0.2260
     71  O         13.5170  -15.6160  -43.2170 O.2    87  VAL87      -0.2867
     72  CB        15.0430  -13.1730  -44.3930 C.3    87  VAL87       0.0252
     73  CG1       16.0540  -14.0430  -45.1230 C.3    87  VAL87       0.0019
     74  CG2       15.1880  -11.7280  -44.8290 C.3    87  VAL87       0.0019
     75  N         15.4420  -18.8720  -45.2780 N.3    89  LYS89      -0.1245
     76  CA        16.7150  -19.4250  -45.7190 C.3    89  LYS89       0.1561
     77  C         16.6240  -20.9230  -45.9450 C.2    89  LYS89       0.2260
     78  O         16.1460  -21.6620  -45.0910 O.2    89  LYS89      -0.2867
     79  CB        17.8370  -19.1050  -44.7170 C.3    89  LYS89       0.0271
     80  CG        18.0030  -17.6220  -44.4550 C.3    89  LYS89       0.0035
     81  CD        19.1260  -17.3510  -43.4700 C.3    89  LYS89       0.0206
     82  CE        19.4670  -15.8760  -43.4560 C.3    89  LYS89       0.1093
     83  NZ        20.5780  -15.5700  -42.5230 N.3    89  LYS89      -0.1314
     84  N         18.7650  -11.0650  -33.9030 N.3   127  LEU127     -0.1245
     85  CA        17.4120  -11.3400  -34.3360 C.3   127  LEU127      0.1561
     86  C         16.9680  -12.6980  -33.8400 C.2   127  LEU127      0.2260
     87  O         17.7750  -13.6160  -33.7060 O.2   127  LEU127     -0.2867
     88  CB        17.3330  -11.3930  -35.8670 C.3   127  LEU127      0.0270
     89  CG        17.7500  -10.1770  -36.6740 C.3   127  LEU127      0.0019
     90  CD1       17.5890  -10.5360  -38.1480 C.3   127  LEU127      0.0001
     91  CD2       16.9050   -8.9830  -36.2940 C.3   127  LEU127      0.0001
     92  N         13.7630  -15.6190  -40.2780 N.3   146  GLU146     -0.1231
     93  CA        14.1680  -14.5760  -39.3380 C.3   146  GLU146      0.1684
     94  C         13.6620  -13.2340  -39.8400 C.2   146  GLU146      0.2434
     95  O         13.2860  -13.1400  -41.0130 O.2   146  GLU146     -0.2733
     96  CB        15.6960  -14.5900  -39.1560 C.3   146  GLU146      0.0402
     97  CG        16.4980  -14.4890  -40.4480 C.3   146  GLU146      0.1161
     98  CD        17.9960  -14.6020  -40.2130 C.2   146  GLU146      0.3649
     99  OE1       18.4310  -15.5870  -39.5710 O.co2 146  GLU146     -0.2457
    100  OE2       18.7400  -13.7020  -40.6520 O.co2 146  GLU146     -0.2457
    101  N         13.6020  -12.2070  -38.9610 N.am  147  PRO147     -0.2718
    102  CA        13.1820  -10.8850  -39.4040 C.3   147  PRO147      0.1535
    103  C         14.0720  -10.3710  -40.5420 C.2   147  PRO147      0.2598
    104  O         15.1720  -10.8840  -40.7490 O.2   147  PRO147     -0.2715
    105  CB        13.3670  -10.0170  -38.1590 C.3   147  PRO147      0.0310
    106  CG        13.2690  -10.9810  -37.0030 C.3   147  PRO147      0.0237
    107  CD        13.9030  -12.2300  -37.5160 C.3   147  PRO147      0.0939
    108  N         13.5630   -9.3910  -41.2850 N.am  148  LEU148     -0.1964
    109  CA        14.3000   -8.7900  -42.3820 C.3   148  LEU148      0.1728
    110  C         15.1770   -7.6850  -41.8360 C.2   148  LEU148      0.2616
    111  O         14.7060   -6.8120  -41.1110 O.2   148  LEU148     -0.2715
    112  CB        13.3400   -8.2200  -43.4390 C.3   148  LEU148      0.0311
    113  CG        13.9590   -7.3350  -44.5450 C.3   148  LEU148      0.0022
    114  CD1       14.7340   -8.1660  -45.5580 C.3   148  LEU148      0.0001
    115  CD2       12.9000   -6.4700  -45.2490 C.3   148  LEU148      0.0001
    116  N         16.4570   -7.7420  -42.1690 N.am  149  LEU149     -0.1977
    117  CA        17.3650   -6.6440  -41.8650 C.3   149  LEU149      0.1596
    118  C         17.3050   -5.6580  -43.0280 C.2   149  LEU149      0.2287
    119  O         17.5100   -6.0460  -44.1800 O.2   149  LEU149     -0.2864
    120  CB        18.8010   -7.1610  -41.6990 C.3   149  LEU149      0.0297
    121  CG        19.1170   -7.9950  -40.4470 C.3   149  LEU149      0.0022
    122  CD1       20.5170   -8.5460  -40.4890 C.3   149  LEU149      0.0001
    123  CD2       18.9180   -7.1820  -39.1940 C.3   149  LEU149      0.0001
    124  N         24.3270   -4.8960  -45.0080 N.3   153  PHE153     -0.1241
    125  CA        24.6910   -6.0840  -44.2570 C.3   153  PHE153      0.1605
    126  C         26.2010   -6.2770  -44.3390 C.2   153  PHE153      0.2264
    127  O         26.7670   -6.3140  -45.4340 O.2   153  PHE153     -0.2867
    128  CB        23.9590   -7.2940  -44.8430 C.3   153  PHE153      0.0534
    129  CG        24.0610   -8.5480  -44.0130 C.ar  153  PHE153     -0.0203
    130  CD1       22.9610   -9.0050  -43.2890 C.ar  153  PHE153     -0.0042
    131  CD2       25.2350   -9.2960  -43.9840 C.ar  153  PHE153     -0.0042
    132  CE1       23.0320  -10.1780  -42.5400 C.ar  153  PHE153     -0.0003
    133  CE2       25.3130  -10.4690  -43.2300 C.ar  153  PHE153     -0.0003
    134  CZ        24.2060  -10.9040  -42.5080 C.ar  153  PHE153     -0.0000
    135  N         27.7070  -10.6040  -37.6640 N.3   191  GLN191     -0.1245
    136  CA        27.3140  -10.0220  -38.9380 C.3   191  GLN191      0.1566
    137  C         25.8900   -9.5440  -38.8670 C.2   191  GLN191      0.2260
    138  O         25.0850  -10.0750  -38.0980 O.2   191  GLN191     -0.2867
    139  CB        27.4620  -11.0520  -40.0560 C.3   191  GLN191      0.0367
    140  CG        26.7730  -12.3860  -39.7710 C.3   191  GLN191      0.0905
    141  CD        27.0790  -13.4270  -40.8080 C.2   191  GLN191      0.2608
    142  OE1       27.3480  -13.1010  -41.9640 O.2   191  GLN191     -0.2717
    143  NE2       27.0370  -14.6910  -40.4110 N.am  191  GLN191     -0.0878
    144  N         22.7450  -11.4060  -36.9290 N.3   198  THR198     -0.1218
    145  CA        22.0590  -12.6520  -37.2380 C.3   198  THR198      0.1862
    146  C         23.0840  -13.6740  -37.6770 C.2   198  THR198      0.2287
    147  O         24.2230  -13.3220  -37.9640 O.2   198  THR198     -0.2866
    148  CB        20.9700  -12.4550  -38.3370 C.3   198  THR198      0.1770
    149  OG1       20.1370  -13.6150  -38.3820 O.3   198  THR198     -0.2211
    150  CG2       21.6120  -12.2500  -39.7300 C.3   198  THR198      0.0375
@<TRIPOS>BOND
     1    25    23   ar
     2    24    23   ar
     3    62    60   ar
     4    23    22    1
     5    61    60   ar
     6    60    59    1
     7    22    21    1
     8     2     1    1
     9     2     3    1
    10     2     5    1
    11     4     3    2
    12     3    12   am
    13    21    18    1
    14     5     6    1
    15    59    58    1
    16    12    13    1
    17    13    14    1
    18    13    16    1
    19    58    55    1
    20    14    17   am
    21    14    15    2
    22    17    18    1
    23    18    19    1
    24     6     7   ar
    25     6     8   ar
    26    66    65    2
    27    29    28    2
    28    19    20    2
    29    19    26   am
    30     7     9   ar
    31     8    10   ar
    32    55    54    1
    33    55    56    1
    34    33    32    2
    35    26    27    1
    36    65    64    1
    37    54    45   am
    38    28    27    1
    39    28    30   am
    40    63    56   am
    41    63    64    1
    42    56    57    2
    43    46    45    2
    44    45    44    1
    45    32    31    1
    46    32    35   am
    47     9    11   ar
    48    31    30    1
    49    31    34    1
    50    10    11   ar
    51    64    67    1
    52    38    37    2
    53    44    43    1
    54    44    47    1
    55    43    37   am
    56    37    36    1
    57    35    36    1
    58    36    39    1
    59    42    40    1
    60    47    48    1
    61    39    40    1
    62    40    41    1
    63    77    76    1
    64    77    78    2
    65    48    49    1
    66    76    75    1
    67    76    79    1
    68   114   113    1
    69   127   126    2
    70   115   113    1
    71    73    72    1
    72   124   125    1
    73   128   125    1
    74   128   129    1
    75    74    72    1
    76    79    80    1
    77    69    72    1
    78    69    70    1
    79    69    68    1
    80   113   112    1
    81    49    50    1
    82    80    81    1
    83    70    71    2
    84   126   125    1
    85   119   118    2
    86   129   131   ar
    87   129   130   ar
    88   131   133   ar
    89    50    51    2
    90    81    82    1
    91    82    83    1
    92   112   109    1
    93   130   132   ar
    94   133   134   ar
    95   118   117    1
    96   132   134   ar
    97   109   110    1
    98   109   108    1
    99    51    52    1
   100    51    53    1
   101   116   117    1
   102   116   110   am
   103   142   141    2
   104   117   120    1
   105   110   111    2
   106   120   121    1
   107   108   103   am
   108    95    94    2
   109   141   143   am
   110   141   140    1
   111   104   103    2
   112   100    98   ar
   113   103   102    1
   114   122   121    1
   115    97    98    1
   116    97    96    1
   117   121   123    1
   118    92    93    1
   119    98    99   ar
   120   139   140    1
   121   139   136    1
   122    94    93    1
   123    94   101   am
   124   150   148    1
   125   102   101    1
   126   102   105    1
   127    93    96    1
   128   101   107    1
   129   136   137    1
   130   136   135    1
   131   137   138    2
   132   149   148    1
   133   148   145    1
   134   105   106    1
   135    90    89    1
   136   147   146    2
   137   146   145    1
   138   107   106    1
   139   145   144    1
   140    89    91    1
   141    89    88    1
   142    88    85    1
   143    85    84    1
   144    85    86    1
   145    86    87    2
