@<TRIPOS>MOLECULE
tmp/3lmiD00.pdb
 172 163 0 0 0
SMALL
GASTEIGER

@<TRIPOS>ATOM
      1  N          7.0780  -32.6630    4.5610 N.3    35  PHE35      -0.1227
      2  CA         6.8360  -33.0830    3.1710 C.3    35  PHE35       0.1736
      3  C          7.3900  -34.4750    2.9370 C.2    35  PHE35       0.2595
      4  O          7.0340  -35.1270    1.9680 O.2    35  PHE35      -0.2718
      5  CB         7.4170  -32.0900    2.1510 C.3    35  PHE35       0.0547
      6  CG         8.9340  -32.0790    2.0980 C.ar   35  PHE35      -0.0202
      7  CD1        9.6160  -32.9440    1.2590 C.ar   35  PHE35      -0.0042
      8  CD2        9.6650  -31.2050    2.8930 C.ar   35  PHE35      -0.0042
      9  CE1       10.9910  -32.9390    1.2100 C.ar   35  PHE35      -0.0003
     10  CE2       11.0440  -31.1890    2.8500 C.ar   35  PHE35      -0.0003
     11  CZ        11.7140  -32.0620    2.0130 C.ar   35  PHE35      -0.0000
     12  N          8.2610  -34.9250    3.8330 N.am   36  ALA36      -0.1966
     13  CA         8.8040  -36.2790    3.7790 C.3    36  ALA36       0.1728
     14  C          9.0830  -36.7580    5.1880 C.2    36  ALA36       0.2616
     15  O          9.0720  -35.9640    6.1340 O.2    36  ALA36      -0.2715
     16  CB        10.0800  -36.3140    2.9540 C.3    36  ALA36       0.0334
     17  N          9.3490  -38.0530    5.3300 N.am   37  GLU37      -0.1963
     18  CA         9.6590  -38.6290    6.6380 C.3    37  GLU37       0.1733
     19  C         10.2950  -39.9890    6.4650 C.2    37  GLU37       0.2617
     20  O         10.0630  -40.6630    5.4640 O.2    37  GLU37      -0.2715
     21  CB         8.3870  -38.7920    7.4680 C.3    37  GLU37       0.0429
     22  CG         7.3570  -39.6870    6.8050 C.3    37  GLU37       0.1163
     23  CD         6.1290  -39.9130    7.6700 C.2    37  GLU37       0.3649
     24  OE1        5.7470  -38.9990    8.4340 O.co2  37  GLU37      -0.2457
     25  OE2        5.5370  -41.0130    7.5790 O.co2  37  GLU37      -0.2457
     26  N         11.0940  -40.3880    7.4470 N.am   38  GLY38      -0.1940
     27  CA        11.6540  -41.7270    7.4810 C.3    38  GLY38       0.2014
     28  C         11.5010  -42.3210    8.8700 C.2    38  GLY38       0.2639
     29  O         10.7160  -41.8320    9.6770 O.2    38  GLY38      -0.2714
     30  N         12.2690  -43.3690    9.1510 N.am   39  ALA39      -0.1963
     31  CA        12.1910  -44.0730   10.4260 C.3    39  ALA39       0.1728
     32  C         12.4540  -43.1690   11.6300 C.2    39  ALA39       0.2616
     33  O         11.8070  -43.3050   12.6720 O.2    39  ALA39      -0.2715
     34  CB        13.1670  -45.2430   10.4300 C.3    39  ALA39       0.0334
     35  N         13.4050  -42.2550   11.4960 N.am   40  LEU40      -0.1963
     36  CA        13.8380  -41.4460   12.6370 C.3    40  LEU40       0.1728
     37  C         13.2810  -40.0160   12.6360 C.2    40  LEU40       0.2616
     38  O         12.9220  -39.4760   13.6920 O.2    40  LEU40      -0.2715
     39  CB        15.3720  -41.4190   12.6960 C.3    40  LEU40       0.0311
     40  CG        16.0740  -42.7720   12.9070 C.3    40  LEU40       0.0022
     41  CD1       17.4950  -42.7760   12.3400 C.3    40  LEU40       0.0001
     42  CD2       16.0770  -43.1660   14.3820 C.3    40  LEU40       0.0001
     43  N         13.1940  -39.4100   11.4530 N.am   41  ARG41      -0.1977
     44  CA        12.9280  -37.9780   11.3570 C.3    41  ARG41       0.1597
     45  C         11.8470  -37.5260   10.3720 C.2    41  ARG41       0.2287
     46  O         11.4640  -38.2580    9.4560 O.2    41  ARG41      -0.2864
     47  CB        14.2300  -37.2630   11.0220 C.3    41  ARG41       0.0334
     48  CG        15.1410  -37.1200   12.2170 C.3    41  ARG41       0.0492
     49  CD        16.4110  -36.4430   11.7980 C.3    41  ARG41       0.2205
     50  NE        17.2120  -37.3210   10.9620 N.pl3  41  ARG41      -0.0865
     51  CZ        18.4350  -37.0310   10.5610 C.cat  41  ARG41       0.5346
     52  NH1       18.9750  -35.8730   10.9150 N.pl3  41  ARG41       0.1354
     53  NH2       19.1140  -37.8890    9.8110 N.pl3  41  ARG41       0.1354
     54  N         10.9070  -34.1210    7.7670 N.3    43  ALA43      -0.1245
     55  CA        11.5800  -33.0760    6.9880 C.3    43  ALA43       0.1562
     56  C         10.6070  -31.9970    6.5100 C.2    43  ALA43       0.2260
     57  O          9.5450  -32.3120    5.9640 O.2    43  ALA43      -0.2867
     58  CB        12.3020  -33.6970    5.7920 C.3    43  ALA43       0.0290
     59  N         16.0320  -27.3270    3.7370 N.3    92  VAL92      -0.1245
     60  CA        15.2890  -28.3530    4.4890 C.3    92  VAL92       0.1561
     61  C         15.5810  -28.3480    5.9990 C.2    92  VAL92       0.2260
     62  O         16.7470  -28.2850    6.3960 O.2    92  VAL92      -0.2867
     63  CB        15.5660  -29.7730    3.8940 C.3    92  VAL92       0.0252
     64  CG1       14.9830  -30.8870    4.7960 C.3    92  VAL92       0.0019
     65  CG2       14.9960  -29.8610    2.4720 C.3    92  VAL92       0.0019
     66  N         14.9480  -30.4800    9.7570 N.3    94  LYS94      -0.1245
     67  CA        14.6060  -31.8020   10.2810 C.3    94  LYS94       0.1561
     68  C         14.4730  -31.8870   11.8140 C.2    94  LYS94       0.2260
     69  O         15.3360  -31.3900   12.5500 O.2    94  LYS94      -0.2867
     70  CB        15.6260  -32.8380    9.8130 C.3    94  LYS94       0.0271
     71  CG        15.7500  -32.9650    8.2950 C.3    94  LYS94       0.0035
     72  CD        16.7170  -34.0780    7.8990 C.3    94  LYS94       0.0206
     73  CE        16.7420  -34.2710    6.3770 C.3    94  LYS94       0.1093
     74  NZ        17.8210  -35.2130    5.9800 N.3    94  LYS94      -0.1314
     75  N         26.0760  -33.1160    1.0820 N.3   133  LEU133     -0.1245
     76  CA        25.5950  -31.7750    1.4320 C.3   133  LEU133      0.1561
     77  C         26.1560  -31.2910    2.7750 C.2   133  LEU133      0.2260
     78  O         26.4160  -32.1020    3.6620 O.2   133  LEU133     -0.2867
     79  CB        24.0610  -31.7940    1.5700 C.3   133  LEU133      0.0270
     80  CG        23.2020  -32.1010    0.3370 C.3   133  LEU133      0.0019
     81  CD1       21.7160  -32.1470    0.7380 C.3   133  LEU133      0.0001
     82  CD2       23.4440  -31.0450   -0.6880 C.3   133  LEU133      0.0001
     83  N         19.6420  -28.3340    6.2290 N.3   157  GLU157     -0.1231
     84  CA        20.5070  -28.7130    5.0950 C.3   157  GLU157      0.1684
     85  C         19.8830  -28.2790    3.7560 C.2   157  GLU157      0.2434
     86  O         18.6910  -27.9830    3.6980 O.2   157  GLU157     -0.2733
     87  CB        20.7800  -30.2320    5.1020 C.3   157  GLU157      0.0402
     88  CG        19.5070  -31.1000    4.9090 C.3   157  GLU157      0.1161
     89  CD        19.7780  -32.5900    5.0510 C.2   157  GLU157      0.3649
     90  OE1       20.1790  -33.0230    6.1630 O.co2 157  GLU157     -0.2457
     91  OE2       19.6000  -33.3340    4.0480 O.co2 157  GLU157     -0.2457
     92  N         20.6870  -28.2170    2.6780 N.am  158  PRO158     -0.2718
     93  CA        20.1020  -27.8160    1.3770 C.3   158  PRO158      0.1535
     94  C         19.0220  -28.7700    0.8640 C.2   158  PRO158      0.2598
     95  O         18.9430  -29.9320    1.2980 O.2   158  PRO158     -0.2715
     96  CB        21.3090  -27.8230    0.4100 C.3   158  PRO158      0.0310
     97  CG        22.5460  -27.7600    1.3050 C.3   158  PRO158      0.0237
     98  CD        22.1390  -28.4680    2.5870 C.3   158  PRO158      0.0939
     99  N         18.1960  -28.2610   -0.0530 N.am  159  LEU159     -0.1964
    100  CA        17.1710  -29.0450   -0.7310 C.3   159  LEU159      0.1728
    101  C         17.7600  -29.8140   -1.9130 C.2   159  LEU159      0.2616
    102  O         18.4160  -29.2270   -2.7880 O.2   159  LEU159     -0.2715
    103  CB        16.0490  -28.1180   -1.2470 C.3   159  LEU159      0.0311
    104  CG        14.8760  -28.7700   -1.9860 C.3   159  LEU159      0.0022
    105  CD1       14.1220  -29.7580   -1.0500 C.3   159  LEU159      0.0001
    106  CD2       13.9000  -27.7240   -2.5950 C.3   159  LEU159      0.0001
    107  N         17.5150  -31.1180   -1.9390 N.am  160  LEU160     -0.1977
    108  CA        17.7380  -31.9450   -3.1290 C.3   160  LEU160      0.1596
    109  C         16.4910  -32.0220   -4.0260 C.2   160  LEU160      0.2287
    110  O         15.3980  -32.3440   -3.5480 O.2   160  LEU160     -0.2864
    111  CB        18.0870  -33.3690   -2.7040 C.3   160  LEU160      0.0297
    112  CG        19.3640  -33.5430   -1.8830 C.3   160  LEU160      0.0022
    113  CD1       19.3780  -34.9200   -1.2190 C.3   160  LEU160      0.0001
    114  CD2       20.5920  -33.3370   -2.7760 C.3   160  LEU160      0.0001
    115  N         14.6850  -39.0660   -5.1400 N.3   164  PHE164     -0.1241
    116  CA        15.5540  -39.3580   -3.9970 C.3   164  PHE164      0.1605
    117  C         15.6710  -40.8740   -3.8220 C.2   164  PHE164      0.2264
    118  O         14.6760  -41.5420   -3.6120 O.2   164  PHE164     -0.2867
    119  CB        14.9910  -38.6960   -2.7300 C.3   164  PHE164      0.0534
    120  CG        15.9080  -38.7680   -1.5200 C.ar  164  PHE164     -0.0203
    121  CD1       16.5460  -37.6280   -1.0510 C.ar  164  PHE164     -0.0042
    122  CD2       16.0880  -39.9640   -0.8330 C.ar  164  PHE164     -0.0042
    123  CE1       17.3680  -37.6700    0.0670 C.ar  164  PHE164     -0.0003
    124  CE2       16.9160  -40.0230    0.2900 C.ar  164  PHE164     -0.0003
    125  CZ        17.5590  -38.8700    0.7360 C.ar  164  PHE164     -0.0000
    126  N         17.7400  -44.3560   -1.9870 N.3   166  LYS166     -0.1245
    127  CA        18.6830  -45.0030   -1.0720 C.3   166  LYS166      0.1561
    128  C         19.4150  -46.1470   -1.7910 C.2   166  LYS166      0.2260
    129  O         18.7940  -46.9930   -2.4350 O.2   166  LYS166     -0.2867
    130  CB        17.9630  -45.5130    0.1970 C.3   166  LYS166      0.0271
    131  CG        18.8870  -46.2520    1.1900 C.3   166  LYS166      0.0035
    132  CD        18.1940  -46.5890    2.5270 C.3   166  LYS166      0.0206
    133  CE        17.9370  -45.3410    3.3540 C.3   166  LYS166      0.1093
    134  NZ        17.6350  -45.6530    4.7860 N.3   166  LYS166     -0.1314
    135  N         24.4760  -46.2880    4.5840 N.3   200  ASP200     -0.1239
    136  CA        23.2520  -45.4860    4.4410 C.3   200  ASP200      0.1674
    137  C         23.4890  -44.3970    3.3540 C.2   200  ASP200      0.2266
    138  O         23.2010  -43.2070    3.5630 O.2   200  ASP200     -0.2867
    139  CB        22.8860  -44.8440    5.7980 C.3   200  ASP200      0.1410
    140  CG        21.3700  -44.8170    6.0810 C.2   200  ASP200      0.3668
    141  OD1       20.5740  -45.4300    5.3410 O.co2 200  ASP200     -0.2456
    142  OD2       20.9670  -44.1830    7.0800 O.co2 200  ASP200     -0.2456
    143  N         22.5970  -42.4010    0.3390 N.3   202  GLN202     -0.1245
    144  CA        21.2960  -42.0690   -0.2510 C.3   202  GLN202      0.1566
    145  C         21.2380  -40.6100   -0.7150 C.2   202  GLN202      0.2260
    146  O         21.9210  -39.7320   -0.1460 O.2   202  GLN202     -0.2867
    147  CB        20.1860  -42.3210    0.7890 C.3   202  GLN202      0.0367
    148  CG        20.4090  -41.5590    2.0890 C.3   202  GLN202      0.0905
    149  CD        19.3760  -41.8820    3.1700 C.2   202  GLN202      0.2608
    150  OE1       18.2050  -42.1570    2.8730 O.2   202  GLN202     -0.2717
    151  NE2       19.8110  -41.8480    4.4380 N.am  202  GLN202     -0.0878
    152  N         23.1100  -37.2860    1.4010 N.3   209  THR209     -0.1203
    153  CA        22.8380  -36.7250    2.7410 C.3   209  THR209      0.1994
    154  C         22.3690  -37.8100    3.7400 C.2   209  THR209      0.2617
    155  O         22.1010  -38.9600    3.3610 O.2   209  THR209     -0.2717
    156  CB        21.7980  -35.5770    2.6780 C.3   209  THR209      0.1784
    157  OG1       21.6960  -34.9290    3.9620 O.3   209  THR209     -0.2211
    158  CG2       20.4230  -36.1090    2.2650 C.3   209  THR209      0.0376
    159  N         22.2870  -37.4620    5.0210 N.am  210  ALA210     -0.1979
    160  CA        21.8200  -38.4280    6.0390 C.3   210  ALA210      0.1597
    161  C         22.5600  -39.7860    6.0740 C.2   210  ALA210      0.2287
    162  O         21.9190  -40.8260    6.1630 O.2   210  ALA210     -0.2864
    163  CB        20.3010  -38.6680    5.8830 C.3   210  ALA210      0.0319
    164  N         25.1950  -42.8030    7.7280 N.3   212  GLN212     -0.1245
    165  CA        25.4850  -43.3670    9.0520 C.3   212  GLN212      0.1566
    166  C         26.8870  -43.9760    9.1030 C.2   212  GLN212      0.2260
    167  O         27.3620  -44.5330    8.1180 O.2   212  GLN212     -0.2867
    168  CB        24.4630  -44.4400    9.4420 C.3   212  GLN212      0.0367
    169  CG        23.3700  -43.9340   10.3340 C.3   212  GLN212      0.0905
    170  CD        23.8830  -43.6940   11.7440 C.2   212  GLN212      0.2608
    171  OE1       23.3520  -42.8870   12.4770 O.2   212  GLN212     -0.2717
    172  NE2       24.9350  -44.4090   12.1170 N.am  212  GLN212     -0.0878
@<TRIPOS>BOND
     1   115   116    1
     2   109   110    2
     3   109   108    1
     4   116   117    1
     5   116   119    1
     6   117   118    2
     7   108   111    1
     8   108   107    1
     9   102   101    2
    10   114   112    1
    11   119   120    1
    12   111   112    1
    13   106   104    1
    14   129   128    2
    15   126   127    1
    16   104   103    1
    17   104   105    1
    18   107   101   am
    19   101   100    1
    20   112   113    1
    21   128   127    1
    22   120   121   ar
    23   120   122   ar
    24   103   100    1
    25   127   130    1
    26   121   123   ar
    27   122   124   ar
    28   100    99    1
    29   145   144    1
    30   145   146    2
    31    82    80    1
    32   144   143    1
    33   144   147    1
    34    99    94   am
    35   123   125   ar
    36   130   131    1
    37   124   125   ar
    38    80    81    1
    39    80    79    1
    40    96    97    1
    41    96    93    1
    42   147   148    1
    43    94    95    2
    44    94    93    1
    45    75    76    1
    46   131   132    1
    47     9     7   ar
    48     9    11   ar
    49     7     6   ar
    50    97    98    1
    51    93    92    1
    52   152   153    1
    53    76    79    1
    54    76    77    1
    55     4     3    2
    56    11    10   ar
    57   148   149    1
    58     6     5    1
    59     6     8   ar
    60     5     2    1
    61   158   156    1
    62    65    63    1
    63   132   133    1
    64    98    92    1
    65    92    85   am
    66   156   153    1
    67   156   157    1
    68   153   154    1
    69    77    78    2
    70    10     8   ar
    71   150   149    2
    72     3     2    1
    73     3    12   am
    74    16    13    1
    75   149   151   am
    76     2     1    1
    77   133   134    1
    78   137   138    2
    79   137   136    1
    80   155   154    2
    81    86    85    2
    82    59    60    1
    83   154   159   am
    84    85    84    1
    85    13    12    1
    86    13    14    1
    87    63    60    1
    88    63    64    1
    89    91    89   ar
    90   136   135    1
    91   136   139    1
    92    60    61    1
    93    88    89    1
    94    88    87    1
    95   159   160    1
    96    89    90   ar
    97    84    87    1
    98    84    83    1
    99    14    17   am
   100    14    15    2
   101    17    18    1
   102   141   140   ar
   103    20    19    2
   104    58    55    1
   105   139   140    1
   106   163   160    1
   107    57    56    2
   108    74    73    1
   109    61    62    2
   110   160   161    1
   111   161   162    2
   112   140   142   ar
   113    73    72    1
   114    19    18    1
   115    19    26   am
   116    56    55    1
   117    18    21    1
   118    22    21    1
   119    22    23    1
   120    55    54    1
   121    26    27    1
   122    27    28    1
   123    25    23   ar
   124    23    24   ar
   125   164   165    1
   126    72    71    1
   127   167   166    2
   128    71    70    1
   129    28    30   am
   130    28    29    2
   131   165   166    1
   132   165   168    1
   133    30    31    1
   134   168   169    1
   135    46    45    2
   136    66    67    1
   137    53    51    1
   138    70    67    1
   139    67    68    1
   140   169   170    1
   141    45    44    1
   142    31    34    1
   143    31    32    1
   144    51    52    1
   145    51    50    2
   146    50    49    1
   147    47    44    1
   148    47    48    1
   149    44    43    1
   150    43    37   am
   151    35    32   am
   152    35    36    1
   153    32    33    2
   154   170   172   am
   155   170   171    2
   156    49    48    1
   157    68    69    2
   158    41    40    1
   159    37    36    1
   160    37    38    2
   161    36    39    1
   162    39    40    1
   163    40    42    1
