@<TRIPOS>MOLECULE
tmp/3lmkB00.pdb
 128 122 0 0 0
SMALL
GASTEIGER

@<TRIPOS>ATOM
      1  N         20.8760    8.2630  -26.8880 N.3    39  TYR39      -0.1241
      2  CA        20.2510    7.7830  -25.6650 C.3    39  TYR39       0.1605
      3  C         19.0890    8.6510  -25.2150 C.2    39  TYR39       0.2264
      4  O         18.2940    8.2210  -24.3870 O.2    39  TYR39      -0.2867
      5  CB        21.2930    7.6810  -24.5370 C.3    39  TYR39       0.0534
      6  CG        22.0620    6.3760  -24.5270 C.ar   39  TYR39      -0.0201
      7  CD1       22.8930    6.0240  -25.5960 C.ar   39  TYR39      -0.0009
      8  CD2       21.9590    5.4910  -23.4560 C.ar   39  TYR39      -0.0009
      9  CE1       23.5900    4.8160  -25.6020 C.ar   39  TYR39       0.0417
     10  CE2       22.6730    4.2800  -23.4450 C.ar   39  TYR39       0.0417
     11  CZ        23.4840    3.9570  -24.5280 C.ar   39  TYR39       0.1957
     12  OH        24.1830    2.7610  -24.5480 O.3    39  TYR39      -0.2866
     13  N         15.5590    8.5310  -28.7100 N.3    43  ARG43      -0.1245
     14  CA        14.5920    7.6810  -28.0100 C.3    43  ARG43       0.1563
     15  C         13.2700    8.4190  -27.7230 C.2    43  ARG43       0.2260
     16  O         12.1960    7.9010  -27.9940 O.2    43  ARG43      -0.2867
     17  CB        15.2270    7.0850  -26.7440 C.3    43  ARG43       0.0307
     18  CG        16.3940    6.1730  -27.0770 C.3    43  ARG43       0.0489
     19  CD        17.0060    5.4540  -25.8870 C.3    43  ARG43       0.2205
     20  NE        18.1520    4.6330  -26.3130 N.pl3  43  ARG43      -0.0865
     21  CZ        19.0350    4.0520  -25.5030 C.cat  43  ARG43       0.5346
     22  NH1       18.9420    4.1760  -24.1880 N.pl3  43  ARG43       0.1354
     23  NH2       20.0310    3.3460  -26.0210 N.pl3  43  ARG43       0.1354
     24  N         19.8150    9.0790  -16.4890 N.3    75  TRP75      -0.1241
     25  CA        20.5530    7.8730  -16.1620 C.3    75  TRP75       0.1605
     26  C         20.9440    7.8910  -14.6790 C.2    75  TRP75       0.2264
     27  O         22.0700    7.5470  -14.3160 O.2    75  TRP75      -0.2867
     28  CB        21.8090    7.8070  -17.0390 C.3    75  TRP75       0.0550
     29  CG        22.4140    6.4540  -17.1880 C.ar   75  TRP75       0.0003
     30  CD1       23.4420    5.9180  -16.4420 C.ar   75  TRP75       0.0946
     31  CD2       22.0620    5.4620  -18.1560 C.ar   75  TRP75       0.0152
     32  NE1       23.7430    4.6580  -16.8930 N.ar   75  TRP75      -0.2442
     33  CE2       22.9060    4.3480  -17.9380 C.ar   75  TRP75       0.0810
     34  CE3       21.1040    5.3980  -19.1820 C.ar   75  TRP75       0.0012
     35  CZ2       22.8190    3.1860  -18.7090 C.ar   75  TRP75       0.0191
     36  CZ3       21.0220    4.2500  -19.9500 C.ar   75  TRP75       0.0001
     37  CH2       21.8730    3.1550  -19.7070 C.ar   75  TRP75       0.0015
     38  N         16.8990    3.1130  -18.8040 N.3   100  GLY100     -0.1210
     39  CA        17.9590    2.4330  -19.5190 C.3   100  GLY100      0.1956
     40  C         18.7730    1.4640  -18.6860 C.2   100  GLY100      0.2613
     41  O         19.0960    0.3530  -19.1360 O.2   100  GLY100     -0.2717
     42  N         19.0920    1.8830  -17.4680 N.am  101  SER101     -0.1938
     43  CA        20.0940    1.2120  -16.6430 C.3   101  SER101      0.2055
     44  C         19.5050    0.2300  -15.6620 C.2   101  SER101      0.2643
     45  O         18.4580    0.4930  -15.0850 O.2   101  SER101     -0.2714
     46  CB        20.8730    2.2600  -15.8670 C.3   101  SER101      0.2130
     47  OG        21.2150    1.7410  -14.6080 O.3   101  SER101     -0.2179
     48  N         20.1930   -0.8820  -15.4320 N.am  102  SER102     -0.1949
     49  CA        19.6760   -1.8840  -14.5000 C.3   102  SER102      0.1924
     50  C         19.3540   -1.3590  -13.0880 C.2   102  SER102      0.2314
     51  O         18.2420   -1.5310  -12.6170 O.2   102  SER102     -0.2863
     52  CB        20.5990   -3.0970  -14.4270 C.3   102  SER102      0.2116
     53  OG        20.4890   -3.8360  -15.6220 O.3   102  SER102     -0.2180
     54  N         16.7640   -1.9650  -22.3490 N.3   123  SER123     -0.1202
     55  CA        18.2170   -2.0490  -22.1810 C.3   123  SER123      0.2020
     56  C         18.7180   -2.5060  -20.7980 C.2   123  SER123      0.2619
     57  O         19.9220   -2.6750  -20.6090 O.2   123  SER123     -0.2717
     58  CB        18.8830   -0.7350  -22.5760 C.3   123  SER123      0.2103
     59  OG        18.5370    0.3270  -21.6890 O.3   123  SER123     -0.2182
     60  N         17.8170   -2.7270  -19.8460 N.am  124  ALA124     -0.1965
     61  CA        18.2180   -3.1550  -18.5080 C.3   124  ALA124      0.1728
     62  C         18.4120   -4.6820  -18.4470 C.2   124  ALA124      0.2616
     63  O         17.4650   -5.4400  -18.2930 O.2   124  ALA124     -0.2715
     64  CB        17.2190   -2.6580  -17.4430 C.3   124  ALA124      0.0334
     65  N         19.6620   -5.1110  -18.5410 N.am  125  THR125     -0.1951
     66  CA        19.9960   -6.5130  -18.7880 C.3   125  THR125      0.1897
     67  C         20.3220   -7.3690  -17.5620 C.2   125  THR125      0.2313
     68  O         20.5740   -8.5630  -17.7030 O.2   125  THR125     -0.2863
     69  CB        21.1950   -6.5980  -19.7280 C.3   125  THR125      0.1794
     70  OG1       22.2400   -5.7770  -19.2060 O.3   125  THR125     -0.2208
     71  CG2       20.8310   -6.1270  -21.1390 C.3   125  THR125      0.0378
     72  N         24.0680   -3.4990  -12.7540 N.3   173  TYR173     -0.1241
     73  CA        24.4680   -4.0510  -14.0520 C.3   173  TYR173      0.1605
     74  C         25.8480   -4.7100  -13.9870 C.2   173  TYR173      0.2264
     75  O         25.9750   -5.9270  -14.1860 O.2   173  TYR173     -0.2867
     76  CB        24.4260   -2.9680  -15.1260 C.3   173  TYR173      0.0534
     77  CG        25.1370   -3.2520  -16.4420 C.ar  173  TYR173     -0.0201
     78  CD1       24.7910   -4.3470  -17.2410 C.ar  173  TYR173     -0.0009
     79  CD2       26.1280   -2.3930  -16.9010 C.ar  173  TYR173     -0.0009
     80  CE1       25.4410   -4.5780  -18.4580 C.ar  173  TYR173      0.0417
     81  CE2       26.7780   -2.6170  -18.0980 C.ar  173  TYR173      0.0417
     82  CZ        26.4330   -3.7010  -18.8780 C.ar  173  TYR173      0.1957
     83  OH        27.0840   -3.8910  -20.0800 O.3   173  TYR173     -0.2866
     84  N         29.6960    0.1280  -17.9560 N.3   229  GLU229     -0.1231
     85  CA        28.9750    1.1620  -18.6620 C.3   229  GLU229      0.1699
     86  C         29.9180    1.8140  -19.6560 C.2   229  GLU229      0.2592
     87  O         31.1190    1.9110  -19.4060 O.2   229  GLU229     -0.2718
     88  CB        28.4790    2.2030  -17.6650 C.3   229  GLU229      0.0402
     89  CG        27.0730    1.9540  -17.1830 C.3   229  GLU229      0.1161
     90  CD        26.6120    2.8740  -16.0740 C.2   229  GLU229      0.3649
     91  OE1       25.4920    2.6480  -15.5810 O.co2 229  GLU229     -0.2457
     92  OE2       27.3270    3.8170  -15.6880 O.co2 229  GLU229     -0.2457
     93  N         29.3790    2.2670  -20.7760 N.am  230  GLY230     -0.1957
     94  CA        30.1580    3.0010  -21.7620 C.3   230  GLY230      0.1869
     95  C         31.0680    4.0460  -21.1430 C.2   230  GLY230      0.2309
     96  O         32.2460    4.1210  -21.4840 O.2   230  GLY230     -0.2863
     97  N         27.8250   -4.7590  -23.1780 N.3   255  ASP255     -0.1225
     98  CA        26.9700   -3.8930  -23.9950 C.3   255  ASP255      0.1805
     99  C         26.9480   -2.3850  -23.6450 C.2   255  ASP255      0.2598
    100  O         26.5570   -1.5570  -24.4730 O.2   255  ASP255     -0.2718
    101  CB        25.5470   -4.4410  -24.0230 C.3   255  ASP255      0.1424
    102  CG        24.8040   -4.2170  -22.7110 C.2   255  ASP255      0.3668
    103  OD1       25.1500   -4.9030  -21.7170 O.co2 255  ASP255     -0.2456
    104  OD2       23.8690   -3.3610  -22.6850 O.co2 255  ASP255     -0.2456
    105  N         27.3480   -2.0160  -22.4370 N.am  256  GLY256     -0.1957
    106  CA        27.5050   -0.5900  -22.1260 C.3   256  GLY256      0.1869
    107  C         28.3540    0.0850  -23.1960 C.2   256  GLY256      0.2309
    108  O         28.1520    1.2540  -23.4940 O.2   256  GLY256     -0.2863
    109  N         29.6010    1.8380  -29.5090 N.3   260  ARG260     -0.1245
    110  CA        29.3660    3.2550  -29.2100 C.3   260  ARG260      0.1563
    111  C         30.5800    4.1430  -29.5040 C.2   260  ARG260      0.2260
    112  O         31.6200    4.0430  -28.8360 O.2   260  ARG260     -0.2867
    113  CB        28.9790    3.4360  -27.7440 C.3   260  ARG260      0.0307
    114  CG        27.5820    2.9790  -27.3750 C.3   260  ARG260      0.0489
    115  CD        27.0400    3.9890  -26.3880 C.3   260  ARG260      0.2205
    116  NE        27.1420    3.5440  -25.0150 N.pl3 260  ARG260     -0.0865
    117  CZ        27.2020    4.3530  -23.9630 C.cat 260  ARG260      0.5346
    118  NH1       27.2600    3.8300  -22.7460 N.pl3 260  ARG260      0.1354
    119  NH2       27.2290    5.6740  -24.1200 N.pl3 260  ARG260      0.1354
    120  N         20.3410    0.6020  -29.8990 N.3   340  LYS340     -0.1245
    121  CA        19.2550   -0.0590  -29.1960 C.3   340  LYS340      0.1561
    122  C         17.8550    0.3860  -29.6620 C.2   340  LYS340      0.2260
    123  O         16.8600    0.1110  -28.9960 O.2   340  LYS340     -0.2867
    124  CB        19.4190    0.1660  -27.6860 C.3   340  LYS340      0.0271
    125  CG        20.6600   -0.5280  -27.0740 C.3   340  LYS340      0.0035
    126  CD        20.3050   -1.1630  -25.7350 C.3   340  LYS340      0.0206
    127  CE        21.3990   -2.1020  -25.2030 C.3   340  LYS340      0.1093
    128  NZ        22.5540   -1.4020  -24.5460 N.3   340  LYS340     -0.1314
@<TRIPOS>BOND
     1   120   121    1
     2   122   121    1
     3   122   123    2
     4   109   110    1
     5   111   110    1
     6   111   112    2
     7   110   113    1
     8   121   124    1
     9    13    14    1
    10    14    15    1
    11    14    17    1
    12    16    15    2
    13   113   114    1
    14   124   125    1
    15   114   115    1
    16    18    17    1
    17    18    19    1
    18   125   126    1
    19     1     2    1
    20   115   116    1
    21    20    19    1
    22    20    21    2
    23    23    21    1
    24   126   127    1
    25     2     3    1
    26     2     5    1
    27     9     7   ar
    28     9    11   ar
    29     7     6   ar
    30    21    22    1
    31     3     4    2
    32   127   128    1
    33   116   117    2
    34    12    11    1
    35     5     6    1
    36    11    10   ar
    37     6     8   ar
    38   100    99    2
    39   119   117    1
    40   101    98    1
    41   101   102    1
    42    98    99    1
    43    98    97    1
    44   117   118    1
    45    99   105   am
    46   108   107    2
    47     8    10   ar
    48   107   106    1
    49   102   104   ar
    50   102   103   ar
    51    58    55    1
    52    58    59    1
    53   105   106    1
    54    54    55    1
    55    55    56    1
    56    94    95    1
    57    94    93    1
    58    96    95    2
    59    71    69    1
    60    56    57    2
    61    56    60   am
    62    93    86   am
    63    83    82    1
    64    36    37   ar
    65    36    34   ar
    66    60    61    1
    67    69    70    1
    68    69    66    1
    69    37    35   ar
    70    86    87    2
    71    86    85    1
    72    39    38    1
    73    39    40    1
    74    34    31   ar
    75    41    40    2
    76    82    80   ar
    77    82    81   ar
    78    66    65    1
    79    66    67    1
    80    35    33   ar
    81    40    42   am
    82    85    84    1
    83    85    88    1
    84    65    62   am
    85    61    62    1
    86    61    64    1
    87    80    78   ar
    88    62    63    2
    89    31    33   ar
    90    31    29   ar
    91    81    79   ar
    92    33    32   ar
    93    68    67    2
    94    88    89    1
    95    42    43    1
    96    78    77   ar
    97    29    28    1
    98    29    30   ar
    99    89    90    1
   100    28    25    1
   101    79    77   ar
   102    32    30   ar
   103    43    46    1
   104    43    44    1
   105    24    25    1
   106    77    76    1
   107    25    26    1
   108    90    92   ar
   109    90    91   ar
   110    46    47    1
   111    44    48   am
   112    44    45    2
   113    53    52    1
   114    48    49    1
   115    76    73    1
   116    26    27    2
   117    49    52    1
   118    49    50    1
   119    75    74    2
   120    73    74    1
   121    73    72    1
   122    50    51    2
