@<TRIPOS>MOLECULE
tmp/3lmxD00.pdb
 103 100 0 0 0
SMALL
GASTEIGER

@<TRIPOS>ATOM
      1  N        -15.3400  -31.8910   66.4920 N.3    24  TYR24      -0.1241
      2  CA       -15.7290  -33.1960   66.9920 C.3    24  TYR24       0.1605
      3  C        -16.6610  -33.8010   65.9170 C.2    24  TYR24       0.2264
      4  O        -17.9040  -33.5930   65.9230 O.2    24  TYR24      -0.2867
      5  CB       -16.3670  -33.1010   68.3970 C.3    24  TYR24       0.0534
      6  CG       -16.8900  -34.4160   68.9650 C.ar   24  TYR24      -0.0201
      7  CD1      -16.3470  -35.6570   68.5770 C.ar   24  TYR24      -0.0009
      8  CD2      -17.9140  -34.4120   69.9130 C.ar   24  TYR24      -0.0009
      9  CE1      -16.8530  -36.8580   69.1080 C.ar   24  TYR24       0.0417
     10  CE2      -18.4070  -35.5780   70.4660 C.ar   24  TYR24       0.0417
     11  CZ       -17.8710  -36.8020   70.0640 C.ar   24  TYR24       0.1957
     12  OH       -18.4010  -37.9400   70.6210 O.3    24  TYR24      -0.2866
     13  N        -18.0200  -36.6350   64.8240 N.3    26  THR26      -0.1218
     14  CA       -19.2300  -37.4170   65.0110 C.3    26  THR26       0.1862
     15  C        -20.4380  -36.5080   65.3620 C.2    26  THR26       0.2287
     16  O        -21.5660  -36.9150   65.1610 O.2    26  THR26      -0.2866
     17  CB       -18.9940  -38.5460   66.0340 C.3    26  THR26       0.1770
     18  OG1      -18.1860  -39.5310   65.3990 O.3    26  THR26      -0.2211
     19  CG2      -20.2720  -39.2820   66.3850 C.3    26  THR26       0.0375
     20  N         -9.5200  -49.3170   76.7550 N.3   108  TYR108     -0.1241
     21  CA       -10.8770  -49.5540   77.2750 C.3   108  TYR108      0.1605
     22  C        -11.2160  -51.0360   77.2100 C.2   108  TYR108      0.2264
     23  O        -10.9170  -51.7020   76.2300 O.2   108  TYR108     -0.2867
     24  CB       -11.9310  -48.7700   76.4640 C.3   108  TYR108      0.0534
     25  CG       -12.0900  -47.3120   76.8510 C.ar  108  TYR108     -0.0201
     26  CD1      -13.1030  -46.9280   77.7410 C.ar  108  TYR108     -0.0009
     27  CD2      -11.2610  -46.3140   76.3140 C.ar  108  TYR108     -0.0009
     28  CE1      -13.2860  -45.5920   78.1140 C.ar  108  TYR108      0.0417
     29  CE2      -11.4290  -44.9540   76.6820 C.ar  108  TYR108      0.0417
     30  CZ       -12.4480  -44.6290   77.5960 C.ar  108  TYR108      0.1957
     31  OH       -12.6790  -43.3610   77.9950 O.3   108  TYR108     -0.2866
     32  N         -5.8280  -41.6870   75.2420 N.3   147  HIS147     -0.1241
     33  CA        -6.3390  -42.6580   74.3060 C.3   147  HIS147      0.1621
     34  C         -6.4010  -41.9890   72.9090 C.2   147  HIS147      0.2264
     35  O         -7.0600  -40.9800   72.7320 O.2   147  HIS147     -0.2867
     36  CB        -7.7360  -43.1050   74.8350 C.3   147  HIS147      0.0745
     37  CG        -8.5590  -43.8760   73.8610 C.ar  147  HIS147      0.0817
     38  ND1       -8.4640  -45.2500   73.7300 N.ar  147  HIS147     -0.2268
     39  CD2       -9.5360  -43.4810   73.0060 C.ar  147  HIS147      0.1154
     40  CE1       -9.3270  -45.6640   72.8130 C.ar  147  HIS147      0.1986
     41  NE2       -9.9820  -44.6100   72.3500 N.ar  147  HIS147     -0.2212
     42  N         -7.7460  -41.6200   69.0770 N.3   149  TRP149     -0.1241
     43  CA        -9.0560  -41.8840   68.4750 C.3   149  TRP149      0.1605
     44  C         -9.1680  -41.2900   67.0710 C.2   149  TRP149      0.2264
     45  O         -8.5080  -40.3070   66.7190 O.2   149  TRP149     -0.2867
     46  CB       -10.2050  -41.4080   69.3880 C.3   149  TRP149      0.0550
     47  CG       -10.2270  -39.9040   69.6490 C.ar  149  TRP149      0.0003
     48  CD1       -9.2160  -39.1250   70.1880 C.ar  149  TRP149      0.0946
     49  CD2      -11.3180  -39.0100   69.3910 C.ar  149  TRP149      0.0152
     50  NE1       -9.6120  -37.8100   70.2550 N.ar  149  TRP149     -0.2442
     51  CE2      -10.9000  -37.7090   69.7870 C.ar  149  TRP149      0.0810
     52  CE3      -12.6100  -39.1850   68.8940 C.ar  149  TRP149      0.0012
     53  CZ2      -11.7300  -36.5910   69.6880 C.ar  149  TRP149      0.0191
     54  CZ3      -13.4430  -38.0400   68.7650 C.ar  149  TRP149      0.0001
     55  CH2      -12.9930  -36.7730   69.1680 C.ar  149  TRP149      0.0015
     56  N         -7.4740  -38.3360   73.2250 N.3   157  ARG157     -0.1245
     57  CA        -8.1710  -37.9080   74.4760 C.3   157  ARG157      0.1563
     58  C         -7.1700  -37.5840   75.6070 C.2   157  ARG157      0.2260
     59  O         -6.2480  -38.3800   75.8240 O.2   157  ARG157     -0.2867
     60  CB        -9.1110  -39.0110   74.9860 C.3   157  ARG157      0.0307
     61  CG       -10.2800  -39.4370   74.0290 C.3   157  ARG157      0.0489
     62  CD       -11.1420  -38.2840   73.4510 C.3   157  ARG157      0.2205
     63  NE       -11.4230  -37.1340   74.3380 N.pl3 157  ARG157     -0.0865
     64  CZ       -12.2530  -37.1330   75.3860 C.cat 157  ARG157      0.5346
     65  NH1      -12.9080  -38.2250   75.7500 N.pl3 157  ARG157      0.1354
     66  NH2      -12.4060  -36.0280   76.0920 N.pl3 157  ARG157      0.1354
     67  N         -9.0090  -39.2090   81.0970 N.3   160  HIS160     -0.1241
     68  CA       -10.3230  -38.7360   81.5730 C.3   160  HIS160      0.1621
     69  C        -11.1080  -39.8800   82.1620 C.2   160  HIS160      0.2264
     70  O        -10.8240  -41.0650   81.8900 O.2   160  HIS160     -0.2867
     71  CB       -11.1310  -38.1330   80.4350 C.3   160  HIS160      0.0745
     72  CG       -11.3690  -39.1040   79.3260 C.ar  160  HIS160      0.0817
     73  ND1      -10.4110  -39.3920   78.3740 N.ar  160  HIS160     -0.2268
     74  CD2      -12.4250  -39.9120   79.0570 C.ar  160  HIS160      0.1154
     75  CE1      -10.8830  -40.3090   77.5420 C.ar  160  HIS160      0.1986
     76  NE2      -12.0950  -40.6500   77.9430 N.ar  160  HIS160     -0.2212
     77  N        -15.1960  -40.8740   82.7400 N.3   162  HIS162     -0.1241
     78  CA       -16.5750  -40.4660   82.4550 C.3   162  HIS162      0.1621
     79  C        -17.3940  -40.5300   83.7120 C.2   162  HIS162      0.2264
     80  O        -17.1640  -41.4130   84.5140 O.2   162  HIS162     -0.2867
     81  CB       -17.2080  -41.4160   81.4500 C.3   162  HIS162      0.0745
     82  CG       -16.5640  -41.3820   80.1060 C.ar  162  HIS162      0.0817
     83  ND1      -17.0720  -40.6340   79.0580 N.ar  162  HIS162     -0.2268
     84  CD2      -15.4880  -42.0510   79.6170 C.ar  162  HIS162      0.1154
     85  CE1      -16.3050  -40.8200   77.9910 C.ar  162  HIS162      0.1986
     86  NE2      -15.3370  -41.6680   78.3090 N.ar  162  HIS162     -0.2212
     87  N        -17.3400  -35.4970   81.7540 N.3   177  GLN177     -0.1245
     88  CA       -16.0190  -36.1290   81.8130 C.3   177  GLN177      0.1566
     89  C        -15.1390  -35.3270   82.7450 C.2   177  GLN177      0.2260
     90  O        -15.2050  -34.0930   82.7710 O.2   177  GLN177     -0.2867
     91  CB       -15.3750  -36.2600   80.4240 C.3   177  GLN177      0.0367
     92  CG       -16.1700  -37.1590   79.4770 C.3   177  GLN177      0.0905
     93  CD       -15.5190  -37.3450   78.1120 C.2   177  GLN177      0.2608
     94  OE1      -14.2930  -37.5000   77.9940 O.2   177  GLN177     -0.2717
     95  NE2      -16.3490  -37.3810   77.0640 N.am  177  GLN177     -0.0878
     96  N        -13.2660  -32.7000   71.9250 N.3   191  ILE191     -0.1245
     97  CA       -14.3840  -32.9800   72.8560 C.3   191  ILE191      0.1561
     98  C        -14.4510  -31.9700   74.0370 C.2   191  ILE191      0.2260
     99  O        -15.5210  -31.3700   74.3020 O.2   191  ILE191     -0.2867
    100  CB       -14.4170  -34.4700   73.3200 C.3   191  ILE191      0.0252
    101  CG1      -14.7740  -35.3660   72.1450 C.3   191  ILE191      0.0019
    102  CG2      -15.4390  -34.6640   74.4590 C.3   191  ILE191      0.0019
    103  CD1      -14.7250  -36.9000   72.4310 C.3   191  ILE191      0.0001
@<TRIPOS>BOND
     1    13    14    1
     2    14    15    1
     3    14    17    1
     4    16    15    2
     5    18    17    1
     6     3     4    2
     7     3     2    1
     8    17    19    1
     9     1     2    1
    10    45    44    2
    11     2     5    1
    12    44    43    1
    13     5     6    1
    14    43    42    1
    15    43    46    1
    16     7     6   ar
    17     7     9   ar
    18    54    52   ar
    19    54    55   ar
    20    52    49   ar
    21     6     8   ar
    22     9    11   ar
    23    55    53   ar
    24    46    47    1
    25    49    47   ar
    26    49    51   ar
    27    47    48   ar
    28    53    51   ar
    29    51    50   ar
    30     8    10   ar
    31    11    10   ar
    32    11    12    1
    33    48    50   ar
    34    96    97    1
    35   101   103    1
    36   101   100    1
    37    41    40   ar
    38    41    39   ar
    39    35    34    2
    40    40    38   ar
    41    97   100    1
    42    97    98    1
    43    34    33    1
    44    39    37   ar
    45    56    57    1
    46   100   102    1
    47    62    61    1
    48    62    63    1
    49    38    37   ar
    50    37    36    1
    51    61    60    1
    52    98    99    2
    53    33    36    1
    54    33    32    1
    55    63    64    2
    56    57    60    1
    57    57    58    1
    58    64    65    1
    59    64    66    1
    60    58    59    2
    61    23    22    2
    62    27    29   ar
    63    27    25   ar
    64    24    25    1
    65    24    21    1
    66    29    30   ar
    67    20    21    1
    68    25    26   ar
    69    95    93   am
    70    22    21    1
    71    75    76   ar
    72    75    73   ar
    73    30    31    1
    74    30    28   ar
    75    26    28   ar
    76    76    74   ar
    77    85    86   ar
    78    85    83   ar
    79    94    93    2
    80    93    92    1
    81    86    84   ar
    82    73    72   ar
    83    74    72   ar
    84    83    82   ar
    85    72    71    1
    86    92    91    1
    87    84    82   ar
    88    82    81    1
    89    91    88    1
    90    71    68    1
    91    67    68    1
    92    81    78    1
    93    68    69    1
    94    87    88    1
    95    88    89    1
    96    70    69    2
    97    78    77    1
    98    78    79    1
    99    89    90    2
   100    79    80    2
