@<TRIPOS>MOLECULE
tmp/3lmyB02.pdb
 74 66 0 0 0
SMALL
GASTEIGER

@<TRIPOS>ATOM
      1  N         26.1140   53.6990   50.8850 N.3    29  SER29      -0.1217
      2  CA        25.5610   54.2360   52.1120 C.3    29  SER29       0.1889
      3  C         24.4050   55.1480   51.7010 C.2    29  SER29       0.2288
      4  O         24.3720   55.6180   50.5630 O.2    29  SER29      -0.2866
      5  CB        26.6060   54.9360   52.9510 C.3    29  SER29       0.2089
      6  OG        26.7620   56.2680   52.5290 O.3    29  SER29      -0.2183
      7  N         23.5070   58.1760   51.9890 N.3    31  ASN31      -0.1240
      8  CA        23.7070   59.5450   51.5110 C.3    31  ASN31       0.1653
      9  C         24.7520   59.6630   50.3810 C.2    31  ASN31       0.2266
     10  O         25.1730   60.7820   50.0080 O.2    31  ASN31      -0.2867
     11  CB        24.0380   60.4530   52.6860 C.3    31  ASN31       0.1155
     12  CG        25.2680   59.9890   53.4410 C.2    31  ASN31       0.2627
     13  OD1       25.7870   58.8800   53.2120 O.2    31  ASN31      -0.2716
     14  ND2       25.7460   60.8470   54.3540 N.am   31  ASN31      -0.0877
     15  N         26.1830   59.5800   46.6040 N.3    33  THR33      -0.1218
     16  CA        25.6720   60.0180   45.3020 C.3    33  THR33       0.1862
     17  C         25.6140   58.8740   44.2730 C.2    33  THR33       0.2287
     18  O         25.2660   59.1040   43.1260 O.2    33  THR33      -0.2866
     19  CB        26.4700   61.2290   44.7220 C.3    33  THR33       0.1770
     20  OG1       27.6810   60.7710   44.1390 O.3    33  THR33      -0.2211
     21  CG2       26.8130   62.2100   45.7870 C.3    33  THR33       0.0375
     22  N         29.9110   50.2560   54.0690 N.3    61  LEU61      -0.1245
     23  CA        29.1360   51.2760   53.3520 C.3    61  LEU61       0.1561
     24  C         29.9970   52.1850   52.4940 C.2    61  LEU61       0.2260
     25  O         30.8870   52.8360   53.0110 O.2    61  LEU61      -0.2867
     26  CB        28.4020   52.1560   54.3540 C.3    61  LEU61       0.0270
     27  CG        27.1880   51.5380   55.0230 C.3    61  LEU61       0.0019
     28  CD1       26.5820   52.5790   55.9100 C.3    61  LEU61       0.0001
     29  CD2       26.1910   51.1070   53.9980 C.3    61  LEU61       0.0001
     30  N         30.3680   55.5720   50.5610 N.3    63  SER63      -0.1202
     31  CA        29.8040   56.8790   50.3460 C.3    63  SER63       0.2020
     32  C         30.6410   57.5940   49.3000 C.2    63  SER63       0.2619
     33  O         31.8550   57.7550   49.4610 O.2    63  SER63      -0.2717
     34  CB        29.8030   57.6730   51.6490 C.3    63  SER63       0.2103
     35  OG        28.7750   58.6750   51.6730 O.3    63  SER63      -0.2182
     36  N         29.9930   57.9940   48.2100 N.am   64  ILE64      -0.1965
     37  CA        30.5900   58.9150   47.2470 C.3    64  ILE64       0.1727
     38  C         30.0400   60.3340   47.4900 C.2    64  ILE64       0.2616
     39  O         28.8340   60.5640   47.3700 O.2    64  ILE64      -0.2715
     40  CB        30.3090   58.4740   45.8010 C.3    64  ILE64       0.0290
     41  CG1       30.7380   57.0120   45.5870 C.3    64  ILE64       0.0022
     42  CG2       30.9220   59.4440   44.8160 C.3    64  ILE64       0.0023
     43  CD1       32.1840   56.7270   45.8930 C.3    64  ILE64       0.0001
     44  N         30.9330   61.2690   47.8120 N.am   65  THR65      -0.1951
     45  CA        30.5470   62.6200   48.2190 C.3    65  THR65       0.1897
     46  C         30.1200   63.5880   47.1030 C.2    65  THR65       0.2313
     47  O         29.0830   64.2360   47.2220 O.2    65  THR65      -0.2863
     48  CB        31.6330   63.2880   49.1060 C.3    65  THR65       0.1794
     49  OG1       32.3070   62.2900   49.9000 O.3    65  THR65      -0.2208
     50  CG2       30.9820   64.3420   50.0320 C.3    65  THR65       0.0378
     51  N         37.2980   54.0170   57.3470 N.3    85  LEU85      -0.1245
     52  CA        37.2050   53.8490   58.7790 C.3    85  LEU85       0.1561
     53  C         36.7860   52.3910   59.1250 C.2    85  LEU85       0.2260
     54  O         35.6530   51.9970   58.9350 O.2    85  LEU85      -0.2867
     55  CB        36.2690   54.9230   59.3650 C.3    85  LEU85       0.0270
     56  CG        36.4160   56.4020   58.8940 C.3    85  LEU85       0.0019
     57  CD1       35.1370   57.2780   59.1430 C.3    85  LEU85       0.0001
     58  CD2       37.6720   57.1360   59.4240 C.3    85  LEU85       0.0001
     59  N         33.2940   52.1420   56.9180 N.3    92  VAL92      -0.1245
     60  CA        32.8960   53.1440   55.9600 C.3    92  VAL92       0.1561
     61  C         34.0560   53.4910   55.0320 C.2    92  VAL92       0.2260
     62  O         35.1360   53.8680   55.4830 O.2    92  VAL92      -0.2867
     63  CB        32.3770   54.4310   56.6840 C.3    92  VAL92       0.0252
     64  CG1       32.3920   55.6670   55.7420 C.3    92  VAL92       0.0019
     65  CG2       31.0080   54.1930   57.2230 C.3    92  VAL92       0.0019
     66  N         34.6520   56.2680   52.3350 N.3    94  LYS94      -0.1245
     67  CA        34.1700   57.5440   51.8450 C.3    94  LYS94       0.1561
     68  C         35.0980   58.0180   50.7360 C.2    94  LYS94       0.2260
     69  O         36.3240   57.9600   50.8970 O.2    94  LYS94      -0.2867
     70  CB        34.1920   58.5400   52.9830 C.3    94  LYS94       0.0271
     71  CG        33.5670   59.8770   52.6790 C.3    94  LYS94       0.0035
     72  CD        33.6510   60.7300   53.8990 C.3    94  LYS94       0.0206
     73  CE        33.0070   62.0700   53.6620 C.3    94  LYS94       0.1093
     74  NZ        32.5130   62.7020   54.9340 N.3    94  LYS94      -0.1314
@<TRIPOS>BOND
     1    18    17    2
     2    20    19    1
     3    17    16    1
     4    19    16    1
     5    19    21    1
     6    42    40    1
     7    16    15    1
     8    41    40    1
     9    41    43    1
    10    40    37    1
    11    46    47    2
    12    46    45    1
    13    37    38    1
    14    37    36    1
    15    39    38    2
    16    38    44   am
    17    44    45    1
    18    36    32   am
    19    45    48    1
    20    48    49    1
    21    48    50    1
    22    32    33    2
    23    32    31    1
    24    10     9    2
    25    31    30    1
    26    31    34    1
    27     9     8    1
    28     4     3    2
    29    68    69    2
    30    68    67    1
    31     1     2    1
    32     8     7    1
    33     8    11    1
    34    34    35    1
    35     3     2    1
    36    67    66    1
    37    67    70    1
    38     2     5    1
    39    24    25    2
    40    24    23    1
    41     6     5    1
    42    71    70    1
    43    71    72    1
    44    11    12    1
    45    13    12    2
    46    23    22    1
    47    23    26    1
    48    12    14   am
    49    73    72    1
    50    73    74    1
    51    29    27    1
    52    26    27    1
    53    27    28    1
    54    61    62    2
    55    61    60    1
    56    64    63    1
    57    60    63    1
    58    60    59    1
    59    63    65    1
    60    51    52    1
    61    52    53    1
    62    52    55    1
    63    56    57    1
    64    56    55    1
    65    56    58    1
    66    54    53    2
