@<TRIPOS>MOLECULE
tmp/3lmyA02.pdb
 143 140 0 0 0
SMALL
GASTEIGER

@<TRIPOS>ATOM
      1  N         15.3310   27.3820   40.2890 N.3   143  ARG143     -0.1245
      2  CA        15.5190   26.1080   40.9820 C.3   143  ARG143      0.1563
      3  C         17.0200   25.8590   41.3120 C.2   143  ARG143      0.2260
      4  O         17.3630   25.4250   42.4230 O.2   143  ARG143     -0.2867
      5  CB        14.8950   24.9700   40.1870 C.3   143  ARG143      0.0307
      6  CG        13.4100   24.7870   40.4480 C.3   143  ARG143      0.0489
      7  CD        12.6530   26.0850   40.2600 C.3   143  ARG143      0.2205
      8  NE        11.2090   25.9080   40.3480 N.pl3 143  ARG143     -0.0865
      9  CZ        10.3980   25.6500   39.3170 C.cat 143  ARG143      0.5346
     10  NH1       10.8660   25.5460   38.0750 N.pl3 143  ARG143      0.1354
     11  NH2        9.1010   25.4850   39.5300 N.pl3 143  ARG143      0.1354
     12  N         13.7390   31.4300   32.0330 N.3   169  HIS169     -0.1241
     13  CA        12.8630   31.3650   33.2150 C.3   169  HIS169      0.1621
     14  C         13.7010   31.7800   34.4400 C.2   169  HIS169      0.2264
     15  O         14.3140   30.9340   35.1180 O.2   169  HIS169     -0.2867
     16  CB        12.2720   29.9730   33.3970 C.3   169  HIS169      0.0745
     17  CG        11.1980   29.9030   34.4440 C.ar  169  HIS169      0.0817
     18  ND1        9.8520   29.9910   34.1390 N.ar  169  HIS169     -0.2268
     19  CD2       11.2710   29.7360   35.7900 C.ar  169  HIS169      0.1154
     20  CE1        9.1460   29.8940   35.2520 C.ar  169  HIS169      0.1986
     21  NE2        9.9820   29.7440   36.2680 N.ar  169  HIS169     -0.2212
     22  N         11.5520   32.1540   40.2070 N.3   172  ASP172     -0.1239
     23  CA        10.5350   31.1550   40.5540 C.3   172  ASP172      0.1674
     24  C         10.4270   31.0930   42.0730 C.2   172  ASP172      0.2266
     25  O         11.0290   31.8950   42.7580 O.2   172  ASP172     -0.2867
     26  CB        10.8470   29.7590   39.9650 C.3   172  ASP172      0.1410
     27  CG         9.5820   28.8900   39.8070 C.2   172  ASP172      0.3668
     28  OD1        9.0220   28.4290   40.8220 O.co2 172  ASP172     -0.2456
     29  OD2        9.1250   28.6770   38.6620 O.co2 172  ASP172     -0.2456
     30  N          7.3630   34.7950   35.8690 N.3   222  ASP222     -0.1239
     31  CA         6.1350   34.0670   36.1020 C.3   222  ASP222      0.1674
     32  C          5.2880   34.5660   37.2930 C.2   222  ASP222      0.2266
     33  O          5.7680   34.7210   38.4310 O.2   222  ASP222     -0.2867
     34  CB         6.4580   32.5890   36.1970 C.3   222  ASP222      0.1410
     35  CG         5.2310   31.7200   36.2990 C.2   222  ASP222      0.3668
     36  OD1        4.0880   32.1830   36.0810 O.co2 222  ASP222     -0.2456
     37  OD2        5.4200   30.5360   36.6040 O.co2 222  ASP222     -0.2456
     38  N          4.1880   30.5620   41.4790 N.3   226  HIS226     -0.1241
     39  CA         5.6160   30.3950   41.3240 C.3   226  HIS226      0.1621
     40  C          6.3660   31.6400   41.7470 C.2   226  HIS226      0.2264
     41  O          7.4750   31.8870   41.3060 O.2   226  HIS226     -0.2867
     42  CB         5.8910   30.0820   39.8690 C.3   226  HIS226      0.0745
     43  CG         5.5380   28.6880   39.4900 C.ar  226  HIS226      0.0817
     44  ND1        6.3190   27.6080   39.8420 N.ar  226  HIS226     -0.2268
     45  CD2        4.4920   28.1890   38.7950 C.ar  226  HIS226      0.1154
     46  CE1        5.7620   26.4960   39.3940 C.ar  226  HIS226      0.1986
     47  NE2        4.6570   26.8230   38.7460 N.ar  226  HIS226     -0.2212
     48  N          0.9950   29.8350   34.7470 N.3   281  ASP281     -0.1225
     49  CA         0.7590   28.4010   34.9550 C.3   281  ASP281      0.1805
     50  C          0.5770   27.9980   36.4060 C.2   281  ASP281      0.2597
     51  O          1.1590   28.6180   37.3280 O.2   281  ASP281     -0.2718
     52  CB         1.9460   27.6000   34.4580 C.3   281  ASP281      0.1424
     53  CG         3.2190   27.9600   35.1860 C.2   281  ASP281      0.3668
     54  OD1        3.5660   29.1710   35.2160 O.co2 281  ASP281     -0.2456
     55  OD2        3.8540   27.0430   35.7370 O.co2 281  ASP281     -0.2456
     56  N         -0.2250   26.9440   36.5830 N.am  282  GLU282     -0.1979
     57  CA        -0.2810   26.1640   37.8130 C.3   282  GLU282      0.1602
     58  C         -0.6580   26.9150   39.0950 C.2   282  GLU282      0.2287
     59  O         -0.0930   26.6560   40.1560 O.2   282  GLU282     -0.2864
     60  CB         1.0520   25.4700   38.0400 C.3   282  GLU282      0.0415
     61  CG         1.4180   24.4750   37.0130 C.3   282  GLU282      0.1163
     62  CD         2.6420   23.7110   37.4280 C.2   282  GLU282      0.3649
     63  OE1        3.6490   24.3380   37.8490 O.co2 282  GLU282     -0.2457
     64  OE2        2.5840   22.4690   37.3610 O.co2 282  GLU282     -0.2457
     65  N          1.2830   30.8050   29.4020 N.3   332  TRP332     -0.1241
     66  CA         1.1030   29.3510   29.3870 C.3   332  TRP332      0.1605
     67  C         -0.3930   29.0480   29.1520 C.2   332  TRP332      0.2264
     68  O         -1.2560   29.8040   29.5610 O.2   332  TRP332     -0.2867
     69  CB         1.6540   28.6820   30.6690 C.3   332  TRP332      0.0550
     70  CG         3.1530   28.8420   30.9320 C.ar  332  TRP332      0.0003
     71  CD1        3.7410   29.6600   31.8560 C.ar  332  TRP332      0.0946
     72  CD2        4.2350   28.1370   30.2870 C.ar  332  TRP332      0.0152
     73  NE1        5.1220   29.5360   31.8200 N.ar  332  TRP332     -0.2442
     74  CE2        5.4500   28.5950   30.8780 C.ar  332  TRP332      0.0810
     75  CE3        4.3030   27.1770   29.2660 C.ar  332  TRP332      0.0012
     76  CZ2        6.7030   28.1230   30.4760 C.ar  332  TRP332      0.0191
     77  CZ3        5.5490   26.7120   28.8760 C.ar  332  TRP332      0.0001
     78  CH2        6.7320   27.1900   29.4820 C.ar  332  TRP332      0.0015
     79  N          1.9080   23.4060   26.8560 N.3   351  TRP351     -0.1241
     80  CA         2.9610   22.7140   27.5930 C.3   351  TRP351      0.1605
     81  C          2.4690   21.4390   28.2190 C.2   351  TRP351      0.2264
     82  O          3.2840   20.6030   28.6060 O.2   351  TRP351     -0.2867
     83  CB         3.5560   23.6180   28.6840 C.3   351  TRP351      0.0550
     84  CG         2.6080   23.9020   29.8650 C.ar  351  TRP351      0.0003
     85  CD1        1.7140   24.9480   29.9720 C.ar  351  TRP351      0.0946
     86  CD2        2.4630   23.1300   31.0820 C.ar  351  TRP351      0.0152
     87  NE1        1.0350   24.8700   31.1720 N.ar  351  TRP351     -0.2442
     88  CE2        1.4720   23.7710   31.8700 C.ar  351  TRP351      0.0810
     89  CE3        3.0720   21.9670   31.5790 C.ar  351  TRP351      0.0012
     90  CZ2        1.0780   23.2850   33.1350 C.ar  351  TRP351      0.0191
     91  CZ3        2.6780   21.4800   32.8500 C.ar  351  TRP351      0.0001
     92  CH2        1.6870   22.1410   33.6030 C.ar  351  TRP351      0.0015
     93  N          9.7380   18.1150   27.0270 N.3   377  TYR377     -0.1241
     94  CA        10.2650   18.2630   28.3580 C.3   377  TYR377      0.1605
     95  C         11.5360   17.4420   28.5770 C.2   377  TYR377      0.2264
     96  O         11.4990   16.2310   28.8350 O.2   377  TYR377     -0.2867
     97  CB         9.1750   18.0210   29.3820 C.3   377  TYR377      0.0534
     98  CG         8.3920   19.2880   29.5580 C.ar  377  TYR377     -0.0201
     99  CD1        8.0210   20.0660   28.4560 C.ar  377  TYR377     -0.0009
    100  CD2        8.0700   19.7570   30.8270 C.ar  377  TYR377     -0.0009
    101  CE1        7.3220   21.2720   28.6150 C.ar  377  TYR377      0.0417
    102  CE2        7.3620   20.9640   31.0100 C.ar  377  TYR377      0.0417
    103  CZ         7.0050   21.7140   29.9040 C.ar  377  TYR377      0.1957
    104  OH         6.3230   22.8940   30.1100 O.3   377  TYR377     -0.2866
    105  N         13.8700   17.8430   30.9230 N.3   379  ASP379     -0.1225
    106  CA        14.1590   17.4570   32.3060 C.3   379  ASP379      0.1805
    107  C         13.5450   16.0820   32.6190 C.2   379  ASP379      0.2597
    108  O         13.9790   15.4030   33.5490 O.2   379  ASP379     -0.2718
    109  CB        13.6420   18.5080   33.2960 C.3   379  ASP379      0.1424
    110  CG        12.1800   18.8210   33.0800 C.2   379  ASP379      0.3668
    111  OD1       11.8810   19.2780   31.9270 O.co2 379  ASP379     -0.2456
    112  OD2       11.3500   18.5850   34.0370 O.co2 379  ASP379     -0.2456
    113  N         12.5510   15.6880   31.8230 N.am  380  LEU380     -0.1979
    114  CA        11.8940   14.4130   31.9830 C.3   380  LEU380      0.1596
    115  C         12.7010   13.3170   31.3680 C.2   380  LEU380      0.2287
    116  O         12.2880   12.7320   30.3730 O.2   380  LEU380     -0.2864
    117  CB        10.5340   14.4330   31.3200 C.3   380  LEU380      0.0297
    118  CG         9.4890   15.2860   32.0360 C.3   380  LEU380      0.0022
    119  CD1        8.1960   14.9410   31.4440 C.3   380  LEU380      0.0001
    120  CD2        9.4600   15.0100   33.5290 C.3   380  LEU380      0.0001
    121  N         13.7890   22.1830   32.7620 N.3   416  TRP416     -0.1241
    122  CA        13.4940   22.8240   34.0380 C.3   416  TRP416      0.1605
    123  C         14.5420   22.4900   35.1260 C.2   416  TRP416      0.2264
    124  O         15.2060   21.4240   35.0680 O.2   416  TRP416     -0.2867
    125  CB        12.1170   22.4440   34.4890 C.3   416  TRP416      0.0550
    126  CG        11.0380   22.9750   33.5860 C.ar  416  TRP416      0.0003
    127  CD1       10.4370   22.3170   32.5540 C.ar  416  TRP416      0.0946
    128  CD2       10.4260   24.2790   33.6390 C.ar  416  TRP416      0.0152
    129  NE1        9.4880   23.1210   31.9590 N.ar  416  TRP416     -0.2442
    130  CE2        9.4480   24.3230   32.6120 C.ar  416  TRP416      0.0810
    131  CE3       10.6090   25.4160   34.4570 C.ar  416  TRP416      0.0012
    132  CZ2        8.6380   25.4600   32.3820 C.ar  416  TRP416      0.0191
    133  CZ3        9.8010   26.5630   34.2270 C.ar  416  TRP416      0.0001
    134  CH2        8.8380   26.5730   33.1960 C.ar  416  TRP416      0.0015
    135  N         14.7890   21.7900   38.5120 N.3   418  GLU418     -0.1245
    136  CA        14.6300   21.1070   39.7920 C.3   418  GLU418      0.1567
    137  C         15.7890   20.1690   40.0130 C.2   418  GLU418      0.2260
    138  O         16.3180   20.1030   41.1080 O.2   418  GLU418     -0.2867
    139  CB        13.3160   20.3300   39.8710 C.3   418  GLU418      0.0388
    140  CG        12.0910   21.1890   40.1360 C.3   418  GLU418      0.1160
    141  CD        11.4550   21.7740   38.8780 C.2   418  GLU418      0.3649
    142  OE1       12.1020   21.7870   37.8010 O.co2 418  GLU418     -0.2457
    143  OE2       10.2930   22.2390   38.9720 O.co2 418  GLU418     -0.2457
@<TRIPOS>BOND
     1    79    80    1
     2    93    94    1
     3    80    81    1
     4    80    83    1
     5    81    82    2
     6    94    95    1
     7    94    97    1
     8    99   101   ar
     9    99    98   ar
    10    95    96    2
    11   101   103   ar
    12    83    84    1
    13    77    75   ar
    14    77    78   ar
    15    67    66    1
    16    67    68    2
    17    75    72   ar
    18    97    98    1
    19    66    65    1
    20    66    69    1
    21    78    76   ar
    22    98   100   ar
    23    84    85   ar
    24    84    86   ar
    25   103   104    1
    26   103   102   ar
    27    85    87   ar
    28    72    74   ar
    29    72    70   ar
    30   116   115    2
    31    76    74   ar
    32    69    70    1
    33   100   102   ar
    34    74    73   ar
    35   105   106    1
    36    70    71   ar
    37    86    89   ar
    38    86    88   ar
    39    87    88   ar
    40   117   114    1
    41   117   118    1
    42   115   114    1
    43   119   118    1
    44    89    91   ar
    45    73    71   ar
    46   113   114    1
    47   113   107   am
    48    88    90   ar
    49   111   110   ar
    50   129   127   ar
    51   129   130   ar
    52    12    13    1
    53   118   120    1
    54   106   107    1
    55   106   109    1
    56   132   130   ar
    57   132   134   ar
    58   127   126   ar
    59   130   128   ar
    60   107   108    2
    61   121   122    1
    62    91    92   ar
    63   110   109    1
    64   110   112   ar
    65    90    92   ar
    66   134   133   ar
    67    13    16    1
    68    13    14    1
    69    16    17    1
    70   126   128   ar
    71   126   125    1
    72   128   131   ar
    73   122   125    1
    74   122   123    1
    75    18    17   ar
    76    18    20   ar
    77   133   131   ar
    78    14    15    2
    79    17    19   ar
    80    52    49    1
    81    52    53    1
    82    48    49    1
    83    49    50    1
    84   124   123    2
    85    53    54   ar
    86    53    55   ar
    87    20    21   ar
    88    19    21   ar
    89    30    31    1
    90    36    35   ar
    91    31    34    1
    92    31    32    1
    93    34    35    1
    94    35    37   ar
    95    50    56   am
    96    50    51    2
    97    56    57    1
    98    61    62    1
    99    61    60    1
   100    32    33    2
   101    64    62   ar
   102    62    63   ar
   103   142   141   ar
   104    57    60    1
   105    57    58    1
   106    10     9    1
   107   135   136    1
   108    29    27   ar
   109    47    45   ar
   110    47    46   ar
   111    45    43   ar
   112   141   143   ar
   113   141   140    1
   114    58    59    2
   115     9    11    1
   116     9     8    2
   117    46    44   ar
   118    43    44   ar
   119    43    42    1
   120   136   139    1
   121   136   137    1
   122    27    26    1
   123    27    28   ar
   124    42    39    1
   125   139   140    1
   126    26    23    1
   127   137   138    2
   128     5     6    1
   129     5     2    1
   130    22    23    1
   131     7     8    1
   132     7     6    1
   133     1     2    1
   134    23    24    1
   135     2     3    1
   136    41    40    2
   137     3     4    2
   138    39    38    1
   139    39    40    1
   140    24    25    2
