@<TRIPOS>MOLECULE
tmp/3ln0D05.pdb
 193 186 0 0 0
SMALL
GASTEIGER

@<TRIPOS>ATOM
      1  N         62.8190   54.3580   82.7870 N.3    58  HIS58      -0.1241
      2  CA        63.4500   53.0480   82.8860 C.3    58  HIS58       0.1621
      3  C         64.4860   53.0310   84.0050 C.2    58  HIS58       0.2264
      4  O         64.6130   52.0410   84.7420 O.2    58  HIS58      -0.2867
      5  CB        64.1310   52.6690   81.5700 C.3    58  HIS58       0.0745
      6  CG        64.7360   51.2960   81.5790 C.ar   58  HIS58       0.0817
      7  ND1       66.0430   51.0550   81.2150 N.ar   58  HIS58      -0.2268
      8  CD2       64.2110   50.0910   81.9040 C.ar   58  HIS58       0.1154
      9  CE1       66.3000   49.7650   81.3220 C.ar   58  HIS58       0.1986
     10  NE2       65.2040   49.1560   81.7370 N.ar   58  HIS58      -0.2212
     11  N         51.2480   51.9050   84.2370 N.3    85  VAL85      -0.1245
     12  CA        52.0660   51.2720   83.2060 C.3    85  VAL85       0.1561
     13  C         51.1500   50.6730   82.1470 C.2    85  VAL85       0.2260
     14  O         51.4480   50.7110   80.9570 O.2    85  VAL85      -0.2867
     15  CB        53.0270   50.1950   83.7680 C.3    85  VAL85       0.0252
     16  CG1       53.2060   50.3580   85.2710 C.3    85  VAL85       0.0019
     17  CG2       52.5420   48.8060   83.4230 C.3    85  VAL85       0.0019
     18  N         50.8370   52.6900   78.2620 N.3    89  ARG89      -0.1245
     19  CA        51.3040   51.8660   77.1370 C.3    89  ARG89       0.1563
     20  C         50.2460   51.7040   76.0380 C.2    89  ARG89       0.2260
     21  O         50.5240   51.8890   74.8470 O.2    89  ARG89      -0.2867
     22  CB        51.7300   50.4820   77.6270 C.3    89  ARG89       0.0307
     23  CG        53.2130   50.1900   77.4480 C.3    89  ARG89       0.0489
     24  CD        54.0910   50.8940   78.4820 C.3    89  ARG89       0.2205
     25  NE        55.4300   51.1480   77.9470 N.pl3  89  ARG89      -0.0865
     26  CZ        56.5370   51.1380   78.6720 C.cat  89  ARG89       0.5346
     27  NH1       56.4700   50.8710   79.9670 N.pl3  89  ARG89       0.1354
     28  NH2       57.7070   51.3830   78.1020 N.pl3  89  ARG89       0.1354
     29  N         55.1750   30.4150   73.6930 N.3   174  PHE174     -0.1241
     30  CA        54.0790   31.3450   73.9720 C.3   174  PHE174      0.1605
     31  C         53.7100   32.2180   72.7600 C.2   174  PHE174      0.2264
     32  O         52.5260   32.3130   72.3810 O.2   174  PHE174     -0.2867
     33  CB        54.4300   32.2240   75.1770 C.3   174  PHE174      0.0534
     34  CG        53.5200   33.4010   75.3570 C.ar  174  PHE174     -0.0203
     35  CD1       52.2110   33.2240   75.7550 C.ar  174  PHE174     -0.0042
     36  CD2       53.9820   34.6930   75.1230 C.ar  174  PHE174     -0.0042
     37  CE1       51.3700   34.3040   75.9270 C.ar  174  PHE174     -0.0003
     38  CE2       53.1450   35.7870   75.2910 C.ar  174  PHE174     -0.0003
     39  CZ        51.8330   35.5890   75.6880 C.ar  174  PHE174     -0.0000
     40  N         53.0070   35.3790   82.1900 N.3   313  VAL313     -0.1245
     41  CA        53.6660   36.2640   81.2310 C.3   313  VAL313      0.1561
     42  C         53.9640   37.6430   81.8590 C.2   313  VAL313      0.2260
     43  O         55.0350   38.2140   81.6810 O.2   313  VAL313     -0.2867
     44  CB        52.8320   36.4410   79.9360 C.3   313  VAL313      0.0252
     45  CG1       53.4170   37.5800   79.0760 C.3   313  VAL313      0.0019
     46  CG2       52.7730   35.1240   79.1340 C.3   313  VAL313      0.0019
     47  N         57.5580   36.3820   83.3380 N.3   317  TYR317     -0.1227
     48  CA        58.2390   36.5550   82.0550 C.3   317  TYR317      0.1736
     49  C         58.6020   38.0220   81.8060 C.2   317  TYR317      0.2595
     50  O         59.7680   38.3510   81.6450 O.2   317  TYR317     -0.2718
     51  CB        57.3400   36.0230   80.9530 C.3   317  TYR317      0.0548
     52  CG        57.8350   36.1300   79.5170 C.ar  317  TYR317     -0.0200
     53  CD1       58.5600   35.1040   78.9450 C.ar  317  TYR317     -0.0009
     54  CD2       57.4820   37.2070   78.7140 C.ar  317  TYR317     -0.0009
     55  CE1       58.9580   35.1570   77.6310 C.ar  317  TYR317      0.0417
     56  CE2       57.8720   37.2710   77.3940 C.ar  317  TYR317      0.0417
     57  CZ        58.6210   36.2400   76.8590 C.ar  317  TYR317      0.1957
     58  OH        59.0380   36.2610   75.5520 O.3   317  TYR317     -0.2866
     59  N         57.6030   38.8980   81.7680 N.am  318  VAL318     -0.1980
     60  CA        57.8720   40.3220   81.5430 C.3   318  VAL318      0.1595
     61  C         58.5930   40.9370   82.7590 C.2   318  VAL318      0.2287
     62  O         59.3810   41.8680   82.6220 O.2   318  VAL318     -0.2864
     63  CB        56.5830   41.1260   81.2350 C.3   318  VAL318      0.0276
     64  CG1       56.8660   42.6220   81.2620 C.3   318  VAL318      0.0022
     65  CG2       56.0160   40.7190   79.8820 C.3   318  VAL318      0.0022
     66  N         62.2420   40.2420   82.1330 N.3   321  LEU321     -0.1231
     67  CA        62.7350   40.9800   80.9660 C.3   321  LEU321      0.1693
     68  C         62.9250   42.4670   81.3140 C.2   321  LEU321      0.2592
     69  O         63.8810   43.1350   80.8820 O.2   321  LEU321     -0.2718
     70  CB        61.7110   40.8510   79.8380 C.3   321  LEU321      0.0284
     71  CG        62.0980   40.2800   78.4760 C.3   321  LEU321      0.0019
     72  CD1       63.2510   39.2960   78.5560 C.3   321  LEU321      0.0001
     73  CD2       60.8560   39.6730   77.8400 C.3   321  LEU321      0.0001
     74  N         62.0020   42.9880   82.1100 N.am  322  SER322     -0.1952
     75  CA        62.0050   44.4030   82.4290 C.3   322  SER322      0.1924
     76  C         63.2100   44.8140   83.2820 C.2   322  SER322      0.2314
     77  O         63.7180   45.9340   83.1490 O.2   322  SER322     -0.2863
     78  CB        60.7200   44.7830   83.1570 C.3   322  SER322      0.2116
     79  OG        60.6760   44.2150   84.4540 O.3   322  SER322     -0.2180
     80  N         62.7890   45.4660   86.2430 N.3   324  TYR324     -0.1241
     81  CA        62.2170   46.4090   87.1900 C.3   324  TYR324      0.1605
     82  C         62.3220   45.8840   88.6140 C.2   324  TYR324      0.2264
     83  O         62.1610   44.6920   88.8610 O.2   324  TYR324     -0.2867
     84  CB        60.7420   46.6740   86.9170 C.3   324  TYR324      0.0534
     85  CG        60.4110   47.2770   85.5790 C.ar  324  TYR324     -0.0201
     86  CD1       61.3480   47.9740   84.8430 C.ar  324  TYR324     -0.0009
     87  CD2       59.1230   47.1930   85.0830 C.ar  324  TYR324     -0.0009
     88  CE1       61.0180   48.5300   83.6240 C.ar  324  TYR324      0.0417
     89  CE2       58.7880   47.7410   83.8850 C.ar  324  TYR324      0.0417
     90  CZ        59.7280   48.4080   83.1570 C.ar  324  TYR324      0.1957
     91  OH        59.3570   48.9520   81.9470 O.3   324  TYR324     -0.2866
     92  N         55.5000   43.8580   88.9820 N.3   328  LEU328     -0.1245
     93  CA        54.3680   43.9210   88.0650 C.3   328  LEU328      0.1561
     94  C         53.2370   43.0390   88.5580 C.2   328  LEU328      0.2260
     95  O         53.4760   42.0450   89.2550 O.2   328  LEU328     -0.2867
     96  CB        54.8030   43.4910   86.6660 C.3   328  LEU328      0.0270
     97  CG        55.8480   44.4000   86.0170 C.3   328  LEU328      0.0019
     98  CD1       56.3070   43.8360   84.6860 C.3   328  LEU328      0.0001
     99  CD2       55.2990   45.8320   85.8580 C.3   328  LEU328      0.0001
    100  N         55.1540   43.8610   65.5810 N.3   350  PHE350     -0.1241
    101  CA        55.3350   43.1230   66.8260 C.3   350  PHE350      0.1605
    102  C         56.0030   41.7870   66.5080 C.2   350  PHE350      0.2264
    103  O         56.9290   41.3470   67.1900 O.2   350  PHE350     -0.2867
    104  CB        53.9810   42.9100   67.5030 C.3   350  PHE350      0.0534
    105  CG        54.0690   42.3350   68.9000 C.ar  350  PHE350     -0.0203
    106  CD1       55.1210   42.6630   69.7380 C.ar  350  PHE350     -0.0042
    107  CD2       53.0600   41.5050   69.3790 C.ar  350  PHE350     -0.0042
    108  CE1       55.1910   42.1510   71.0240 C.ar  350  PHE350     -0.0003
    109  CE2       53.1240   40.9820   70.6610 C.ar  350  PHE350     -0.0003
    110  CZ        54.1860   41.3060   71.4840 C.ar  350  PHE350     -0.0000
    111  N         59.7180   42.4050   65.4680 N.3   353  LEU353     -0.1231
    112  CA        60.6140   42.7610   66.5590 C.3   353  LEU353      0.1693
    113  C         60.8930   41.5670   67.4670 C.2   353  LEU353      0.2592
    114  O         61.9160   41.5250   68.1680 O.2   353  LEU353     -0.2718
    115  CB        60.0600   43.9520   67.3530 C.3   353  LEU353      0.0284
    116  CG        58.8480   43.7950   68.2730 C.3   353  LEU353      0.0019
    117  CD1       59.2470   43.1290   69.6040 C.3   353  LEU353      0.0001
    118  CD2       58.1810   45.1620   68.5330 C.3   353  LEU353      0.0001
    119  N         60.0080   40.5790   67.4160 N.am  354  TYR354     -0.1976
    120  CA        60.0810   39.4390   68.3300 C.3   354  TYR354      0.1639
    121  C         60.9480   38.3140   67.7830 C.2   354  TYR354      0.2290
    122  O         60.9890   37.2210   68.3510 O.2   354  TYR354     -0.2864
    123  CB        58.6790   38.9100   68.6610 C.3   354  TYR354      0.0560
    124  CG        58.4540   38.7260   70.1460 C.ar  354  TYR354     -0.0198
    125  CD1       57.6670   39.6190   70.8630 C.ar  354  TYR354     -0.0009
    126  CD2       59.0460   37.6710   70.8420 C.ar  354  TYR354     -0.0009
    127  CE1       57.4600   39.4660   72.2300 C.ar  354  TYR354      0.0417
    128  CE2       58.8450   37.5090   72.2190 C.ar  354  TYR354      0.0417
    129  CZ        58.0520   38.4100   72.9100 C.ar  354  TYR354      0.1957
    130  OH        57.8400   38.2520   74.2820 O.3   354  TYR354     -0.2866
    131  N         63.7940   36.9540   68.1320 N.3   356  TRP356     -0.1241
    132  CA        64.8500   37.0190   69.1280 C.3   356  TRP356      0.1605
    133  C         65.8130   35.8340   69.0400 C.2   356  TRP356      0.2264
    134  O         66.1800   35.2390   70.0530 O.2   356  TRP356     -0.2867
    135  CB        64.2550   37.0750   70.5370 C.3   356  TRP356      0.0550
    136  CG        63.5040   38.3220   70.8190 C.ar  356  TRP356      0.0003
    137  CD1       63.4780   39.4500   70.0610 C.ar  356  TRP356      0.0946
    138  CD2       62.6890   38.5860   71.9640 C.ar  356  TRP356      0.0152
    139  NE1       62.6690   40.3900   70.6480 N.ar  356  TRP356     -0.2442
    140  CE2       62.1800   39.8840   71.8220 C.ar  356  TRP356      0.0810
    141  CE3       62.3300   37.8420   73.0870 C.ar  356  TRP356      0.0012
    142  CZ2       61.3360   40.4620   72.7680 C.ar  356  TRP356      0.0191
    143  CZ3       61.4990   38.4140   74.0180 C.ar  356  TRP356      0.0001
    144  CH2       61.0070   39.7140   73.8510 C.ar  356  TRP356      0.0015
    145  N         68.0070   44.2030   75.9370 N.3   487  PHE487     -0.1241
    146  CA        67.4210   45.0100   74.8670 C.3   487  PHE487      0.1605
    147  C         67.7900   46.4820   74.9630 C.2   487  PHE487      0.2264
    148  O         68.0900   46.9920   76.0350 O.2   487  PHE487     -0.2867
    149  CB        65.8850   45.0030   74.9540 C.3   487  PHE487      0.0534
    150  CG        65.2530   43.6510   74.8310 C.ar  487  PHE487     -0.0203
    151  CD1       65.7290   42.7140   73.9310 C.ar  487  PHE487     -0.0042
    152  CD2       64.1340   43.3420   75.5840 C.ar  487  PHE487     -0.0042
    153  CE1       65.1140   41.4810   73.8160 C.ar  487  PHE487     -0.0003
    154  CE2       63.5250   42.0990   75.4660 C.ar  487  PHE487     -0.0003
    155  CZ        64.0230   41.1730   74.5850 C.ar  487  PHE487     -0.0000
    156  N         63.2710   48.3490   71.2640 N.3   491  MET491     -0.1230
    157  CA        62.6270   47.0550   71.4820 C.3   491  MET491      0.1702
    158  C         61.5360   47.1280   72.5500 C.2   491  MET491      0.2592
    159  O         60.4300   46.6310   72.3500 O.2   491  MET491     -0.2718
    160  CB        63.6600   46.0070   71.9200 C.3   491  MET491      0.0401
    161  CG        63.1050   44.5720   71.9770 C.3   491  MET491      0.0596
    162  SD        62.8560   43.8190   70.3410 S.3   491  MET491     -0.1393
    163  CE        64.5120   43.2550   69.9640 C.3   491  MET491      0.0692
    164  N         61.8710   47.7330   73.6860 N.am  492  VAL492     -0.1980
    165  CA        60.9600   47.8130   74.8180 C.3   492  VAL492      0.1595
    166  C         59.8080   48.7600   74.5250 C.2   492  VAL492      0.2287
    167  O         58.6600   48.4520   74.8130 O.2   492  VAL492     -0.2864
    168  CB        61.6780   48.2750   76.1010 C.3   492  VAL492      0.0276
    169  CG1       60.6970   48.3910   77.2570 C.3   492  VAL492      0.0022
    170  CG2       62.7970   47.3100   76.4530 C.3   492  VAL492      0.0022
    171  N         57.6510   47.1130   71.9060 N.3   495  GLY495     -0.1210
    172  CA        57.2050   45.8000   72.3430 C.3   495  GLY495      0.1956
    173  C         56.2070   45.8530   73.4780 C.2   495  GLY495      0.2611
    174  O         55.2300   45.1080   73.4880 O.2   495  GLY495     -0.2717
    175  N         56.4500   46.7340   74.4440 N.am  496  ALA496     -0.1979
    176  CA        55.6260   46.7850   75.6560 C.3   496  ALA496      0.1597
    177  C         54.1470   47.0910   75.3460 C.2   496  ALA496      0.2287
    178  O         53.2610   46.4000   75.8180 O.2   496  ALA496     -0.2864
    179  CB        56.1930   47.7970   76.6420 C.3   496  ALA496      0.0319
    180  N         52.4100   44.2900   73.5340 N.3   499  SER499     -0.1202
    181  CA        52.3000   43.1330   74.4230 C.3   499  SER499      0.2020
    182  C         51.1790   43.2820   75.4400 C.2   499  SER499      0.2618
    183  O         50.2850   42.4300   75.5400 O.2   499  SER499     -0.2717
    184  CB        53.6320   42.9040   75.1520 C.3   499  SER499      0.2103
    185  OG        53.5510   41.8270   76.0750 O.3   499  SER499     -0.2182
    186  N         51.2320   44.3680   76.2060 N.am  500  LEU500     -0.1979
    187  CA        50.2510   44.5830   77.2680 C.3   500  LEU500      0.1596
    188  C         48.8290   44.6580   76.7040 C.2   500  LEU500      0.2287
    189  O         47.8780   44.2330   77.3310 O.2   500  LEU500     -0.2864
    190  CB        50.5910   45.8440   78.0660 C.3   500  LEU500      0.0297
    191  CG        51.9540   45.8150   78.7710 C.3   500  LEU500      0.0022
    192  CD1       52.2210   47.0920   79.5610 C.3   500  LEU500      0.0001
    193  CD2       52.0270   44.6030   79.6910 C.3   500  LEU500      0.0001
@<TRIPOS>BOND
     1   111   112    1
     2   100   101    1
     3   102   101    1
     4   102   103    2
     5   112   115    1
     6   112   113    1
     7   101   104    1
     8   115   116    1
     9   119   113   am
    10   119   120    1
    11   113   114    2
    12   104   105    1
    13   121   120    1
    14   121   122    2
    15   131   132    1
    16   116   118    1
    17   116   117    1
    18   120   123    1
    19   123   124    1
    20   105   107   ar
    21   105   106   ar
    22   133   132    1
    23   133   134    2
    24   132   135    1
    25   107   109   ar
    26   106   108   ar
    27   163   162    1
    28   137   139   ar
    29   137   136   ar
    30   124   126   ar
    31   124   125   ar
    32   162   161    1
    33   135   136    1
    34   139   140   ar
    35   109   110   ar
    36   136   138   ar
    37   126   128   ar
    38   125   127   ar
    39   108   110   ar
    40   156   157    1
    41   157   160    1
    42   157   158    1
    43   140   138   ar
    44   140   142   ar
    45   171   172    1
    46   160   161    1
    47   138   141   ar
    48   128   129   ar
    49   127   129   ar
    50   172   173    1
    51   159   158    2
    52    32    31    2
    53   158   164   am
    54    31    30    1
    55   142   144   ar
    56   129   130    1
    57   141   143   ar
    58   173   174    2
    59   173   175   am
    60   180   181    1
    61   164   165    1
    62    29    30    1
    63   153   151   ar
    64   153   155   ar
    65   144   143   ar
    66   151   150   ar
    67    30    33    1
    68   181   184    1
    69   181   182    1
    70   175   176    1
    71   166   167    2
    72   166   165    1
    73   155   154   ar
    74   165   168    1
    75   150   149    1
    76   150   152   ar
    77    21    20    2
    78   146   149    1
    79   146   147    1
    80   146   145    1
    81   147   148    2
    82    36    38   ar
    83    36    34   ar
    84   184   185    1
    85    33    34    1
    86    38    39   ar
    87   177   176    1
    88   177   178    2
    89    34    35   ar
    90   182   183    2
    91   182   186   am
    92   154   152   ar
    93    58    57    1
    94   176   179    1
    95    39    37   ar
    96    35    37   ar
    97    20    19    1
    98   168   170    1
    99   168   169    1
   100   186   187    1
   101   188   187    1
   102   188   189    2
   103    57    56   ar
   104    57    55   ar
   105    19    22    1
   106    19    18    1
   107   187   190    1
   108    56    54   ar
   109    23    22    1
   110    23    24    1
   111    55    53   ar
   112    73    71    1
   113    25    24    1
   114    25    26    2
   115   190   191    1
   116    28    26    1
   117    71    72    1
   118    71    70    1
   119    26    27    1
   120    54    52   ar
   121   191   192    1
   122   191   193    1
   123    53    52   ar
   124    45    44    1
   125    46    44    1
   126    52    51    1
   127    70    67    1
   128    65    63    1
   129    44    41    1
   130    69    68    2
   131    51    48    1
   132    14    13    2
   133    67    68    1
   134    67    66    1
   135     7     9   ar
   136     7     6   ar
   137    41    42    1
   138    41    40    1
   139    63    64    1
   140    63    60    1
   141    68    74   am
   142     9    10   ar
   143    60    59    1
   144    60    61    1
   145     5     6    1
   146     5     2    1
   147     6     8   ar
   148    50    49    2
   149    43    42    2
   150    10     8   ar
   151    59    49   am
   152    49    48    1
   153    91    90    1
   154    48    47    1
   155    74    75    1
   156    13    12    1
   157    75    78    1
   158    75    76    1
   159    62    61    2
   160     1     2    1
   161     2     3    1
   162    77    76    2
   163    78    79    1
   164    90    88   ar
   165    90    89   ar
   166    12    15    1
   167    12    11    1
   168    17    15    1
   169    88    86   ar
   170    15    16    1
   171    89    87   ar
   172     3     4    2
   173    98    97    1
   174    86    85   ar
   175    87    85   ar
   176    85    84    1
   177    99    97    1
   178    97    96    1
   179    80    81    1
   180    96    93    1
   181    84    81    1
   182    81    82    1
   183    93    94    1
   184    93    92    1
   185    94    95    2
   186    82    83    2
