@<TRIPOS>MOLECULE
tmp/3ln3A01.pdb
 138 139 0 0 0
SMALL
GASTEIGER

@<TRIPOS>ATOM
      1  N         26.5560    9.7040    0.4410 N.3    19  TYR19      -0.1241
      2  CA        27.4850    9.8420    1.5620 C.3    19  TYR19       0.1605
      3  C         28.6990   10.6820    1.1230 C.2    19  TYR19       0.2264
      4  O         29.3010   10.4020    0.0950 O.2    19  TYR19      -0.2867
      5  CB        27.9790    8.4600    2.0830 C.3    19  TYR19       0.0534
      6  CG        28.9580    8.6720    3.2010 C.ar   19  TYR19      -0.0201
      7  CD1       28.5120    8.9610    4.4880 C.ar   19  TYR19      -0.0009
      8  CD2       30.3170    8.6130    2.9940 C.ar   19  TYR19      -0.0009
      9  CE1       29.4020    9.1940    5.5240 C.ar   19  TYR19       0.0417
     10  CE2       31.2080    8.8540    4.0220 C.ar   19  TYR19       0.0417
     11  CZ        30.7590    9.1690    5.2720 C.ar   19  TYR19       0.1957
     12  OH        31.6230    9.4180    6.3220 O.3    19  TYR19      -0.2866
     13  N         22.5370   12.9680    8.6370 N.3    45  ALA45      -0.1231
     14  CA        23.8720   12.8210    9.1970 C.3    45  ALA45       0.1694
     15  C         24.9680   12.9350    8.1410 C.2    45  ALA45       0.2592
     16  O         26.1450   13.0130    8.4980 O.2    45  ALA45      -0.2718
     17  CB        23.9900   11.4980    9.9120 C.3    45  ALA45       0.0304
     18  N         24.6370   12.9270    6.8570 N.am   46  TYR46      -0.1976
     19  CA        25.6740   13.0710    5.8250 C.3    46  TYR46       0.1639
     20  C         26.1690   14.5200    5.6640 C.2    46  TYR46       0.2290
     21  O         27.2070   14.7360    5.0520 O.2    46  TYR46      -0.2864
     22  CB        25.2190   12.5520    4.4550 C.3    46  TYR46       0.0560
     23  CG        24.8050   11.1070    4.3910 C.ar   46  TYR46      -0.0198
     24  CD1       25.1040   10.2110    5.4100 C.ar   46  TYR46      -0.0009
     25  CD2       24.1460   10.6140    3.2770 C.ar   46  TYR46      -0.0009
     26  CE1       24.7220    8.8960    5.3470 C.ar   46  TYR46       0.0417
     27  CE2       23.7270    9.2980    3.2280 C.ar   46  TYR46       0.0417
     28  CZ        23.9990    8.4460    4.2700 C.ar   46  TYR46       0.1957
     29  OH        23.5050    7.1390    4.2520 O.3    46  TYR46      -0.2866
     30  N         18.1180   10.9580   11.9370 N.3    74  TRP74      -0.1241
     31  CA        19.3380   10.5590   12.6190 C.3    74  TRP74       0.1605
     32  C         19.0480   10.2490   14.0920 C.2    74  TRP74       0.2264
     33  O         18.1070   10.7820   14.6910 O.2    74  TRP74      -0.2867
     34  CB        20.4330   11.6080   12.4650 C.3    74  TRP74       0.0550
     35  CG        21.7270   11.2120   13.0830 C.ar   74  TRP74       0.0003
     36  CD1       22.4120   11.8430   14.0840 C.ar   74  TRP74       0.0946
     37  CD2       22.4840   10.0350   12.7640 C.ar   74  TRP74       0.0152
     38  NE1       23.5310   11.1270   14.3980 N.ar   74  TRP74      -0.2442
     39  CE2       23.5960   10.0110   13.6040 C.ar   74  TRP74       0.0810
     40  CE3       22.3270    8.9890   11.8410 C.ar   74  TRP74       0.0012
     41  CZ2       24.5450    9.0040   13.5410 C.ar   74  TRP74       0.0191
     42  CZ3       23.2620    8.0030   11.7840 C.ar   74  TRP74       0.0001
     43  CH2       24.3500    8.0070   12.6440 C.ar   74  TRP74       0.0015
     44  N         17.4440    5.9460   10.6600 N.3   100  HIS100     -0.1226
     45  CA        18.7680    5.5680   10.1240 C.3   100  HIS100      0.1752
     46  C         19.2950    4.2820   10.7940 C.2   100  HIS100      0.2596
     47  O         20.0260    3.5230   10.1560 O.2   100  HIS100     -0.2718
     48  CB        19.7270    6.7330   10.2910 C.3   100  HIS100      0.0759
     49  CG        20.8570    6.7850    9.3130 C.ar  100  HIS100      0.0818
     50  ND1       21.3130    7.9820    8.7980 N.ar  100  HIS100     -0.2268
     51  CD2       21.6350    5.8040    8.7850 C.ar  100  HIS100      0.1154
     52  CE1       22.3300    7.7220    7.9870 C.ar  100  HIS100      0.1986
     53  NE2       22.5570    6.4180    7.9750 N.ar  100  HIS100     -0.2212
     54  N         18.9580    4.1000   12.0840 N.am  101  TYR101     -0.1976
     55  CA        19.3610    2.9240   12.8640 C.3   101  TYR101      0.1639
     56  C         18.2480    2.7000   13.8820 C.2   101  TYR101      0.2290
     57  O         17.3760    3.5600   14.0660 O.2   101  TYR101     -0.2864
     58  CB        20.6560    3.1700   13.6390 C.3   101  TYR101      0.0560
     59  CG        21.9010    3.1220   12.7960 C.ar  101  TYR101     -0.0198
     60  CD1       22.5320    1.9090   12.5510 C.ar  101  TYR101     -0.0009
     61  CD2       22.4690    4.2620   12.2690 C.ar  101  TYR101     -0.0009
     62  CE1       23.6770    1.8130   11.7520 C.ar  101  TYR101      0.0417
     63  CE2       23.6180    4.1790   11.4510 C.ar  101  TYR101      0.0417
     64  CZ        24.2140    2.9470   11.2060 C.ar  101  TYR101      0.1957
     65  OH        25.3430    2.8680   10.4100 O.3   101  TYR101     -0.2866
     66  N         27.5080   13.0230   16.6480 N.3   110  PHE110     -0.1241
     67  CA        28.2510   11.9200   17.2380 C.3   110  PHE110      0.1605
     68  C         28.6870   12.3220   18.6420 C.2   110  PHE110      0.2264
     69  O         29.8600   12.4860   18.9330 O.2   110  PHE110     -0.2867
     70  CB        29.4280   11.5250   16.3380 C.3   110  PHE110      0.0534
     71  CG        28.9680   10.9210   15.0630 C.ar  110  PHE110     -0.0203
     72  CD1       28.6410    9.5840   14.9890 C.ar  110  PHE110     -0.0042
     73  CD2       28.8060   11.7050   13.9380 C.ar  110  PHE110     -0.0042
     74  CE1       28.1470    9.0580   13.7830 C.ar  110  PHE110     -0.0003
     75  CE2       28.3110   11.1800   12.7570 C.ar  110  PHE110     -0.0003
     76  CZ        28.0160    9.8770   12.6890 C.ar  110  PHE110     -0.0000
     77  N         22.7200   -0.6490    0.6460 N.3   189  TYR189     -0.1241
     78  CA        23.8770    0.2180    0.5790 C.3   189  TYR189      0.1605
     79  C         25.1590   -0.5600    0.6140 C.2   189  TYR189      0.2264
     80  O         25.2120   -1.6840    1.0500 O.2   189  TYR189     -0.2867
     81  CB        23.8380    1.2660    1.6440 C.3   189  TYR189      0.0534
     82  CG        24.0250    0.8610    3.0440 C.ar  189  TYR189     -0.0201
     83  CD1       25.3070    0.6510    3.6120 C.ar  189  TYR189     -0.0009
     84  CD2       22.9320    0.7910    3.8850 C.ar  189  TYR189     -0.0009
     85  CE1       25.4260    0.3400    4.9630 C.ar  189  TYR189      0.0417
     86  CE2       23.0620    0.4930    5.2390 C.ar  189  TYR189      0.0417
     87  CZ        24.2910    0.2860    5.7800 C.ar  189  TYR189      0.1957
     88  OH        24.4700   -0.0040    7.1040 O.3   189  TYR189     -0.2866
     89  N         35.7250    4.8230    2.6740 N.3   197  TYR197     -0.1241
     90  CA        36.0360    5.9990    3.5110 C.3   197  TYR197      0.1605
     91  C         36.5150    5.4920    4.8860 C.2   197  TYR197      0.2264
     92  O         35.7850    4.8020    5.6160 O.2   197  TYR197     -0.2867
     93  CB        34.8120    6.9530    3.6400 C.3   197  TYR197      0.0534
     94  CG        33.4670    6.2780    3.4950 C.ar  197  TYR197     -0.0201
     95  CD1       32.8210    5.6930    4.5760 C.ar  197  TYR197     -0.0009
     96  CD2       32.8330    6.2710    2.2720 C.ar  197  TYR197     -0.0009
     97  CE1       31.5870    5.0380    4.4250 C.ar  197  TYR197      0.0417
     98  CE2       31.5750    5.6110    2.1080 C.ar  197  TYR197      0.0417
     99  CZ        30.9830    5.0010    3.2080 C.ar  197  TYR197      0.1957
    100  OH        29.7620    4.3530    3.0980 O.3   197  TYR197     -0.2866
    101  N         34.9370    5.1310    8.5300 N.3   199  TRP199     -0.1241
    102  CA        34.0020    4.0640    8.8410 C.3   199  TRP199      0.1605
    103  C         34.3880    2.6920    8.3680 C.2   199  TRP199      0.2264
    104  O         33.9050    1.7090    8.9400 O.2   199  TRP199     -0.2867
    105  CB        32.5880    4.3560    8.3040 C.3   199  TRP199      0.0550
    106  CG        32.0200    5.6470    8.7880 C.ar  199  TRP199      0.0003
    107  CD1       31.6990    6.7480    8.0320 C.ar  199  TRP199      0.0946
    108  CD2       31.7130    5.9980   10.1430 C.ar  199  TRP199      0.0152
    109  NE1       31.2020    7.7420    8.8460 N.ar  199  TRP199     -0.2442
    110  CE2       31.2220    7.3200   10.1430 C.ar  199  TRP199      0.0810
    111  CE3       31.8030    5.3160   11.3710 C.ar  199  TRP199      0.0012
    112  CZ2       30.7870    7.9470   11.3080 C.ar  199  TRP199      0.0191
    113  CZ3       31.4090    5.9790   12.5210 C.ar  199  TRP199      0.0001
    114  CH2       30.9010    7.2690   12.4740 C.ar  199  TRP199      0.0015
    115  N         30.4720   -1.9790    7.2960 N.3   270  LEU270     -0.1245
    116  CA        29.9000   -0.8920    8.1040 C.3   270  LEU270      0.1561
    117  C         29.1880   -1.4360    9.3440 C.2   270  LEU270      0.2260
    118  O         27.9480   -1.3880    9.4770 O.2   270  LEU270     -0.2867
    119  CB        28.9670   -0.0550    7.2310 C.3   270  LEU270      0.0270
    120  CG        29.7190    0.7210    6.1390 C.3   270  LEU270      0.0019
    121  CD1       28.7670    1.2200    5.0440 C.3   270  LEU270      0.0001
    122  CD2       30.5490    1.8900    6.6940 C.3   270  LEU270      0.0001
    123  N         29.1000   -0.2250   12.3500 N.3   272  ALA272     -0.1245
    124  CA        28.5740    0.8040   13.2740 C.3   272  ALA272      0.1562
    125  C         28.9460    0.4780   14.7240 C.2   272  ALA272      0.2260
    126  O         28.0910    0.4380   15.6200 O.2   272  ALA272     -0.2867
    127  CB        27.0640    0.9340   13.1150 C.3   272  ALA272      0.0290
    128  N         30.2600    2.0880   16.9680 N.3   274  PHE274     -0.1241
    129  CA        29.9350    3.1740   17.9120 C.3   274  PHE274      0.1605
    130  C         28.5790    2.9520   18.6110 C.2   274  PHE274      0.2264
    131  O         28.3300    3.5130   19.6890 O.2   274  PHE274     -0.2867
    132  CB        30.0270    4.5570   17.2480 C.3   274  PHE274      0.0534
    133  CG        29.0250    4.8000   16.1890 C.ar  274  PHE274     -0.0203
    134  CD1       29.2480    4.3460   14.8920 C.ar  274  PHE274     -0.0042
    135  CD2       27.8690    5.5140   16.4460 C.ar  274  PHE274     -0.0042
    136  CE1       28.3140    4.5610   13.9010 C.ar  274  PHE274     -0.0003
    137  CE2       26.9510    5.7240   15.4870 C.ar  274  PHE274     -0.0003
    138  CZ        27.1420    5.2300   14.2000 C.ar  274  PHE274     -0.0000
@<TRIPOS>BOND
     1     4     3    2
     2     1     2    1
     3    78    79    1
     4    78    77    1
     5    78    81    1
     6    79    80    2
     7     3     2    1
     8     2     5    1
     9    81    82    1
    10     5     6    1
    11    98    96   ar
    12    98    99   ar
    13    96    94   ar
    14    89    90    1
    15     8     6   ar
    16     8    10   ar
    17    82    83   ar
    18    82    84   ar
    19   100    99    1
    20     6     7   ar
    21    99    97   ar
    22    27    25   ar
    23    27    28   ar
    24    25    23   ar
    25    94    93    1
    26    94    95   ar
    27    90    93    1
    28    90    91    1
    29    83    85   ar
    30    84    86   ar
    31    10    11   ar
    32    29    28    1
    33    28    26   ar
    34    23    22    1
    35    23    24   ar
    36    97    95   ar
    37    22    19    1
    38     7     9   ar
    39    91    92    2
    40    85    87   ar
    41   121   120    1
    42    21    20    2
    43    86    87   ar
    44    11     9   ar
    45    11    12    1
    46    26    24   ar
    47    20    19    1
    48    87    88    1
    49    19    18    1
    50   120   122    1
    51   120   119    1
    52    18    15   am
    53   119   116    1
    54   115   116    1
    55    53    52   ar
    56    53    51   ar
    57    52    50   ar
    58   107   106   ar
    59   107   109   ar
    60   116   117    1
    61    15    16    2
    62    15    14    1
    63   105   106    1
    64   105   102    1
    65   103   102    1
    66   103   104    2
    67   101   102    1
    68    13    14    1
    69    51    49   ar
    70   106   108   ar
    71    50    49   ar
    72   109   110   ar
    73    14    17    1
    74    49    48    1
    75   117   118    2
    76    45    48    1
    77    45    44    1
    78    45    46    1
    79   108   110   ar
    80   108   111   ar
    81   110   112   ar
    82    47    46    2
    83    65    64    1
    84    46    54   am
    85    64    63   ar
    86    64    62   ar
    87   112   114   ar
    88   111   113   ar
    89    63    61   ar
    90    62    60   ar
    91    42    40   ar
    92    42    43   ar
    93    40    37   ar
    94    30    31    1
    95    54    55    1
    96    61    59   ar
    97   123   124    1
    98    34    31    1
    99    34    35    1
   100   114   113   ar
   101    60    59   ar
   102    31    32    1
   103    43    41   ar
   104    76    75   ar
   105    76    74   ar
   106    75    73   ar
   107    37    35   ar
   108    37    39   ar
   109    59    58    1
   110    55    58    1
   111    55    56    1
   112    35    36   ar
   113   127   124    1
   114   124   125    1
   115    41    39   ar
   116    39    38   ar
   117    74    72   ar
   118    56    57    2
   119   136   138   ar
   120   136   134   ar
   121    73    71   ar
   122    36    38   ar
   123    32    33    2
   124   138   137   ar
   125   125   126    2
   126   134   133   ar
   127    72    71   ar
   128    71    70    1
   129   137   135   ar
   130   133   135   ar
   131   133   132    1
   132    70    67    1
   133    66    67    1
   134   128   129    1
   135    67    68    1
   136   132   129    1
   137   129   130    1
   138   130   131    2
   139    68    69    2
