@<TRIPOS>MOLECULE
tmp/3ln3A00.pdb
 241 230 0 0 0
SMALL
GASTEIGER

@<TRIPOS>ATOM
      1  N         23.7080    7.1720   -4.3920 N.3    17  GLY17      -0.1210
      2  CA        24.1100    7.4350   -3.0380 C.3    17  GLY17       0.1956
      3  C         24.8250    8.7570   -2.8890 C.2    17  GLY17       0.2613
      4  O         25.5030    9.1900   -3.8150 O.2    17  GLY17      -0.2717
      5  N         24.7630    9.3340   -1.6970 N.am   18  THR18      -0.1938
      6  CA        25.3090   10.6590   -1.4500 C.3    18  THR18       0.2028
      7  C         26.1020   10.8020   -0.1560 C.2    18  THR18       0.2642
      8  O         26.4130   11.9310    0.2340 O.2    18  THR18      -0.2714
      9  CB        24.1930   11.7270   -1.4470 C.3    18  THR18       0.1808
     10  OG1       23.3090   11.5450   -0.3240 O.3    18  THR18      -0.2208
     11  CG2       23.4240   11.7610   -2.7610 C.3    18  THR18       0.0379
     12  N         26.5560    9.7040    0.4410 N.am   19  TYR19      -0.1973
     13  CA        27.4850    9.8420    1.5620 C.3    19  TYR19       0.1639
     14  C         28.6990   10.6820    1.1230 C.2    19  TYR19       0.2290
     15  O         29.3010   10.4020    0.0950 O.2    19  TYR19      -0.2864
     16  CB        27.9790    8.4600    2.0830 C.3    19  TYR19       0.0560
     17  CG        28.9580    8.6720    3.2010 C.ar   19  TYR19      -0.0198
     18  CD1       28.5120    8.9610    4.4880 C.ar   19  TYR19      -0.0009
     19  CD2       30.3170    8.6130    2.9940 C.ar   19  TYR19      -0.0009
     20  CE1       29.4020    9.1940    5.5240 C.ar   19  TYR19       0.0417
     21  CE2       31.2080    8.8540    4.0220 C.ar   19  TYR19       0.0417
     22  CZ        30.7590    9.1690    5.2720 C.ar   19  TYR19       0.1957
     23  OH        31.6230    9.4180    6.3220 O.3    19  TYR19      -0.2866
     24  N         19.4120    9.0470   -2.6770 N.3    41  ASP41      -0.1239
     25  CA        19.3970    8.6280   -1.2670 C.3    41  ASP41       0.1674
     26  C         20.3560    9.5350   -0.4900 C.2    41  ASP41       0.2266
     27  O         21.5380    9.6280   -0.8340 O.2    41  ASP41      -0.2867
     28  CB        19.8380    7.1700   -1.1610 C.3    41  ASP41       0.1410
     29  CG        19.8450    6.6860    0.2740 C.2    41  ASP41       0.3668
     30  OD1       18.7840    6.2070    0.7310 O.co2  41  ASP41      -0.2456
     31  OD2       20.9050    6.8420    0.9360 O.co2  41  ASP41      -0.2456
     32  N         24.6370   12.9270    6.8570 N.3    46  TYR46      -0.1241
     33  CA        25.6740   13.0710    5.8250 C.3    46  TYR46       0.1605
     34  C         26.1690   14.5200    5.6640 C.2    46  TYR46       0.2264
     35  O         27.2070   14.7360    5.0520 O.2    46  TYR46      -0.2867
     36  CB        25.2190   12.5520    4.4550 C.3    46  TYR46       0.0534
     37  CG        24.8050   11.1070    4.3910 C.ar   46  TYR46      -0.0201
     38  CD1       25.1040   10.2110    5.4100 C.ar   46  TYR46      -0.0009
     39  CD2       24.1460   10.6140    3.2770 C.ar   46  TYR46      -0.0009
     40  CE1       24.7220    8.8960    5.3470 C.ar   46  TYR46       0.0417
     41  CE2       23.7270    9.2980    3.2280 C.ar   46  TYR46       0.0417
     42  CZ        23.9990    8.4460    4.2700 C.ar   46  TYR46       0.1957
     43  OH        23.5050    7.1390    4.2520 O.3    46  TYR46      -0.2866
     44  N         16.8610   10.4960    5.8660 N.3    72  LYS72      -0.1245
     45  CA        16.9010    9.6550    7.0650 C.3    72  LYS72       0.1561
     46  C         16.9600   10.4880    8.3250 C.2    72  LYS72       0.2260
     47  O         17.7430   11.4280    8.4220 O.2    72  LYS72      -0.2867
     48  CB        18.1090    8.7180    7.0390 C.3    72  LYS72       0.0271
     49  CG        18.3580    8.0380    5.6630 C.3    72  LYS72       0.0035
     50  CD        19.3750    6.9240    5.7210 C.3    72  LYS72       0.0206
     51  CE        19.6900    6.3670    4.3630 C.3    72  LYS72       0.1093
     52  NZ        20.5440    7.2190    3.5440 N.3    72  LYS72      -0.1314
     53  N         17.4440    5.9460   10.6600 N.3   100  HIS100     -0.1226
     54  CA        18.7680    5.5680   10.1240 C.3   100  HIS100      0.1752
     55  C         19.2950    4.2820   10.7940 C.2   100  HIS100      0.2596
     56  O         20.0260    3.5230   10.1560 O.2   100  HIS100     -0.2718
     57  CB        19.7270    6.7330   10.2910 C.3   100  HIS100      0.0759
     58  CG        20.8570    6.7850    9.3130 C.ar  100  HIS100      0.0818
     59  ND1       21.3130    7.9820    8.7980 N.ar  100  HIS100     -0.2268
     60  CD2       21.6350    5.8040    8.7850 C.ar  100  HIS100      0.1154
     61  CE1       22.3300    7.7220    7.9870 C.ar  100  HIS100      0.1986
     62  NE2       22.5570    6.4180    7.9750 N.ar  100  HIS100     -0.2212
     63  N         18.9580    4.1000   12.0840 N.am  101  TYR101     -0.1976
     64  CA        19.3610    2.9240   12.8640 C.3   101  TYR101      0.1639
     65  C         18.2480    2.7000   13.8820 C.2   101  TYR101      0.2290
     66  O         17.3760    3.5600   14.0660 O.2   101  TYR101     -0.2864
     67  CB        20.6560    3.1700   13.6390 C.3   101  TYR101      0.0560
     68  CG        21.9010    3.1220   12.7960 C.ar  101  TYR101     -0.0198
     69  CD1       22.5320    1.9090   12.5510 C.ar  101  TYR101     -0.0009
     70  CD2       22.4690    4.2620   12.2690 C.ar  101  TYR101     -0.0009
     71  CE1       23.6770    1.8130   11.7520 C.ar  101  TYR101      0.0417
     72  CE2       23.6180    4.1790   11.4510 C.ar  101  TYR101      0.0417
     73  CZ        24.2140    2.9470   11.2060 C.ar  101  TYR101      0.1957
     74  OH        25.3430    2.8680   10.4100 O.3   101  TYR101     -0.2866
     75  N         16.0840    1.5900    8.5660 N.3   144  SER144     -0.1202
     76  CA        17.4200    1.2090    8.0760 C.3   144  SER144      0.2020
     77  C         18.1660    0.5130    9.2110 C.2   144  SER144      0.2618
     78  O         18.0570    0.8850   10.3920 O.2   144  SER144     -0.2717
     79  CB        18.1330    2.4640    7.5950 C.3   144  SER144      0.2103
     80  OG        19.3950    2.1360    7.0300 O.3   144  SER144     -0.2182
     81  N         18.8950   -0.5400    8.8670 N.am  145  ASN145     -0.1974
     82  CA        19.7760   -1.2380    9.8200 C.3   145  ASN145      0.1688
     83  C         18.9980   -1.8920   10.9500 C.2   145  ASN145      0.2292
     84  O         19.5220   -2.0260   12.0420 O.2   145  ASN145     -0.2864
     85  CB        20.8760   -0.3110   10.3360 C.3   145  ASN145      0.1181
     86  CG        21.7350    0.2140    9.2040 C.2   145  ASN145      0.2629
     87  OD1       22.3160   -0.5640    8.4590 O.2   145  ASN145     -0.2716
     88  ND2       21.8060    1.5300    9.0740 N.am  145  ASN145     -0.0877
     89  N         16.5700   -0.5270    4.7660 N.3   165  GLN165     -0.1245
     90  CA        17.7950   -0.2440    4.0560 C.3   165  GLN165      0.1566
     91  C         18.9760   -0.7910    4.8700 C.2   165  GLN165      0.2260
     92  O         19.1510   -0.3850    6.0390 O.2   165  GLN165     -0.2867
     93  CB        17.9340    1.2460    3.8030 C.3   165  GLN165      0.0367
     94  CG        19.2310    1.5770    3.0770 C.3   165  GLN165      0.0905
     95  CD        19.4980    3.0160    2.7160 C.2   165  GLN165      0.2608
     96  OE1       20.6520    3.4550    2.8560 O.2   165  GLN165     -0.2717
     97  NE2       18.5170    3.7250    2.1890 N.am  165  GLN165     -0.0878
     98  N         22.7200   -0.6490    0.6460 N.3   189  TYR189     -0.1227
     99  CA        23.8770    0.2180    0.5790 C.3   189  TYR189      0.1736
    100  C         25.1590   -0.5600    0.6140 C.2   189  TYR189      0.2596
    101  O         25.2120   -1.6840    1.0500 O.2   189  TYR189     -0.2718
    102  CB        23.8380    1.2660    1.6440 C.3   189  TYR189      0.0548
    103  CG        24.0250    0.8610    3.0440 C.ar  189  TYR189     -0.0200
    104  CD1       25.3070    0.6510    3.6120 C.ar  189  TYR189     -0.0009
    105  CD2       22.9320    0.7910    3.8850 C.ar  189  TYR189     -0.0009
    106  CE1       25.4260    0.3400    4.9630 C.ar  189  TYR189      0.0417
    107  CE2       23.0620    0.4930    5.2390 C.ar  189  TYR189      0.0417
    108  CZ        24.2910    0.2860    5.7800 C.ar  189  TYR189      0.1957
    109  OH        24.4700   -0.0040    7.1040 O.3   189  TYR189     -0.2866
    110  N         26.2410    0.0730    0.1730 N.am  190  GLY190     -0.1957
    111  CA        27.4980   -0.6720    0.0520 C.3   190  GLY190      0.1869
    112  C         27.4750   -1.7480   -1.0250 C.2   190  GLY190      0.2309
    113  O         28.2520   -2.6840   -0.9900 O.2   190  GLY190     -0.2863
    114  N         28.5000   -1.9470   -3.9620 N.3   192  LEU192     -0.1245
    115  CA        29.7510   -2.0800   -4.6920 C.3   192  LEU192      0.1561
    116  C         30.9510   -2.1980   -3.7430 C.2   192  LEU192      0.2260
    117  O         32.0760   -2.0360   -4.1650 O.2   192  LEU192     -0.2867
    118  CB        29.9360   -0.9230   -5.6720 C.3   192  LEU192      0.0270
    119  CG        28.7840   -0.7800   -6.6420 C.3   192  LEU192      0.0019
    120  CD1       29.0080    0.4750   -7.5370 C.3   192  LEU192      0.0001
    121  CD2       28.6240   -2.0410   -7.4390 C.3   192  LEU192      0.0001
    122  N         31.2870   -0.2730   -0.9060 N.3   194  THR194     -0.1203
    123  CA        31.4940    1.0570   -0.3520 C.3   194  THR194      0.1994
    124  C         32.5840    1.8500   -1.0440 C.2   194  THR194      0.2617
    125  O         33.4010    1.2840   -1.7730 O.2   194  THR194     -0.2717
    126  CB        31.7790    1.1040    1.1820 C.3   194  THR194      0.1784
    127  OG1       33.1710    0.8910    1.4410 O.3   194  THR194     -0.2211
    128  CG2       30.9300    0.1260    1.9790 C.3   194  THR194      0.0376
    129  N         32.6070    3.1580   -0.8000 N.am  195  GLN195     -0.1979
    130  CA        33.6880    4.0370   -1.2400 C.3   195  GLN195      0.1601
    131  C         34.9500    3.8850   -0.3600 C.2   195  GLN195      0.2287
    132  O         35.9600    4.5620   -0.6100 O.2   195  GLN195     -0.2864
    133  CB        33.2380    5.5000   -1.1860 C.3   195  GLN195      0.0394
    134  CG        31.9990    5.9480   -1.8410 C.3   195  GLN195      0.0908
    135  CD        31.6200    7.3820   -1.4070 C.2   195  GLN195      0.2608
    136  OE1       32.4750    8.2970   -1.4140 O.2   195  GLN195     -0.2717
    137  NE2       30.3490    7.5830   -1.0010 N.am  195  GLN195     -0.0878
    138  N         35.7250    4.8230    2.6740 N.3   197  TYR197     -0.1241
    139  CA        36.0360    5.9990    3.5110 C.3   197  TYR197      0.1605
    140  C         36.5150    5.4920    4.8860 C.2   197  TYR197      0.2264
    141  O         35.7850    4.8020    5.6160 O.2   197  TYR197     -0.2867
    142  CB        34.8120    6.9530    3.6400 C.3   197  TYR197      0.0534
    143  CG        33.4670    6.2780    3.4950 C.ar  197  TYR197     -0.0201
    144  CD1       32.8210    5.6930    4.5760 C.ar  197  TYR197     -0.0009
    145  CD2       32.8330    6.2710    2.2720 C.ar  197  TYR197     -0.0009
    146  CE1       31.5870    5.0380    4.4250 C.ar  197  TYR197      0.0417
    147  CE2       31.5750    5.6110    2.1080 C.ar  197  TYR197      0.0417
    148  CZ        30.9830    5.0010    3.2080 C.ar  197  TYR197      0.1957
    149  OH        29.7620    4.3530    3.0980 O.3   197  TYR197     -0.2866
    150  N         35.1280   -5.1460   -5.5580 N.3   208  LEU208     -0.1245
    151  CA        35.1990   -5.0280   -7.0230 C.3   208  LEU208      0.1561
    152  C         36.4190   -5.7080   -7.6350 C.2   208  LEU208      0.2260
    153  O         36.4680   -5.8510   -8.8590 O.2   208  LEU208     -0.2867
    154  CB        35.0810   -3.5920   -7.4710 C.3   208  LEU208      0.0270
    155  CG        33.6900   -2.9680   -7.2340 C.3   208  LEU208      0.0019
    156  CD1       33.7670   -1.4770   -7.5820 C.3   208  LEU208      0.0001
    157  CD2       32.5820   -3.6830   -7.9790 C.3   208  LEU208      0.0001
    158  N         31.1260   -4.8640  -16.6780 N.3   220  SER220     -0.1217
    159  CA        32.0580   -4.5620  -15.6000 C.3   220  SER220      0.1889
    160  C         31.6860   -5.3120  -14.3100 C.2   220  SER220      0.2288
    161  O         30.5340   -5.6760  -14.0860 O.2   220  SER220     -0.2866
    162  CB        32.0670   -3.0790  -15.3190 C.3   220  SER220      0.2089
    163  OG        30.8220   -2.6850  -14.7730 O.3   220  SER220     -0.2183
    164  N         31.2800   -3.9600  -11.4700 N.3   222  ALA222     -0.1245
    165  CA        30.2420   -3.1620  -10.8010 C.3   222  ALA222      0.1562
    166  C         28.8610   -3.5390  -11.3250 C.2   222  ALA222      0.2260
    167  O         27.8930   -3.6690  -10.5640 O.2   222  ALA222     -0.2867
    168  CB        30.4830   -1.6630  -10.9780 C.3   222  ALA222      0.0290
    169  N         21.6890    0.8970   -4.0280 N.3   237  LEU237     -0.1231
    170  CA        22.2330    2.2260   -4.1790 C.3   237  LEU237      0.1693
    171  C         23.6170    2.0760   -4.7540 C.2   237  LEU237      0.2592
    172  O         24.3050    1.0690   -4.5180 O.2   237  LEU237     -0.2718
    173  CB        22.2960    2.9190   -2.8110 C.3   237  LEU237      0.0284
    174  CG        20.9680    2.9350   -2.0620 C.3   237  LEU237      0.0019
    175  CD1       21.1890    3.6600   -0.7200 C.3   237  LEU237      0.0001
    176  CD2       19.8680    3.6470   -2.8780 C.3   237  LEU237      0.0001
    177  N         24.0540    3.0220   -5.5580 N.am  238  ALA238     -0.1966
    178  CA        25.4220    3.0070   -6.1120 C.3   238  ALA238      0.1728
    179  C         25.9150    4.4340   -6.0250 C.2   238  ALA238      0.2616
    180  O         25.2600    5.3530   -6.5130 O.2   238  ALA238     -0.2715
    181  CB        25.4120    2.5330   -7.5470 C.3   238  ALA238      0.0334
    182  N         27.0690    4.6290   -5.4190 N.am  239  GLN239     -0.1963
    183  CA        27.7090    5.9370   -5.3960 C.3   239  GLN239      0.1733
    184  C         28.9070    5.9820   -6.3530 C.2   239  GLN239      0.2617
    185  O         29.6510    5.0320   -6.4980 O.2   239  GLN239     -0.2715
    186  CB        28.1320    6.2570   -3.9920 C.3   239  GLN239      0.0408
    187  CG        28.5710    7.7450   -3.8320 C.3   239  GLN239      0.0908
    188  CD        29.9420    8.1620   -4.3710 C.2   239  GLN239      0.2608
    189  OE1       30.8670    7.3540   -4.4310 O.2   239  GLN239     -0.2717
    190  NE2       30.0870    9.4470   -4.7340 N.am  239  GLN239     -0.0878
    191  N         29.0870    7.1210   -7.0390 N.am  240  SER240     -0.1936
    192  CA        30.3820    7.4190   -7.6860 C.3   240  SER240      0.2055
    193  C         30.4880    8.9180   -7.8270 C.2   240  SER240      0.2643
    194  O         29.4840    9.6200   -7.8510 O.2   240  SER240     -0.2714
    195  CB        30.5840    6.7630   -9.0610 C.3   240  SER240      0.2130
    196  OG        31.9390    6.9640   -9.4970 O.3   240  SER240     -0.2179
    197  N         31.7110    9.4040   -7.8850 N.am  241  PHE241     -0.1973
    198  CA        31.9870   10.7750   -8.3010 C.3   241  PHE241      0.1639
    199  C         32.4270   10.8260   -9.7470 C.2   241  PHE241      0.2290
    200  O         32.5120   11.9160  -10.3100 O.2   241  PHE241     -0.2864
    201  CB        33.0820   11.3880   -7.4340 C.3   241  PHE241      0.0560
    202  CG        32.7080   11.5590   -5.9920 C.ar  241  PHE241     -0.0200
    203  CD1       31.7870   12.5300   -5.6050 C.ar  241  PHE241     -0.0042
    204  CD2       33.3080   10.7990   -5.0170 C.ar  241  PHE241     -0.0042
    205  CE1       31.4320   12.7030   -4.3100 C.ar  241  PHE241     -0.0003
    206  CE2       32.9650   10.9650   -3.6950 C.ar  241  PHE241     -0.0003
    207  CZ        32.0040   11.9300   -3.3400 C.ar  241  PHE241     -0.0000
    208  N         31.5860    6.0540  -14.5340 N.3   244  GLU244     -0.1245
    209  CA        31.0310    5.0590  -13.6150 C.3   244  GLU244      0.1567
    210  C         29.5500    5.2970  -13.3320 C.2   244  GLU244      0.2260
    211  O         28.7780    4.3510  -13.3740 O.2   244  GLU244     -0.2867
    212  CB        31.8030    5.0300  -12.3000 C.3   244  GLU244      0.0388
    213  CG        33.1900    4.5180  -12.4860 C.3   244  GLU244      0.1160
    214  CD        34.0330    4.4930  -11.2550 C.2   244  GLU244      0.3649
    215  OE1       33.5920    4.9500  -10.1730 O.co2 244  GLU244     -0.2457
    216  OE2       35.1800    3.9990  -11.3860 O.co2 244  GLU244     -0.2457
    217  N         27.7770    4.1820  -16.4100 N.3   246  GLU246     -0.1231
    218  CA        27.7710    2.7390  -16.6140 C.3   246  GLU246      0.1699
    219  C         26.7390    2.0350  -15.7460 C.2   246  GLU246      0.2592
    220  O         26.1000    1.0860  -16.1660 O.2   246  GLU246     -0.2718
    221  CB        29.1400    2.1760  -16.3130 C.3   246  GLU246      0.0402
    222  CG        29.2390    0.6730  -16.4450 C.3   246  GLU246      0.1161
    223  CD        30.6660    0.2250  -16.2370 C.2   246  GLU246      0.3649
    224  OE1       31.1300    0.0090  -15.0520 O.co2 246  GLU246     -0.2457
    225  OE2       31.3130    0.1170  -17.3160 O.co2 246  GLU246     -0.2457
    226  N         26.6000    2.4730  -14.5040 N.am  247  ASN247     -0.1974
    227  CA        25.7050    1.7720  -13.5790 C.3   247  ASN247      0.1688
    228  C         24.2550    1.7760  -14.0380 C.2   247  ASN247      0.2292
    229  O         23.5280    0.8350  -13.7370 O.2   247  ASN247     -0.2864
    230  CB        25.8590    2.3280  -12.1490 C.3   247  ASN247      0.1181
    231  CG        27.2200    2.0760  -11.5460 C.2   247  ASN247      0.2629
    232  OD1       27.9730    1.2030  -11.9930 O.2   247  ASN247     -0.2716
    233  ND2       27.5800    2.8960  -10.5480 N.am  247  ASN247     -0.0877
    234  N         30.4720   -1.9790    7.2960 N.3   270  LEU270     -0.1245
    235  CA        29.9000   -0.8920    8.1040 C.3   270  LEU270      0.1561
    236  C         29.1880   -1.4360    9.3440 C.2   270  LEU270      0.2260
    237  O         27.9480   -1.3880    9.4770 O.2   270  LEU270     -0.2867
    238  CB        28.9670   -0.0550    7.2310 C.3   270  LEU270      0.0270
    239  CG        29.7190    0.7210    6.1390 C.3   270  LEU270      0.0019
    240  CD1       28.7670    1.2200    5.0440 C.3   270  LEU270      0.0001
    241  CD2       30.5490    1.8900    6.6940 C.3   270  LEU270      0.0001
@<TRIPOS>BOND
     1   225   223   ar
     2   158   159    1
     3   218   217    1
     4   218   221    1
     5   218   219    1
     6   222   221    1
     7   222   223    1
     8   223   224   ar
     9   220   219    2
    10   219   226   am
    11   159   162    1
    12   159   160    1
    13   162   163    1
    14   208   209    1
    15   226   227    1
    16   160   161    2
    17   228   229    2
    18   228   227    1
    19   209   210    1
    20   209   212    1
    21   227   230    1
    22   211   210    2
    23   213   212    1
    24   213   214    1
    25   230   231    1
    26   232   231    2
    27   231   233   am
    28   164   165    1
    29   216   214   ar
    30   166   165    1
    31   166   167    2
    32   214   215   ar
    33   168   165    1
    34   200   199    2
    35   199   198    1
    36   196   195    1
    37   195   192    1
    38   153   152    2
    39   198   197    1
    40   198   201    1
    41   157   155    1
    42   197   193   am
    43   194   193    2
    44   193   192    1
    45   192   191    1
    46   152   151    1
    47   156   155    1
    48   181   178    1
    49   120   119    1
    50   154   155    1
    51   154   151    1
    52   121   119    1
    53   201   202    1
    54   191   184   am
    55   151   150    1
    56   119   118    1
    57   180   179    2
    58   185   184    2
    59   184   183    1
    60   178   179    1
    61   178   177    1
    62   179   182   am
    63   202   203   ar
    64   202   204   ar
    65   118   115    1
    66   203   205   ar
    67   177   171   am
    68   182   183    1
    69   183   186    1
    70   204   206   ar
    71   171   172    2
    72   171   170    1
    73   190   188   am
    74   115   114    1
    75   115   116    1
    76   189   188    2
    77     1     2    1
    78   188   187    1
    79   205   207   ar
    80   170   169    1
    81   170   173    1
    82   117   116    2
    83   186   187    1
    84     4     3    2
    85   206   207   ar
    86     2     3    1
    87     3     5   am
    88   176   174    1
    89   173   174    1
    90    11     9    1
    91    24    25    1
    92   174   175    1
    93   134   135    1
    94   134   133    1
    95   125   124    2
    96     5     6    1
    97     6     9    1
    98     6     7    1
    99     9    10    1
   100   136   135    2
   101   135   137   am
   102    25    28    1
   103    25    26    1
   104   130   133    1
   105   130   129    1
   106   130   131    1
   107    28    29    1
   108   124   129   am
   109   124   123    1
   110   112   113    2
   111   112   111    1
   112   122   123    1
   113    27    26    2
   114   132   131    2
   115   123   126    1
   116     7     8    2
   117     7    12   am
   118   111   110    1
   119    15    14    2
   120   110   100   am
   121    29    30   ar
   122    29    31   ar
   123    12    13    1
   124    99   100    1
   125    99    98    1
   126    99   102    1
   127   100   101    2
   128    14    13    1
   129   126   127    1
   130   126   128    1
   131    13    16    1
   132   102   103    1
   133    16    17    1
   134   147   145   ar
   135   147   148   ar
   136    97    95   am
   137   145   143   ar
   138   138   139    1
   139    95    96    2
   140    95    94    1
   141    19    17   ar
   142    19    21   ar
   143   103   104   ar
   144   103   105   ar
   145    94    93    1
   146   149   148    1
   147    17    18   ar
   148   148   146   ar
   149    41    39   ar
   150    41    42   ar
   151    39    37   ar
   152   143   142    1
   153   143   144   ar
   154   139   142    1
   155   139   140    1
   156    52    51    1
   157   104   106   ar
   158    93    90    1
   159   105   107   ar
   160    21    22   ar
   161    90    89    1
   162    90    91    1
   163    43    42    1
   164    42    40   ar
   165    51    50    1
   166    37    36    1
   167    37    38   ar
   168   146   144   ar
   169    36    33    1
   170    18    20   ar
   171    91    92    2
   172   140   141    2
   173   106   108   ar
   174   240   239    1
   175    35    34    2
   176   107   108   ar
   177    22    20   ar
   178    22    23    1
   179    40    38   ar
   180    49    50    1
   181    49    48    1
   182    34    33    1
   183   108   109    1
   184    33    32    1
   185    44    45    1
   186   239   241    1
   187   239   238    1
   188    80    79    1
   189    48    45    1
   190    45    46    1
   191   238   235    1
   192   234   235    1
   193    79    76    1
   194    62    61   ar
   195    62    60   ar
   196    61    59   ar
   197    76    75    1
   198    76    77    1
   199   235   236    1
   200    46    47    2
   201    87    86    2
   202    60    58   ar
   203    59    58   ar
   204    81    77   am
   205    81    82    1
   206    88    86   am
   207    86    85    1
   208    77    78    2
   209    58    57    1
   210   236   237    2
   211    82    85    1
   212    82    83    1
   213    54    57    1
   214    54    53    1
   215    54    55    1
   216    56    55    2
   217    74    73    1
   218    55    63   am
   219    83    84    2
   220    73    72   ar
   221    73    71   ar
   222    72    70   ar
   223    71    69   ar
   224    63    64    1
   225    70    68   ar
   226    69    68   ar
   227    68    67    1
   228    64    67    1
   229    64    65    1
   230    65    66    2
