@<TRIPOS>MOLECULE
tmp/3lnbA00.pdb
 226 216 0 0 0
SMALL
GASTEIGER

@<TRIPOS>ATOM
      1  N          8.8860   26.4240  -11.6320 N.3    38  PHE38      -0.1241
      2  CA         8.6930   26.3730  -13.0780 C.3    38  PHE38       0.1605
      3  C         10.1340   26.3920  -13.5920 C.2    38  PHE38       0.2264
      4  O         10.8440   27.3810  -13.4040 O.2    38  PHE38      -0.2867
      5  CB         7.9400   27.6230  -13.5570 C.3    38  PHE38       0.0534
      6  CG         7.8520   27.7540  -15.0540 C.ar   38  PHE38      -0.0203
      7  CD1        6.8080   27.1570  -15.7630 C.ar   38  PHE38      -0.0042
      8  CD2        8.8150   28.4780  -15.7590 C.ar   38  PHE38      -0.0042
      9  CE1        6.7240   27.2800  -17.1480 C.ar   38  PHE38      -0.0003
     10  CE2        8.7410   28.6060  -17.1470 C.ar   38  PHE38      -0.0003
     11  CZ         7.6920   28.0060  -17.8430 C.ar   38  PHE38      -0.0000
     12  N          8.2740   22.4810  -16.6220 N.3    68  LEU68      -0.1231
     13  CA         7.5870   23.4390  -17.4710 C.3    68  LEU68       0.1693
     14  C          6.0870   23.1360  -17.4700 C.2    68  LEU68       0.2592
     15  O          5.6370   22.1510  -16.8850 O.2    68  LEU68      -0.2718
     16  CB         8.1560   23.3900  -18.8940 C.3    68  LEU68       0.0284
     17  CG         9.5930   23.9200  -19.0420 C.3    68  LEU68       0.0019
     18  CD1       10.0970   23.7000  -20.4680 C.3    68  LEU68       0.0001
     19  CD2        9.6300   25.4020  -18.6980 C.3    68  LEU68       0.0001
     20  N          5.3220   23.9830  -18.1410 N.am   69  CYS69      -0.1970
     21  CA         3.8740   23.8370  -18.2030 C.3    69  CYS69       0.1712
     22  C          3.3490   22.4380  -18.5330 C.2    69  CYS69       0.2296
     23  O          2.4770   21.9240  -17.8310 O.2    69  CYS69      -0.2864
     24  CB         3.3070   24.8400  -19.2030 C.3    69  CYS69       0.0983
     25  SG         3.9400   24.6340  -20.8720 S.3    69  CYS69      -0.0798
     26  N          1.0780   30.4620  -26.5440 N.3    94  VAL94      -0.1245
     27  CA         1.2740   31.7040  -25.7940 C.3    94  VAL94       0.1561
     28  C          1.6240   32.8800  -26.7100 C.2    94  VAL94       0.2260
     29  O          2.2100   32.6940  -27.7720 O.2    94  VAL94      -0.2867
     30  CB         2.4160   31.5410  -24.7460 C.3    94  VAL94       0.0252
     31  CG1        2.6120   32.8360  -23.9720 C.3    94  VAL94       0.0019
     32  CG2        2.0940   30.4020  -23.7910 C.3    94  VAL94       0.0019
     33  N          6.3500   41.1630  -25.4650 N.3    98  TYR98      -0.1241
     34  CA         7.4510   42.0700  -25.7590 C.3    98  TYR98       0.1605
     35  C          7.7120   42.2240  -27.2460 C.2    98  TYR98       0.2264
     36  O          7.9430   43.3330  -27.7350 O.2    98  TYR98      -0.2867
     37  CB         8.7370   41.5890  -25.0830 C.3    98  TYR98       0.0534
     38  CG         8.7470   41.7810  -23.5870 C.ar   98  TYR98      -0.0201
     39  CD1        8.6060   43.0510  -23.0320 C.ar   98  TYR98      -0.0009
     40  CD2        8.8970   40.6970  -22.7260 C.ar   98  TYR98      -0.0009
     41  CE1        8.6150   43.2400  -21.6560 C.ar   98  TYR98       0.0417
     42  CE2        8.9060   40.8750  -21.3440 C.ar   98  TYR98       0.0417
     43  CZ         8.7630   42.1460  -20.8180 C.ar   98  TYR98       0.1957
     44  OH         8.7500   42.3270  -19.4530 O.3    98  TYR98      -0.2866
     45  N          4.2140   32.6300  -29.7220 N.3   103  LYS103     -0.1245
     46  CA         5.3340   31.7400  -29.4570 C.3   103  LYS103      0.1561
     47  C          4.9820   30.5120  -30.3010 C.2   103  LYS103      0.2260
     48  O          3.9020   30.4610  -30.8920 O.2   103  LYS103     -0.2867
     49  CB         5.3970   31.3720  -27.9710 C.3   103  LYS103      0.0271
     50  CG         5.7950   32.5110  -27.0290 C.3   103  LYS103      0.0035
     51  CD         7.2500   32.9590  -27.2310 C.3   103  LYS103      0.0206
     52  CE         7.7030   33.8780  -26.0900 C.3   103  LYS103      0.1093
     53  NZ         9.0570   34.4640  -26.3240 N.3   103  LYS103     -0.1314
     54  N          2.7500   25.4580  -27.6260 N.3   107  GLY107     -0.1210
     55  CA         3.8630   25.4150  -26.6940 C.3   107  GLY107      0.1956
     56  C          3.4100   25.5410  -25.2450 C.2   107  GLY107      0.2611
     57  O          4.1870   25.9180  -24.3660 O.2   107  GLY107     -0.2717
     58  N          2.1410   25.2400  -24.9960 N.am  108  HIS108     -0.1975
     59  CA         1.5890   25.2950  -23.6490 C.3   108  HIS108      0.1656
     60  C          0.5580   24.1880  -23.5370 C.2   108  HIS108      0.2291
     61  O         -0.0630   23.8130  -24.5290 O.2   108  HIS108     -0.2864
     62  CB         0.9350   26.6570  -23.3750 C.3   108  HIS108      0.0771
     63  CG         0.4600   26.8280  -21.9620 C.ar  108  HIS108      0.0820
     64  ND1        1.0600   26.1980  -20.8920 N.ar  108  HIS108     -0.2267
     65  CD2       -0.5210   27.6030  -21.4380 C.ar  108  HIS108      0.1154
     66  CE1        0.4720   26.5780  -19.7700 C.ar  108  HIS108      0.1986
     67  NE2       -0.4900   27.4310  -20.0730 N.ar  108  HIS108     -0.2212
     68  N          0.7760   25.9540  -14.9820 N.3   125  GLY125     -0.1210
     69  CA         2.0280   26.0080  -15.7180 C.3   125  GLY125      0.1956
     70  C          2.4090   27.3260  -16.3720 C.2   125  GLY125      0.2612
     71  O          3.4040   27.3850  -17.0930 O.2   125  GLY125     -0.2717
     72  N          1.6510   28.3870  -16.1140 N.am  126  PHE126     -0.1962
     73  CA         1.9370   29.6840  -16.7260 C.3   126  PHE126      0.1771
     74  C          2.9930   30.5190  -15.9820 C.2   126  PHE126      0.2619
     75  O          2.9390   31.7470  -15.9870 O.2   126  PHE126     -0.2715
     76  CB         0.6340   30.4840  -16.8750 C.3   126  PHE126      0.0574
     77  CG         0.6540   31.4960  -17.9990 C.ar  126  PHE126     -0.0200
     78  CD1       -0.4140   32.3750  -18.1740 C.ar  126  PHE126     -0.0042
     79  CD2        1.7360   31.5740  -18.8800 C.ar  126  PHE126     -0.0042
     80  CE1       -0.4060   33.3220  -19.2130 C.ar  126  PHE126     -0.0003
     81  CE2        1.7530   32.5170  -19.9210 C.ar  126  PHE126     -0.0003
     82  CZ         0.6760   33.3920  -20.0850 C.ar  126  PHE126     -0.0000
     83  N          3.9420   29.8350  -15.3450 N.am  127  ALA127     -0.1963
     84  CA         5.0470   30.4590  -14.6080 C.3   127  ALA127      0.1728
     85  C          4.6630   31.5090  -13.5690 C.2   127  ALA127      0.2617
     86  O          4.2120   31.1700  -12.4770 O.2   127  ALA127     -0.2715
     87  CB         6.0580   31.0480  -15.5950 C.3   127  ALA127      0.0334
     88  N          4.8590   32.7830  -13.8880 N.am  128  SER128     -0.1936
     89  CA         4.5260   33.8400  -12.9410 C.3   128  SER128      0.2055
     90  C          3.0920   34.3230  -13.1050 C.2   128  SER128      0.2643
     91  O          2.5690   35.0210  -12.2350 O.2   128  SER128     -0.2714
     92  CB         5.4840   35.0310  -13.0910 C.3   128  SER128      0.2130
     93  OG         5.2270   35.7580  -14.2780 O.3   128  SER128     -0.2179
     94  N          2.4590   33.9430  -14.2130 N.am  129  HIS129     -0.1973
     95  CA         1.0820   34.3370  -14.5060 C.3   129  HIS129      0.1656
     96  C          0.1010   33.2410  -14.0860 C.2   129  HIS129      0.2291
     97  O         -0.6930   32.7630  -14.8920 O.2   129  HIS129     -0.2864
     98  CB         0.9400   34.6150  -16.0060 C.3   129  HIS129      0.0771
     99  CG         1.9840   35.5410  -16.5430 C.ar  129  HIS129      0.0820
    100  ND1        2.1060   36.8470  -16.1190 N.ar  129  HIS129     -0.2267
    101  CD2        2.9830   35.3400  -17.4350 C.ar  129  HIS129      0.1154
    102  CE1        3.1350   37.4100  -16.7260 C.ar  129  HIS129      0.1986
    103  NE2        3.6850   36.5160  -17.5300 N.ar  129  HIS129     -0.2212
    104  N          9.5810   22.0470  -27.8540 N.3   193  ILE193     -0.1245
    105  CA        10.1150   23.0320  -26.9290 C.3   193  ILE193      0.1561
    106  C         11.6160   22.8050  -26.7330 C.2   193  ILE193      0.2260
    107  O         12.3800   23.7400  -26.4660 O.2   193  ILE193     -0.2867
    108  CB         9.3590   22.9510  -25.5920 C.3   193  ILE193      0.0252
    109  CG1        7.9620   23.5610  -25.7750 C.3   193  ILE193      0.0019
    110  CG2       10.1420   23.6360  -24.4910 C.3   193  ILE193      0.0019
    111  CD1        7.1070   23.5320  -24.5280 C.3   193  ILE193      0.0001
    112  N         11.3060   29.2920  -26.6100 N.3   200  PRO200     -0.2102
    113  CA        11.8220   30.1770  -25.5690 C.3   200  PRO200      0.1504
    114  C         12.6080   29.4030  -24.5090 C.2   200  PRO200      0.2575
    115  O         13.4300   29.9710  -23.7930 O.2   200  PRO200     -0.2718
    116  CB        10.5490   30.7760  -24.9600 C.3   200  PRO200      0.0282
    117  CG         9.4940   30.5650  -26.0080 C.3   200  PRO200      0.0208
    118  CD         9.8370   29.2190  -26.5590 C.3   200  PRO200      0.0893
    119  N         12.3660   28.0990  -24.4320 N.am  201  PHE201     -0.1977
    120  CA        12.9820   27.2850  -23.3940 C.3   201  PHE201      0.1639
    121  C         14.2370   26.4660  -23.6610 C.2   201  PHE201      0.2290
    122  O         14.6130   25.6420  -22.8300 O.2   201  PHE201     -0.2864
    123  CB        11.8980   26.3890  -22.7950 C.3   201  PHE201      0.0560
    124  CG        10.6700   27.1460  -22.3890 C.ar  201  PHE201     -0.0200
    125  CD1        9.6210   27.3290  -23.2890 C.ar  201  PHE201     -0.0042
    126  CD2       10.5870   27.7330  -21.1280 C.ar  201  PHE201     -0.0042
    127  CE1        8.5070   28.0850  -22.9460 C.ar  201  PHE201     -0.0003
    128  CE2        9.4750   28.4950  -20.7680 C.ar  201  PHE201     -0.0003
    129  CZ         8.4310   28.6720  -21.6810 C.ar  201  PHE201     -0.0000
    130  N         17.0900   28.1310  -24.7960 N.3   203  LYS203     -0.1231
    131  CA        18.0740   29.1930  -24.9900 C.3   203  LYS203      0.1693
    132  C         18.8520   29.5570  -23.7300 C.2   203  LYS203      0.2593
    133  O         19.8900   30.2220  -23.8030 O.2   203  LYS203     -0.2718
    134  CB        17.3790   30.4560  -25.4970 C.3   203  LYS203      0.0285
    135  CG        16.5650   30.2700  -26.7530 C.3   203  LYS203      0.0035
    136  CD        17.4440   29.9750  -27.9540 C.3   203  LYS203      0.0206
    137  CE        16.6410   30.1250  -29.2370 C.3   203  LYS203      0.1093
    138  NZ        15.4030   29.2920  -29.2050 N.3   203  LYS203     -0.1314
    139  N         18.3520   29.1360  -22.5790 N.am  204  GLY204     -0.1942
    140  CA        19.0150   29.4620  -21.3310 C.3   204  GLY204      0.2014
    141  C         18.1800   28.9720  -20.1670 C.2   204  GLY204      0.2639
    142  O         16.9580   28.8610  -20.2740 O.2   204  GLY204     -0.2714
    143  N         18.8350   28.6840  -19.0490 N.am  205  ALA205     -0.1963
    144  CA        18.1380   28.1770  -17.8800 C.3   205  ALA205      0.1728
    145  C         17.2080   29.1980  -17.2460 C.2   205  ALA205      0.2616
    146  O         17.5160   30.3950  -17.1780 O.2   205  ALA205     -0.2715
    147  CB        19.1450   27.6830  -16.8490 C.3   205  ALA205      0.0334
    148  N         16.0570   28.7120  -16.7950 N.am  206  ILE206     -0.1977
    149  CA        15.0820   29.5510  -16.1230 C.3   206  ILE206      0.1596
    150  C         14.4440   28.7270  -15.0110 C.2   206  ILE206      0.2287
    151  O         14.1760   27.5310  -15.1780 O.2   206  ILE206     -0.2864
    152  CB        13.9780   30.0620  -17.0930 C.3   206  ILE206      0.0276
    153  CG1       12.9460   30.9090  -16.3310 C.3   206  ILE206      0.0022
    154  CG2       13.2580   28.8890  -17.7380 C.3   206  ILE206      0.0022
    155  CD1       13.5270   32.0550  -15.5170 C.3   206  ILE206      0.0001
    156  N         11.5400   29.6260  -11.8830 N.3   208  CYS208     -0.1235
    157  CA        10.6550   30.6200  -11.2930 C.3   208  CYS208      0.1677
    158  C          9.7150   29.9940  -10.2760 C.2   208  CYS208      0.2270
    159  O          9.3290   28.8360  -10.4020 O.2   208  CYS208     -0.2867
    160  CB         9.8340   31.3000  -12.3900 C.3   208  CYS208      0.0956
    161  SG         8.5690   32.4510  -11.7950 S.3   208  CYS208     -0.0801
    162  N          7.1820   36.8970   -6.6250 N.3   215  HIS215     -0.1241
    163  CA         7.7660   35.7170   -7.2550 C.3   215  HIS215      0.1621
    164  C          9.2530   35.9540   -7.5050 C.2   215  HIS215      0.2264
    165  O          9.7280   37.0880   -7.4590 O.2   215  HIS215     -0.2867
    166  CB         7.0620   35.3580   -8.5740 C.3   215  HIS215      0.0745
    167  CG         7.2530   36.3610   -9.6710 C.ar  215  HIS215      0.0817
    168  ND1        6.5160   37.5220   -9.7540 N.ar  215  HIS215     -0.2268
    169  CD2        8.0860   36.3660  -10.7400 C.ar  215  HIS215      0.1154
    170  CE1        6.8820   38.1980  -10.8290 C.ar  215  HIS215      0.1986
    171  NE2        7.8330   37.5180  -11.4460 N.ar  215  HIS215     -0.2212
    172  N         12.7840   34.7040   -9.9500 N.3   217  SER217     -0.1217
    173  CA        13.2740   34.0840  -11.1690 C.3   217  SER217      0.1889
    174  C         14.8000   34.0450  -11.1970 C.2   217  SER217      0.2288
    175  O         15.4820   35.0090  -10.8270 O.2   217  SER217     -0.2866
    176  CB        12.7440   34.8380  -12.3900 C.3   217  SER217      0.2089
    177  OG        11.3400   34.6850  -12.4980 O.3   217  SER217     -0.2183
    178  N         18.1910   32.8670  -13.6580 N.3   219  THR219     -0.1218
    179  CA        18.7670   32.4290  -14.9200 C.3   219  THR219      0.1862
    180  C         20.2400   32.1530  -14.6280 C.2   219  THR219      0.2287
    181  O         20.6790   32.2860  -13.4880 O.2   219  THR219     -0.2866
    182  CB        18.6620   33.5130  -16.0120 C.3   219  THR219      0.1770
    183  OG1       19.4530   34.6510  -15.6500 O.3   219  THR219     -0.2211
    184  CG2       17.2220   33.9400  -16.1890 C.3   219  THR219      0.0375
    185  N         22.5990   33.9180  -15.6680 N.3   221  LYS221     -0.1231
    186  CA        23.1930   35.2480  -15.5240 C.3   221  LYS221      0.1693
    187  C         22.6310   36.1590  -14.4280 C.2   221  LYS221      0.2592
    188  O         23.3730   36.9280  -13.8150 O.2   221  LYS221     -0.2718
    189  CB        23.0770   35.9980  -16.8550 C.3   221  LYS221      0.0285
    190  CG        23.4920   35.1980  -18.0810 C.3   221  LYS221      0.0035
    191  CD        24.9560   34.8180  -18.0350 C.3   221  LYS221      0.0206
    192  CE        25.3700   34.1190  -19.3240 C.3   221  LYS221      0.1093
    193  NZ        26.8010   33.6870  -19.2780 N.3   221  LYS221     -0.1314
    194  N         21.3280   36.0880  -14.1820 N.am  222  ASN222     -0.1974
    195  CA        20.7160   36.9720  -13.1940 C.3   222  ASN222      0.1688
    196  C         19.6710   36.3610  -12.2840 C.2   222  ASN222      0.2292
    197  O         19.0010   35.3920  -12.6410 O.2   222  ASN222     -0.2864
    198  CB        20.0530   38.1480  -13.9060 C.3   222  ASN222      0.1181
    199  CG        21.0230   38.9490  -14.7270 C.2   222  ASN222      0.2629
    200  OD1       21.7990   39.7440  -14.1890 O.2   222  ASN222     -0.2716
    201  ND2       20.9980   38.7400  -16.0440 N.am  222  ASN222     -0.0877
    202  N         16.3160   37.5310  -10.3890 N.3   224  THR224     -0.1218
    203  CA        15.3130   38.5880  -10.3710 C.3   224  THR224      0.1862
    204  C         14.2640   38.3530   -9.2950 C.2   224  THR224      0.2287
    205  O         13.5850   37.3170   -9.2720 O.2   224  THR224     -0.2866
    206  CB        14.6190   38.7180  -11.7480 C.3   224  THR224      0.1770
    207  OG1       15.6100   38.9590  -12.7540 O.3   224  THR224     -0.2211
    208  CG2       13.6270   39.8810  -11.7510 C.3   224  THR224      0.0375
    209  N         10.9030   45.3110   -7.9810 N.3   231  LYS231     -0.1245
    210  CA        11.4260   44.3120   -8.8940 C.3   231  LYS231      0.1561
    211  C         12.8920   44.6160   -9.1580 C.2   231  LYS231      0.2260
    212  O         13.2340   45.6100   -9.8010 O.2   231  LYS231     -0.2867
    213  CB        10.6260   44.3220  -10.1960 C.3   231  LYS231      0.0271
    214  CG        10.9810   43.2000  -11.1540 C.3   231  LYS231      0.0035
    215  CD        10.1500   43.3150  -12.4240 C.3   231  LYS231      0.0206
    216  CE         8.8460   42.5480  -12.3150 C.3   231  LYS231      0.1093
    217  NZ         9.0560   41.1090  -12.6490 N.3   231  LYS231     -0.1314
    218  N         16.9190   43.1020  -10.2560 N.3   233  LYS233     -0.1245
    219  CA        17.6670   42.1200  -11.0240 C.3   233  LYS233      0.1561
    220  C         19.1150   42.2180  -10.5650 C.2   233  LYS233      0.2260
    221  O         19.6910   43.3020  -10.5290 O.2   233  LYS233     -0.2867
    222  CB        17.5810   42.3950  -12.5310 C.3   233  LYS233      0.0271
    223  CG        18.1960   41.2780  -13.3810 C.3   233  LYS233      0.0035
    224  CD        18.1520   41.5810  -14.8800 C.3   233  LYS233      0.0206
    225  CE        16.7160   41.7230  -15.4110 C.3   233  LYS233      0.1093
    226  NZ        15.9390   40.4460  -15.3540 N.3   233  LYS233     -0.1314
@<TRIPOS>BOND
     1    48    47    2
     2    47    46    1
     3    45    46    1
     4    46    49    1
     5   137   138    1
     6   137   136    1
     7    49    50    1
     8   136   135    1
     9   104   105    1
    10    29    28    2
    11    36    35    2
    12    54    55    1
    13    35    34    1
    14    51    50    1
    15    51    52    1
    16   105   106    1
    17   105   108    1
    18   135   134    1
    19   106   107    2
    20    28    27    1
    21    55    56    1
    22   112   118    1
    23   112   113    1
    24   118   117    1
    25    26    27    1
    26    53    52    1
    27   117   116    1
    28    27    30    1
    29   109   108    1
    30   109   111    1
    31    34    33    1
    32    34    37    1
    33   108   110    1
    34   113   116    1
    35   113   114    1
    36   134   131    1
    37    56    58   am
    38    56    57    2
    39    37    38    1
    40    58    59    1
    41   131   130    1
    42   131   132    1
    43    30    31    1
    44    30    32    1
    45    61    60    2
    46   114   119   am
    47   114   115    2
    48   119   120    1
    49   133   132    2
    50   132   139   am
    51   121   120    1
    52   121   122    2
    53    59    60    1
    54    59    62    1
    55    38    39   ar
    56    38    40   ar
    57   120   123    1
    58    62    63    1
    59   125   127   ar
    60   125   124   ar
    61    39    41   ar
    62   127   129   ar
    63   123   124    1
    64    40    42   ar
    65   139   140    1
    66   124   126   ar
    67    63    65   ar
    68    63    64   ar
    69   129   128   ar
    70    41    43   ar
    71    65    67   ar
    72    42    43   ar
    73   140   141    1
    74   126   128   ar
    75    64    66   ar
    76    25    24    1
    77    43    44    1
    78    18    17    1
    79   142   141    2
    80   141   143   am
    81    82    81   ar
    82    82    80   ar
    83    67    66   ar
    84    81    79   ar
    85   192   193    1
    86   192   191    1
    87    80    78   ar
    88    24    21    1
    89   143   144    1
    90    17    16    1
    91    17    19    1
    92    16    13    1
    93    79    77   ar
    94    22    21    1
    95    22    23    2
    96    21    20    1
    97    78    77   ar
    98    20    14   am
    99   190   191    1
   100   190   189    1
   101    77    76    1
   102   144   145    1
   103   144   147    1
   104    11     9   ar
   105    11    10   ar
   106   154   152    1
   107   103   101   ar
   108   103   102   ar
   109    13    14    1
   110    13    12    1
   111    14    15    2
   112   101    99   ar
   113   145   146    2
   114   145   148   am
   115     9     7   ar
   116    10     8   ar
   117    71    70    2
   118   152   153    1
   119   152   149    1
   120    76    73    1
   121   189   186    1
   122   148   149    1
   123   102   100   ar
   124    73    72    1
   125    73    74    1
   126    99   100   ar
   127    99    98    1
   128    70    72   am
   129    70    69    1
   130   153   155    1
   131   184   182    1
   132   149   150    1
   133   201   199   am
   134   182   183    1
   135   182   179    1
   136    98    95    1
   137    75    74    2
   138    74    83   am
   139     7     6   ar
   140     8     6   ar
   141    69    68    1
   142   185   186    1
   143    87    84    1
   144   186   187    1
   145   225   226    1
   146   225   224    1
   147    83    84    1
   148   151   150    2
   149     6     5    1
   150   179   180    1
   151   179   178    1
   152    97    96    2
   153   224   223    1
   154   199   200    2
   155   199   198    1
   156   180   181    2
   157    84    85    1
   158    95    94    1
   159    95    96    1
   160   187   194   am
   161   187   188    2
   162    93    92    1
   163    94    90   am
   164   194   195    1
   165   198   195    1
   166    88    85   am
   167    88    89    1
   168     3     4    2
   169     3     2    1
   170    85    86    2
   171     5     2    1
   172   223   222    1
   173   195   196    1
   174    90    89    1
   175    90    91    2
   176    92    89    1
   177     2     1    1
   178   207   206    1
   179   217   216    1
   180   197   196    2
   181   222   219    1
   182   177   176    1
   183   215   216    1
   184   215   214    1
   185   176   173    1
   186   160   161    1
   187   160   157    1
   188   156   157    1
   189   208   206    1
   190   206   203    1
   191   171   170   ar
   192   171   169   ar
   193   157   158    1
   194   174   173    1
   195   174   175    2
   196   173   172    1
   197   214   213    1
   198   219   220    1
   199   219   218    1
   200   170   168   ar
   201   169   167   ar
   202   220   221    2
   203   159   158    2
   204   202   203    1
   205   203   204    1
   206   213   210    1
   207   212   211    2
   208   168   167   ar
   209   167   166    1
   210   204   205    2
   211   211   210    1
   212   210   209    1
   213   166   163    1
   214   164   165    2
   215   164   163    1
   216   163   162    1
