@<TRIPOS>MOLECULE
tmp/3lncA00.pdb
 148 139 0 0 0
SMALL
GASTEIGER

@<TRIPOS>ATOM
      1  N         61.8430   28.1890   18.7180 N.3    13  SER13      -0.1203
      2  CA        62.6790   27.2430   19.3950 C.3    13  SER13       0.2005
      3  C         61.9460   27.0900   20.7410 C.2    13  SER13       0.2460
      4  O         61.1050   27.9640   21.1180 O.2    13  SER13      -0.2732
      5  CB        64.0780   27.8520   19.4980 C.3    13  SER13       0.2103
      6  OG        65.1150   26.9060   19.7350 O.3    13  SER13      -0.2182
      7  N         62.1350   25.9690   21.4230 N.am   14  PRO14      -0.2728
      8  CA        61.9360   26.1420   22.8490 C.3    14  PRO14       0.1401
      9  C         63.2670   26.5750   23.4700 C.2    14  PRO14       0.2269
     10  O         63.3180   27.6360   24.0540 O.2    14  PRO14      -0.2865
     11  CB        61.5370   24.7460   23.3280 C.3    14  PRO14       0.0296
     12  CG        62.0700   23.8350   22.3120 C.3    14  PRO14       0.0237
     13  CD        62.0970   24.5620   21.0230 C.3    14  PRO14       0.0939
     14  N         65.8880   28.1040   23.0370 N.3    16  GLY16      -0.1225
     15  CA        66.1400   29.5300   22.9880 C.3    16  GLY16       0.1811
     16  C         67.5650   29.8270   22.5810 C.2    16  GLY16       0.2280
     17  O         68.1130   30.8470   23.0010 O.2    16  GLY16      -0.2866
     18  N         61.7340   42.6820   18.4330 N.3    31  SER31      -0.1217
     19  CA        60.4790   42.6830   19.1560 C.3    31  SER31       0.1889
     20  C         60.4850   43.6210   20.3560 C.2    31  SER31       0.2288
     21  O         61.5430   43.9650   20.8830 O.2    31  SER31      -0.2866
     22  CB        60.1650   41.2770   19.6490 C.3    31  SER31       0.2089
     23  OG        59.7730   40.4410   18.5610 O.3    31  SER31      -0.2183
     24  N         59.7010   42.1480   29.6600 N.3    35  ARG35      -0.1245
     25  CA        60.6770   41.5650   30.5860 C.3    35  ARG35       0.1563
     26  C         61.9150   42.4480   30.7460 C.2    35  ARG35       0.2260
     27  O         62.2360   43.2510   29.8590 O.2    35  ARG35      -0.2867
     28  CB        61.0740   40.1450   30.1640 C.3    35  ARG35       0.0307
     29  CG        62.0730   40.0030   29.0130 C.3    35  ARG35       0.0489
     30  CD        62.8240   38.6710   29.2020 C.3    35  ARG35       0.2205
     31  NE        63.6510   38.2820   28.0800 N.pl3  35  ARG35      -0.0865
     32  CZ        64.8520   38.7760   27.7990 C.cat  35  ARG35       0.5346
     33  NH1       65.4050   39.7230   28.5550 N.pl3  35  ARG35       0.1354
     34  NH2       65.5080   38.3020   26.7520 N.pl3  35  ARG35       0.1354
     35  N         68.5510   41.3690   30.2260 N.3    38  ARG38      -0.1245
     36  CA        69.5160   40.5040   30.9090 C.3    38  ARG38       0.1563
     37  C         70.9200   40.9880   30.6040 C.2    38  ARG38       0.2260
     38  O         71.1120   41.8380   29.7160 O.2    38  ARG38      -0.2867
     39  CB        69.3400   39.0520   30.4480 C.3    38  ARG38       0.0307
     40  CG        68.0830   38.4200   31.0260 C.3    38  ARG38       0.0489
     41  CD        67.6030   37.2420   30.2120 C.3    38  ARG38       0.2205
     42  NE        66.2820   36.8030   30.6700 N.pl3  38  ARG38      -0.0865
     43  CZ        65.5320   35.8990   30.0460 C.cat  38  ARG38       0.5346
     44  NH1       65.9530   35.3320   28.9210 N.pl3  38  ARG38       0.1354
     45  NH2       64.3510   35.5650   30.5490 N.pl3  38  ARG38       0.1354
     46  N         65.9620   43.5040   22.1030 N.3    47  TYR47      -0.1241
     47  CA        64.5470   43.8740   22.1490 C.3    47  TYR47       0.1605
     48  C         64.4330   45.3800   22.2550 C.2    47  TYR47       0.2264
     49  O         65.4180   46.0770   22.5850 O.2    47  TYR47      -0.2867
     50  CB        63.8480   43.2480   23.3830 C.3    47  TYR47       0.0534
     51  CG        63.6530   41.7600   23.3000 C.ar   47  TYR47      -0.0201
     52  CD1       62.5800   41.2190   22.5750 C.ar   47  TYR47      -0.0009
     53  CD2       64.5430   40.8750   23.9020 C.ar   47  TYR47      -0.0009
     54  CE1       62.3860   39.8720   22.4760 C.ar   47  TYR47       0.0417
     55  CE2       64.3520   39.4850   23.7830 C.ar   47  TYR47       0.0417
     56  CZ        63.2730   39.0040   23.0570 C.ar   47  TYR47       0.1957
     57  OH        63.0640   37.6430   22.9030 O.3    47  TYR47      -0.2866
     58  N         51.5740   41.7950   16.2220 N.3    66  GLU66      -0.1245
     59  CA        51.3310   40.5150   16.8990 C.3    66  GLU66       0.1567
     60  C         51.8250   40.6710   18.3080 C.2    66  GLU66       0.2260
     61  O         52.8410   41.3450   18.5370 O.2    66  GLU66      -0.2867
     62  CB        52.1460   39.4000   16.2060 C.3    66  GLU66       0.0388
     63  CG        52.0350   38.0220   16.8480 C.3    66  GLU66       0.1160
     64  CD        52.9210   37.8240   18.0750 C.2    66  GLU66       0.3649
     65  OE1       54.0230   38.4090   18.1710 O.co2  66  GLU66      -0.2457
     66  OE2       52.5230   37.0520   18.9540 O.co2  66  GLU66      -0.2457
     67  N         51.9600   38.2940   22.3040 N.3    68  ALA68      -0.1245
     68  CA        51.5900   37.1820   23.1590 C.3    68  ALA68       0.1562
     69  C         52.1990   37.3450   24.5370 C.2    68  ALA68       0.2260
     70  O         53.1920   38.0750   24.7290 O.2    68  ALA68      -0.2867
     71  CB        52.0530   35.8500   22.5410 C.3    68  ALA68       0.0290
     72  N         54.2980   35.3200   27.1050 N.3    70  VAL70      -0.1231
     73  CA        55.2150   34.1860   27.0940 C.3    70  VAL70       0.1692
     74  C         55.9560   34.1670   28.4170 C.2    70  VAL70       0.2592
     75  O         56.7000   35.1030   28.7620 O.2    70  VAL70      -0.2718
     76  CB        56.1950   34.2830   25.9200 C.3    70  VAL70       0.0266
     77  CG1       57.0640   33.0420   25.8200 C.3    70  VAL70       0.0020
     78  CG2       55.4370   34.5180   24.6200 C.3    70  VAL70       0.0020
     79  N         55.6870   33.1120   29.1810 N.am   71  PHE71      -0.1976
     80  CA        56.2300   32.9270   30.5130 C.3    71  PHE71       0.1639
     81  C         56.1840   34.1620   31.3940 C.2    71  PHE71       0.2290
     82  O         57.1910   34.5760   31.9440 O.2    71  PHE71      -0.2864
     83  CB        57.6420   32.3190   30.3930 C.3    71  PHE71       0.0560
     84  CG        57.6470   30.9800   29.7000 C.ar   71  PHE71      -0.0200
     85  CD1       57.2340   29.8450   30.3760 C.ar   71  PHE71      -0.0042
     86  CD2       58.0270   30.8570   28.3770 C.ar   71  PHE71      -0.0042
     87  CE1       57.2180   28.6040   29.7430 C.ar   71  PHE71      -0.0003
     88  CE2       58.0110   29.6140   27.7290 C.ar   71  PHE71      -0.0003
     89  CZ        57.6020   28.4970   28.4040 C.ar   71  PHE71      -0.0000
     90  N         55.3900   40.0630   24.6820 N.3    75  TYR75      -0.1227
     91  CA        56.3140   40.2150   23.5660 C.3    75  TYR75       0.1736
     92  C         55.4880   40.4790   22.3440 C.2    75  TYR75       0.2596
     93  O         54.4080   39.9160   22.1990 O.2    75  TYR75      -0.2718
     94  CB        57.1290   38.9450   23.2980 C.3    75  TYR75       0.0548
     95  CG        57.9730   38.4460   24.4360 C.ar   75  TYR75      -0.0200
     96  CD1       57.3960   37.8190   25.5290 C.ar   75  TYR75      -0.0009
     97  CD2       59.3570   38.5550   24.3950 C.ar   75  TYR75      -0.0009
     98  CE1       58.1760   37.3620   26.5710 C.ar   75  TYR75       0.0417
     99  CE2       60.1240   38.0890   25.4080 C.ar   75  TYR75       0.0417
    100  CZ        59.5350   37.4820   26.4950 C.ar   75  TYR75       0.1957
    101  OH        60.3030   37.0020   27.5390 O.3    75  TYR75      -0.2866
    102  N         55.9840   41.3400   21.4690 N.am   76  GLY76      -0.1942
    103  CA        55.2440   41.7260   20.2730 C.3    76  GLY76       0.2014
    104  C         56.1360   42.1950   19.1310 C.2    76  GLY76       0.2638
    105  O         57.2610   42.6690   19.3290 O.2    76  GLY76      -0.2714
    106  N         55.6350   41.9880   17.9280 N.am   77  VAL77      -0.1977
    107  CA        56.3210   42.3510   16.7290 C.3    77  VAL77       0.1596
    108  C         55.8280   43.6950   16.2520 C.2    77  VAL77       0.2287
    109  O         54.6360   43.8650   16.0230 O.2    77  VAL77      -0.2864
    110  CB        56.0340   41.3440   15.6030 C.3    77  VAL77       0.0276
    111  CG1       56.7520   41.8190   14.2960 C.3    77  VAL77       0.0022
    112  CG2       56.4790   39.9180   16.0300 C.3    77  VAL77       0.0022
    113  N         61.8140   35.7870   15.3720 N.3    95  VAL95      -0.1231
    114  CA        62.1070   34.6690   16.2690 C.3    95  VAL95       0.1692
    115  C         61.1120   34.7930   17.4140 C.2    95  VAL95       0.2592
    116  O         61.2830   35.6410   18.2980 O.2    95  VAL95      -0.2718
    117  CB        63.5620   34.7010   16.7910 C.3    95  VAL95       0.0266
    118  CG1       63.8440   33.4790   17.7010 C.3    95  VAL95       0.0020
    119  CG2       64.5620   34.8030   15.6220 C.3    95  VAL95       0.0020
    120  N         60.0550   33.9890   17.3450 N.am   96  ILE96      -0.1966
    121  CA        58.8600   34.1420   18.1710 C.3    96  ILE96       0.1727
    122  C         58.3810   32.7730   18.6390 C.2    96  ILE96       0.2616
    123  O         58.8480   31.7250   18.1420 O.2    96  ILE96      -0.2715
    124  CB        57.7450   34.9160   17.4100 C.3    96  ILE96       0.0290
    125  CG1       57.3790   34.2050   16.1020 C.3    96  ILE96       0.0022
    126  CG2       58.1910   36.3840   17.0910 C.3    96  ILE96       0.0023
    127  CD1       56.3260   34.9190   15.2380 C.3    96  ILE96       0.0001
    128  N         57.5020   32.7610   19.6510 N.am   97  ASP97      -0.1971
    129  CA        57.0120   31.5030   20.1950 C.3    97  ASP97       0.1709
    130  C         55.8890   30.9560   19.3040 C.2    97  ASP97       0.2293
    131  O         55.5820   31.5380   18.2820 O.2    97  ASP97      -0.2864
    132  CB        56.5810   31.7000   21.6650 C.3    97  ASP97       0.1436
    133  CG        55.1330   32.1660   21.7990 C.2    97  ASP97       0.3671
    134  OD1       54.6650   32.9640   20.9530 O.co2  97  ASP97      -0.2456
    135  OD2       54.4660   31.6650   22.7290 O.co2  97  ASP97      -0.2456
    136  N         52.9060   33.2410   18.5060 N.3   100  GLY100     -0.1225
    137  CA        53.2360   34.1830   17.4440 C.3   100  GLY100      0.1811
    138  C         53.3130   33.5420   16.0720 C.2   100  GLY100      0.2280
    139  O         52.7830   34.0710   15.1140 O.2   100  GLY100     -0.2866
    140  N         55.3510   23.7160   24.1620 N.3   136  GLU136     -0.1245
    141  CA        55.7290   24.4510   22.9460 C.3   136  GLU136      0.1567
    142  C         56.0320   23.4640   21.7890 C.2   136  GLU136      0.2260
    143  O         55.4810   23.5650   20.7090 O.2   136  GLU136     -0.2867
    144  CB        56.9380   25.3650   23.2260 C.3   136  GLU136      0.0388
    145  CG        56.5900   26.5850   24.1140 C.3   136  GLU136      0.1160
    146  CD        57.7900   27.4780   24.5330 C.2   136  GLU136      0.3649
    147  OE1       58.7940   26.9610   25.0990 O.co2 136  GLU136     -0.2457
    148  OE2       57.6990   28.7210   24.2990 O.co2 136  GLU136     -0.2457
@<TRIPOS>BOND
     1   111   110    1
     2   139   138    2
     3   127   125    1
     4   113   114    1
     5   110   112    1
     6   110   107    1
     7   119   117    1
     8   109   108    2
     9   138   137    1
    10   125   124    1
    11    62    63    1
    12    62    59    1
    13    58    59    1
    14   108   107    1
    15   114   117    1
    16   114   115    1
    17   107   106    1
    18   117   118    1
    19    63    64    1
    20    59    60    1
    21   126   124    1
    22   120   115   am
    23   120   121    1
    24   124   121    1
    25   115   116    2
    26   137   136    1
    27   106   104   am
    28    64    65   ar
    29    64    66   ar
    30   123   122    2
    31   121   122    1
    32   131   130    2
    33    60    61    2
    34    18    19    1
    35    23    22    1
    36   122   128   am
    37     1     2    1
    38   104   105    2
    39   104   103    1
    40    19    22    1
    41    19    20    1
    42   130   129    1
    43     2     5    1
    44     2     3    1
    45     5     6    1
    46   128   129    1
    47   129   132    1
    48   103   102    1
    49    20    21    2
    50   143   142    2
    51     3     4    2
    52     3     7   am
    53   134   133   ar
    54    13     7    1
    55    13    12    1
    56     7     8    1
    57   102    92   am
    58   132   133    1
    59   142   141    1
    60   133   135   ar
    61    46    47    1
    62    47    48    1
    63    47    50    1
    64    93    92    2
    65    48    49    2
    66    67    68    1
    67    12    11    1
    68    92    91    1
    69    54    52   ar
    70    54    56   ar
    71    71    68    1
    72    52    51   ar
    73    16    15    1
    74    16    17    2
    75     8    11    1
    76     8     9    1
    77    57    56    1
    78   141   144    1
    79   141   140    1
    80    15    14    1
    81    56    55   ar
    82    68    69    1
    83   144   145    1
    84    94    91    1
    85    94    95    1
    86    51    50    1
    87    51    53   ar
    88     9    10    2
    89    91    90    1
    90    55    53   ar
    91   145   146    1
    92   148   146   ar
    93    97    95   ar
    94    97    99   ar
    95    95    96   ar
    96   146   147   ar
    97    69    70    2
    98    78    76    1
    99    99   100   ar
   100    96    98   ar
   101    77    76    1
   102    76    73    1
   103   100    98   ar
   104   100   101    1
   105    34    32    1
   106    73    72    1
   107    73    74    1
   108    88    86   ar
   109    88    89   ar
   110    32    31    2
   111    32    33    1
   112    31    30    1
   113    86    84   ar
   114    89    87   ar
   115    74    75    2
   116    74    79   am
   117    44    43    1
   118    29    30    1
   119    29    28    1
   120    79    80    1
   121    24    25    1
   122    84    85   ar
   123    84    83    1
   124    38    37    2
   125    87    85   ar
   126    27    26    2
   127    43    45    1
   128    43    42    2
   129    28    25    1
   130    41    42    1
   131    41    40    1
   132    35    36    1
   133    83    80    1
   134    39    36    1
   135    39    40    1
   136    80    81    1
   137    25    26    1
   138    37    36    1
   139    81    82    2
