@<TRIPOS>MOLECULE
tmp/3lnjE00.pdb
 124 120 0 0 0
SMALL
GASTEIGER

@<TRIPOS>ATOM
      1  N         15.3750   -9.9110    2.8050 N.3    26  LYS26      -0.1245
      2  CA        16.5200  -10.7630    2.4770 C.3    26  LYS26       0.1561
      3  C         16.0760  -11.7680    1.4450 C.2    26  LYS26       0.2260
      4  O         16.7450  -11.9590    0.4560 O.2    26  LYS26      -0.2867
      5  CB        17.0550  -11.5070    3.6840 C.3    26  LYS26       0.0271
      6  CG        17.8860  -10.7030    4.6490 C.3    26  LYS26       0.0035
      7  CD        18.2140  -11.5630    5.8940 C.3    26  LYS26       0.0206
      8  CE        19.6610  -12.0490    5.8900 C.3    26  LYS26       0.1093
      9  NZ        20.2510  -12.0520    7.2780 N.3    26  LYS26      -0.1314
     10  N         15.5820  -10.3330   -2.0680 N.3    29  LEU29      -0.1231
     11  CA        16.8660   -9.9890   -2.6580 C.3    29  LEU29       0.1693
     12  C         17.5960  -11.2440   -3.1210 C.2    29  LEU29       0.2592
     13  O         18.1810  -11.2570   -4.2410 O.2    29  LEU29      -0.2718
     14  CB        17.7230   -9.2010   -1.6760 C.3    29  LEU29       0.0284
     15  CG        17.2680   -7.7310   -1.5040 C.3    29  LEU29       0.0019
     16  CD1       18.0640   -7.0010   -0.4110 C.3    29  LEU29       0.0001
     17  CD2       17.3470   -6.9430   -2.8420 C.3    29  LEU29       0.0001
     18  N         17.5650  -12.2840   -2.2720 N.am   30  PHE30      -0.1976
     19  CA        18.1700  -13.5880   -2.5910 C.3    30  PHE30       0.1639
     20  C         17.6550  -14.1040   -3.9270 C.2    30  PHE30       0.2290
     21  O         18.4490  -14.3840   -4.8530 O.2    30  PHE30      -0.2864
     22  CB        17.9040  -14.6340   -1.5090 C.3    30  PHE30       0.0560
     23  CG        18.3920  -16.0140   -1.8900 C.ar   30  PHE30      -0.0200
     24  CD1       19.7630  -16.3260   -1.8530 C.ar   30  PHE30      -0.0042
     25  CD2       17.5010  -16.9950   -2.3220 C.ar   30  PHE30      -0.0042
     26  CE1       20.2410  -17.5870   -2.2220 C.ar   30  PHE30      -0.0003
     27  CE2       17.9470  -18.2630   -2.6770 C.ar   30  PHE30      -0.0003
     28  CZ        19.3380  -18.5590   -2.6250 C.ar   30  PHE30      -0.0000
     29  N         16.0030  -12.5510   -6.2200 N.3    32  LEU32      -0.1231
     30  CA        16.3520  -11.5900   -7.2310 C.3    32  LEU32       0.1693
     31  C         17.7500  -11.8810   -7.8260 C.2    32  LEU32       0.2593
     32  O         17.9180  -11.9200   -9.0550 O.2    32  LEU32      -0.2718
     33  CB        16.3000  -10.1860   -6.6100 C.3    32  LEU32       0.0284
     34  CG        16.5030   -9.1510   -7.6980 C.3    32  LEU32       0.0019
     35  CD1       15.2520   -9.2760   -8.5160 C.3    32  LEU32       0.0001
     36  CD2       16.7550   -7.6640   -7.2020 C.3    32  LEU32       0.0001
     37  N         18.7420  -12.0790   -6.9570 N.am   33  GLY33      -0.1942
     38  CA        20.0790  -12.4220   -7.3920 C.3    33  GLY33       0.2014
     39  C         20.1240  -13.8370   -7.9860 C.2    33  GLY33       0.2638
     40  O         20.9510  -14.1170   -8.8870 O.2    33  GLY33      -0.2714
     41  N         19.2630  -14.7470   -7.5000 N.am   34  GLN34      -0.1977
     42  CA        19.2600  -16.0970   -8.1200 C.3    34  GLN34       0.1601
     43  C         18.7580  -15.9160   -9.5450 C.2    34  GLN34       0.2287
     44  O         19.4180  -16.3110  -10.4950 O.2    34  GLN34      -0.2864
     45  CB        18.4580  -17.1690   -7.3460 C.3    34  GLN34       0.0394
     46  CG        19.1030  -17.6070   -6.0230 C.3    34  GLN34       0.0908
     47  CD        20.4050  -18.4060   -6.2020 C.2    34  GLN34       0.2608
     48  OE1       21.4490  -17.9730   -5.7500 O.2    34  GLN34      -0.2717
     49  NE2       20.3420  -19.5430   -6.8810 N.am   34  GLN34      -0.0878
     50  N         18.7750  -13.3150  -11.6020 N.3    36  ILE36      -0.1245
     51  CA        19.6850  -12.6440  -12.5500 C.3    36  ILE36       0.1561
     52  C         20.8530  -13.5220  -12.9530 C.2    36  ILE36       0.2260
     53  O         21.2940  -13.5210  -14.0960 O.2    36  ILE36      -0.2867
     54  CB        20.2480  -11.3770  -11.9380 C.3    36  ILE36       0.0252
     55  CG1       19.1310  -10.3510  -11.7520 C.3    36  ILE36       0.0019
     56  CG2       21.4220  -10.8250  -12.7840 C.3    36  ILE36       0.0019
     57  CD1       19.5190   -9.1810  -10.8500 C.3    36  ILE36       0.0001
     58  N         29.1020   -6.3280  -12.6080 N.3    48  HIS48      -0.1241
     59  CA        28.2420   -5.5120  -11.7590 C.3    48  HIS48       0.1621
     60  C         27.0240   -4.9840  -12.5100 C.2    48  HIS48       0.2264
     61  O         26.0450   -4.5640  -11.8770 O.2    48  HIS48      -0.2867
     62  CB        29.0340   -4.3810  -11.0940 C.3    48  HIS48       0.0745
     63  CG        30.0720   -4.8790  -10.1270 C.ar   48  HIS48       0.0817
     64  ND1       29.7900   -5.1610   -8.8040 N.ar   48  HIS48      -0.2268
     65  CD2       31.3790   -5.1890  -10.3050 C.ar   48  HIS48       0.1154
     66  CE1       30.8840   -5.6030   -8.2040 C.ar   48  HIS48       0.1986
     67  NE2       31.8610   -5.6290   -9.0930 N.ar   48  HIS48      -0.2212
     68  N         21.0880   -1.6580  -15.1590 N.3    66  PHE66      -0.1241
     69  CA        21.4040   -1.0880  -13.8500 C.3    66  PHE66       0.1605
     70  C         22.6100   -1.7870  -13.2460 C.2    66  PHE66       0.2264
     71  O         22.9180   -2.9300  -13.6240 O.2    66  PHE66      -0.2867
     72  CB        20.1920   -1.1270  -12.9000 C.3    66  PHE66       0.0534
     73  CG        19.8220   -2.4820  -12.4530 C.ar   66  PHE66      -0.0203
     74  CD1       20.4200   -3.0260  -11.3330 C.ar   66  PHE66      -0.0042
     75  CD2       18.8620   -3.2180  -13.1400 C.ar   66  PHE66      -0.0042
     76  CE1       20.1060   -4.2990  -10.9070 C.ar   66  PHE66      -0.0003
     77  CE2       18.5360   -4.5280  -12.7280 C.ar   66  PHE66      -0.0003
     78  CZ        19.1630   -5.0570  -11.5980 C.ar   66  PHE66      -0.0000
     79  N         24.3190   -3.4130   -9.8170 N.3    68  VAL68      -0.1231
     80  CA        24.1270   -3.9740   -8.4880 C.3    68  VAL68       0.1692
     81  C         24.6170   -3.0120   -7.3840 C.2    68  VAL68       0.2591
     82  O         24.1810   -3.1130   -6.2320 O.2    68  VAL68      -0.2718
     83  CB        24.8190   -5.3970   -8.3220 C.3    68  VAL68       0.0266
     84  CG1       24.4910   -6.3230   -9.5160 C.3    68  VAL68       0.0020
     85  CG2       26.3270   -5.2890   -8.1540 C.3    68  VAL68       0.0020
     86  N         25.5300   -2.1020   -7.7170 N.am   69  LYS69      -0.1980
     87  CA        25.9350   -1.0810   -6.7510 C.3    69  LYS69       0.1596
     88  C         24.8270   -0.0190   -6.5050 C.2    69  LYS69       0.2287
     89  O         24.9090    0.7890   -5.5700 O.2    69  LYS69      -0.2864
     90  CB        27.2490   -0.3970   -7.1870 C.3    69  LYS69       0.0298
     91  CG        28.4850   -1.3380   -7.4110 C.3    69  LYS69       0.0038
     92  CD        28.8480   -2.1890   -6.1660 C.3    69  LYS69       0.0206
     93  CE        30.4080   -2.3070   -5.9820 C.3    69  LYS69       0.1093
     94  NZ        30.9610   -3.6990   -5.6660 N.3    69  LYS69      -0.1314
     95  N         21.9570    0.4930   -4.9400 N.3    71  HIS71      -0.1241
     96  CA        21.0050    0.0100   -3.9430 C.3    71  HIS71       0.1621
     97  C         19.7190    0.7840   -4.0630 C.2    71  HIS71       0.2264
     98  O         18.6470    0.1770   -4.1080 O.2    71  HIS71      -0.2867
     99  CB        21.5340    0.1010   -2.4870 C.3    71  HIS71       0.0745
    100  CG        22.7630   -0.7160   -2.2150 C.ar   71  HIS71       0.0817
    101  ND1       23.3380   -1.5560   -3.1520 N.ar   71  HIS71      -0.2268
    102  CD2       23.5200   -0.8290   -1.1060 C.ar   71  HIS71       0.1154
    103  CE1       24.4010   -2.1400   -2.6290 C.ar   71  HIS71       0.1986
    104  NE2       24.5550   -1.6980   -1.3980 N.ar   71  HIS71      -0.2212
    105  N         17.4550   -0.1260   -6.8670 N.3    74  ILE74      -0.1231
    106  CA        16.9570   -1.4610   -6.7180 C.3    74  ILE74       0.1692
    107  C         15.8340   -1.4650   -5.7120 C.2    74  ILE74       0.2592
    108  O         14.6930   -1.8120   -6.0710 O.2    74  ILE74      -0.2718
    109  CB        18.0510   -2.4540   -6.3020 C.3    74  ILE74       0.0266
    110  CG1       19.1820   -2.4600   -7.3430 C.3    74  ILE74       0.0019
    111  CG2       17.4580   -3.8770   -6.1080 C.3    74  ILE74       0.0020
    112  CD1       20.2740   -3.5100   -7.1050 C.3    74  ILE74       0.0001
    113  N         16.1450   -1.0650   -4.4720 N.am   75  TYR75      -0.1976
    114  CA        15.1300   -0.8620   -3.4110 C.3    75  TYR75       0.1639
    115  C         13.8840   -0.1200   -3.8650 C.2    75  TYR75       0.2290
    116  O         12.7710   -0.5500   -3.5730 O.2    75  TYR75      -0.2864
    117  CB        15.7160   -0.1850   -2.1810 C.3    75  TYR75       0.0560
    118  CG        16.5740   -1.1050   -1.3800 C.ar   75  TYR75      -0.0198
    119  CD1       16.0300   -2.2200   -0.7550 C.ar   75  TYR75      -0.0009
    120  CD2       17.9350   -0.8900   -1.2670 C.ar   75  TYR75      -0.0009
    121  CE1       16.8130   -3.1180   -0.0460 C.ar   75  TYR75       0.0417
    122  CE2       18.7320   -1.7570   -0.5160 C.ar   75  TYR75       0.0417
    123  CZ        18.1510   -2.8750    0.0670 C.ar   75  TYR75       0.1957
    124  OH        18.9040   -3.7350    0.7910 O.3    75  TYR75      -0.2866
@<TRIPOS>BOND
     1    68    69    1
     2    53    52    2
     3    69    70    1
     4    69    72    1
     5    71    70    2
     6    75    77   ar
     7    75    73   ar
     8    52    51    1
     9    72    73    1
    10    56    54    1
    11    77    78   ar
    12    58    59    1
    13    51    54    1
    14    51    50    1
    15    60    61    2
    16    60    59    1
    17    73    74   ar
    18    54    55    1
    19    59    62    1
    20    55    57    1
    21    78    76   ar
    22    74    76   ar
    23    62    63    1
    24    44    43    2
    25    65    63   ar
    26    65    67   ar
    27    63    64   ar
    28    79    80    1
    29    43    42    1
    30    84    83    1
    31    67    66   ar
    32    32    31    2
    33    40    39    2
    34    64    66   ar
    35    35    34    1
    36    80    83    1
    37    80    81    1
    38    83    85    1
    39    42    41    1
    40    42    45    1
    41    39    41   am
    42    39    38    1
    43    31    30    1
    44    31    37   am
    45    86    81   am
    46    86    87    1
    47    34    36    1
    48    34    33    1
    49    91    90    1
    50    91    92    1
    51    38    37    1
    52    81    82    2
    53    45    46    1
    54   110   112    1
    55   110   109    1
    56    30    33    1
    57    30    29    1
    58    90    87    1
    59    49    47   am
    60   105   106    1
    61    87    88    1
    62   106   109    1
    63   106   107    1
    64    88    89    2
    65   109   111    1
    66    47    46    1
    67    47    48    2
    68    92    93    1
    69   108   107    2
    70    93    94    1
    71   107   113   am
    72    95    96    1
    73    21    20    2
    74   113   114    1
    75    13    12    2
    76    98    97    2
    77    97    96    1
    78    96    99    1
    79    20    19    1
    80   115   116    2
    81   115   114    1
    82   114   117    1
    83   101   103   ar
    84   101   100   ar
    85    12    11    1
    86    12    18   am
    87    17    15    1
    88    27    28   ar
    89    27    25   ar
    90    11    10    1
    91    11    14    1
    92   103   104   ar
    93    28    26   ar
    94    19    18    1
    95    19    22    1
    96    99   100    1
    97    25    23   ar
    98    26    24   ar
    99   100   102   ar
   100   117   118    1
   101    23    24   ar
   102    23    22    1
   103    14    15    1
   104    15    16    1
   105   104   102   ar
   106   118   120   ar
   107   118   119   ar
   108   120   122   ar
   109   119   121   ar
   110   122   123   ar
   111   121   123   ar
   112   123   124    1
   113     4     3    2
   114     3     2    1
   115     2     1    1
   116     2     5    1
   117     5     6    1
   118     6     7    1
   119     8     7    1
   120     8     9    1
