@<TRIPOS>MOLECULE
tmp/3lnlA00.pdb
 120 116 0 0 0
SMALL
GASTEIGER

@<TRIPOS>ATOM
      1  N        -48.8790  120.1720  -14.4190 N.3    22  GLU22      -0.1245
      2  CA       -50.0920  119.6600  -13.7780 C.3    22  GLU22       0.1567
      3  C        -50.8990  120.7860  -13.1670 C.2    22  GLU22       0.2260
      4  O        -50.3390  121.8140  -12.7760 O.2    22  GLU22      -0.2867
      5  CB       -49.7240  118.6530  -12.6910 C.3    22  GLU22       0.0388
      6  CG       -48.9840  117.4280  -13.2230 C.3    22  GLU22       0.1160
      7  CD       -49.8890  116.5540  -14.0130 C.2    22  GLU22       0.3649
      8  OE1      -49.3640  115.7500  -14.8000 O.co2  22  GLU22      -0.2457
      9  OE2      -51.1280  116.6550  -13.8410 O.co2  22  GLU22      -0.2457
     10  N        -52.3620  120.9980  -10.3110 N.3    24  TRP24      -0.1241
     11  CA       -52.0140  121.2660   -8.8920 C.3    24  TRP24       0.1605
     12  C        -50.6780  122.0100   -8.7180 C.2    24  TRP24       0.2264
     13  O        -50.3750  122.4370   -7.6320 O.2    24  TRP24      -0.2867
     14  CB       -51.9590  119.9310   -8.0880 C.3    24  TRP24       0.0550
     15  CG       -51.1540  118.8510   -8.7590 C.ar   24  TRP24       0.0003
     16  CD1      -51.6460  117.7880   -9.4930 C.ar   24  TRP24       0.0946
     17  CD2      -49.7300  118.7120   -8.7500 C.ar   24  TRP24       0.0152
     18  NE1      -50.5970  117.0280   -9.9600 N.ar   24  TRP24      -0.2442
     19  CE2      -49.4170  117.5700   -9.5140 C.ar   24  TRP24       0.0810
     20  CE3      -48.6850  119.4380   -8.1500 C.ar   24  TRP24       0.0012
     21  CZ2      -48.1150  117.1640   -9.7210 C.ar   24  TRP24       0.0191
     22  CZ3      -47.4090  119.0470   -8.3640 C.ar   24  TRP24       0.0001
     23  CH2      -47.1210  117.9080   -9.1280 C.ar   24  TRP24       0.0015
     24  N        -45.0200  126.4020   -2.8960 N.3    71  PHE71      -0.1241
     25  CA       -45.7960  125.3780   -3.5320 C.3    71  PHE71       0.1605
     26  C        -47.2200  125.5110   -3.0360 C.2    71  PHE71       0.2264
     27  O        -48.1050  125.9940   -3.7660 O.2    71  PHE71      -0.2867
     28  CB       -45.1880  123.9900   -3.3040 C.3    71  PHE71       0.0534
     29  CG       -46.0110  122.8710   -3.8780 C.ar   71  PHE71      -0.0203
     30  CD1      -46.5560  122.9690   -5.1710 C.ar   71  PHE71      -0.0042
     31  CD2      -46.2660  121.7090   -3.1280 C.ar   71  PHE71      -0.0042
     32  CE1      -47.3340  121.9480   -5.7050 C.ar   71  PHE71      -0.0003
     33  CE2      -47.0670  120.6680   -3.6630 C.ar   71  PHE71      -0.0003
     34  CZ       -47.5950  120.7940   -4.9610 C.ar   71  PHE71      -0.0000
     35  N        -41.3050  123.4280  -13.2560 N.3   100  HIS100     -0.1226
     36  CA       -41.5410  122.2510  -12.5560 C.3   100  HIS100      0.1752
     37  C        -42.1420  121.1560  -13.4580 C.2   100  HIS100      0.2596
     38  O        -41.4240  120.6410  -14.3010 O.2   100  HIS100     -0.2718
     39  CB       -42.3160  122.4640  -11.2480 C.3   100  HIS100      0.0759
     40  CG       -42.2350  121.2800  -10.3400 C.ar  100  HIS100      0.0818
     41  ND1      -43.2390  120.9180   -9.4660 N.ar  100  HIS100     -0.2268
     42  CD2      -41.2430  120.3750  -10.1700 C.ar  100  HIS100      0.1154
     43  CE1      -42.8930  119.8020   -8.8390 C.ar  100  HIS100      0.1986
     44  NE2      -41.6820  119.4570   -9.2450 N.ar  100  HIS100     -0.2212
     45  N        -43.3990  120.7520  -13.2560 N.am  101  THR101     -0.1953
     46  CA       -43.8790  119.5890  -13.9970 C.3   101  THR101      0.1897
     47  C        -43.8710  119.8020  -15.5120 C.2   101  THR101      0.2313
     48  O        -43.7790  118.8320  -16.2220 O.2   101  THR101     -0.2863
     49  CB       -45.2090  119.0250  -13.4970 C.3   101  THR101      0.1794
     50  OG1      -46.1990  120.0460  -13.5040 O.3   101  THR101     -0.2208
     51  CG2      -45.0340  118.3970  -12.1020 C.3   101  THR101      0.0378
     52  N        -40.7680  118.2540  -16.3330 N.3   104  ASP104     -0.1239
     53  CA       -40.8430  116.8010  -16.1630 C.3   104  ASP104      0.1674
     54  C        -41.4840  116.1510  -17.3950 C.2   104  ASP104      0.2266
     55  O        -41.1620  115.0350  -17.6840 O.2   104  ASP104     -0.2867
     56  CB       -41.6690  116.4160  -14.9110 C.3   104  ASP104      0.1410
     57  CG       -40.8990  116.6020  -13.6420 C.2   104  ASP104      0.3668
     58  OD1      -39.7490  116.1230  -13.5650 O.co2 104  ASP104     -0.2456
     59  OD2      -41.4290  117.2100  -12.7010 O.co2 104  ASP104     -0.2456
     60  N        -45.1760  112.3460  -19.0810 N.3   179  LEU179     -0.1245
     61  CA       -44.3770  112.0810  -17.9020 C.3   179  LEU179      0.1561
     62  C        -43.6090  110.7940  -18.0560 C.2   179  LEU179      0.2260
     63  O        -44.1780  109.7220  -17.9440 O.2   179  LEU179     -0.2867
     64  CB       -45.2450  111.9800  -16.6460 C.3   179  LEU179      0.0270
     65  CG       -44.4640  111.9100  -15.3210 C.3   179  LEU179      0.0019
     66  CD1      -43.6090  113.1960  -15.0760 C.3   179  LEU179      0.0001
     67  CD2      -45.4210  111.6670  -14.1220 C.3   179  LEU179      0.0001
     68  N        -38.9980  107.8650  -14.6670 N.3   223  ILE223     -0.1231
     69  CA       -39.6820  109.0720  -14.1730 C.3   223  ILE223      0.1692
     70  C        -38.8660  109.6040  -13.0340 C.2   223  ILE223      0.2593
     71  O        -38.8270  109.0430  -11.9240 O.2   223  ILE223     -0.2718
     72  CB       -41.1080  108.8610  -13.7120 C.3   223  ILE223      0.0266
     73  CG1      -41.9480  108.3740  -14.8930 C.3   223  ILE223      0.0019
     74  CG2      -41.7050  110.1750  -13.0940 C.3   223  ILE223      0.0020
     75  CD1      -43.4340  108.1870  -14.6030 C.3   223  ILE223      0.0001
     76  N        -38.1620  110.6870  -13.3060 N.am  224  GLY224     -0.1942
     77  CA       -37.3650  111.2790  -12.2580 C.3   224  GLY224      0.2014
     78  C        -38.2020  111.8650  -11.1470 C.2   224  GLY224      0.2639
     79  O        -39.2830  112.3860  -11.4000 O.2   224  GLY224     -0.2714
     80  N        -37.6620  111.8280   -9.9210 N.am  225  GLY225     -0.1939
     81  CA       -38.3210  112.4030   -8.7580 C.3   225  GLY225      0.2014
     82  C        -39.0230  111.3250   -7.9500 C.2   225  GLY225      0.2639
     83  O        -38.3660  110.5300   -7.2920 O.2   225  GLY225     -0.2714
     84  N        -40.3480  111.2940   -8.0130 N.am  226  SER226     -0.1949
     85  CA       -41.1510  110.3210   -7.2810 C.3   226  SER226      0.1924
     86  C        -42.2480  109.8340   -8.1850 C.2   226  SER226      0.2314
     87  O        -43.3140  110.4370   -8.2590 O.2   226  SER226     -0.2863
     88  CB       -41.7510  110.9590   -6.0110 C.3   226  SER226      0.2116
     89  OG       -42.4600  109.9730   -5.2520 O.3   226  SER226     -0.2180
     90  N        -46.6190  104.6530  -11.4540 N.3   230  TYR230     -0.1241
     91  CA       -46.5190  104.4560  -12.8760 C.3   230  TYR230      0.1605
     92  C        -45.7910  103.1710  -13.2600 C.2   230  TYR230      0.2264
     93  O        -45.6940  102.8650  -14.4640 O.2   230  TYR230     -0.2867
     94  CB       -45.7770  105.6300  -13.5020 C.3   230  TYR230      0.0534
     95  CG       -46.6070  106.8850  -13.5670 C.ar  230  TYR230     -0.0201
     96  CD1      -46.5780  107.8320  -12.5420 C.ar  230  TYR230     -0.0009
     97  CD2      -47.4070  107.1370  -14.6490 C.ar  230  TYR230     -0.0009
     98  CE1      -47.3390  109.0050  -12.6110 C.ar  230  TYR230      0.0417
     99  CE2      -48.1850  108.3110  -14.7240 C.ar  230  TYR230      0.0417
    100  CZ       -48.1450  109.2220  -13.7040 C.ar  230  TYR230      0.1957
    101  OH       -48.9240  110.3700  -13.7740 O.3   230  TYR230     -0.2866
    102  N        -34.7600  110.6220   -5.4890 N.3   267  HIS267     -0.1241
    103  CA       -35.4000  111.8310   -6.0000 C.3   267  HIS267      0.1621
    104  C        -34.3320  112.8440   -6.3680 C.2   267  HIS267      0.2264
    105  O        -34.4370  113.5060   -7.3820 O.2   267  HIS267     -0.2867
    106  CB       -36.2920  112.3620   -4.8970 C.3   267  HIS267      0.0745
    107  CG       -37.2820  113.4240   -5.3230 C.ar  267  HIS267      0.0817
    108  ND1      -38.5970  113.4080   -4.9100 N.ar  267  HIS267     -0.2268
    109  CD2      -37.1590  114.4910   -6.1320 C.ar  267  HIS267      0.1154
    110  CE1      -39.2250  114.4620   -5.4090 C.ar  267  HIS267      0.1986
    111  NE2      -38.4010  115.0880   -6.2190 N.ar  267  HIS267     -0.2212
    112  N        -32.8900  114.1560   -9.8910 N.3   270  GLU270     -0.1245
    113  CA       -33.3380  115.2520  -10.7370 C.3   270  GLU270      0.1567
    114  C        -32.3390  116.3970  -10.8730 C.2   270  GLU270      0.2260
    115  O        -32.5340  117.2720  -11.7130 O.2   270  GLU270     -0.2867
    116  CB       -34.6800  115.7820  -10.3330 C.3   270  GLU270      0.0388
    117  CG       -35.8000  114.7380  -10.3180 C.3   270  GLU270      0.1160
    118  CD       -37.1320  115.4260  -10.1260 C.2   270  GLU270      0.3649
    119  OE1      -37.5570  115.6880   -8.9720 O.co2 270  GLU270     -0.2457
    120  OE2      -37.7360  115.7550  -11.1380 O.co2 270  GLU270     -0.2457
@<TRIPOS>BOND
     1    60    61    1
     2    62    63    2
     3    62    61    1
     4    61    64    1
     5    55    54    2
     6    54    53    1
     7    64    65    1
     8    52    53    1
     9    48    47    2
    10    53    56    1
    11    47    46    1
    12    65    66    1
    13    65    67    1
    14    56    57    1
    15    73    75    1
    16    73    72    1
    17     8     7   ar
    18    99    97   ar
    19    99   100   ar
    20    68    69    1
    21    97    95   ar
    22    93    92    2
    23     1     2    1
    24    38    37    2
    25    69    72    1
    26    69    70    1
    27     7     9   ar
    28     7     6    1
    29    46    49    1
    30    46    45    1
    31     2     3    1
    32     2     5    1
    33   101   100    1
    34    72    74    1
    35   100    98   ar
    36    57    58   ar
    37    57    59   ar
    38    95    94    1
    39    95    96   ar
    40    50    49    1
    41    94    91    1
    42    49    51    1
    43    37    45   am
    44    37    36    1
    45    76    70   am
    46    76    77    1
    47    92    91    1
    48    35    36    1
    49     6     5    1
    50     3     4    2
    51    70    71    2
    52    91    90    1
    53    98    96   ar
    54    36    39    1
    55    77    78    1
    56   115   114    2
    57    79    78    2
    58    39    40    1
    59    78    80   am
    60   120   118   ar
    61   114   113    1
    62   113   116    1
    63   113   112    1
    64    40    42   ar
    65    40    41   ar
    66   116   117    1
    67   117   118    1
    68    10    11    1
    69    42    44   ar
    70   118   119   ar
    71    18    19   ar
    72    18    16   ar
    73    80    81    1
    74    21    19   ar
    75    21    23   ar
    76    19    17   ar
    77    16    15   ar
    78    41    43   ar
    79    44    43   ar
    80    23    22   ar
    81    11    12    1
    82    11    14    1
    83    15    17   ar
    84    15    14    1
    85    81    82    1
    86    17    20   ar
    87    12    13    2
    88    22    20   ar
    89    87    86    2
    90    86    85    1
    91    84    82   am
    92    84    85    1
    93    82    83    2
    94   105   104    2
    95    85    88    1
    96   104   103    1
    97   111   109   ar
    98   111   110   ar
    99   109   107   ar
   100    88    89    1
   101   103   102    1
   102   103   106    1
   103    32    30   ar
   104    32    34   ar
   105   110   108   ar
   106   107   108   ar
   107   107   106    1
   108    30    29   ar
   109    34    33   ar
   110    29    28    1
   111    29    31   ar
   112    27    26    2
   113    33    31   ar
   114    25    28    1
   115    25    26    1
   116    25    24    1
