@<TRIPOS>MOLECULE
tmp/3lnlB00.pdb
 143 139 0 0 0
SMALL
GASTEIGER

@<TRIPOS>ATOM
      1  N        -54.2310  100.7020   15.4800 N.3    24  GLU24      -0.1245
      2  CA       -54.9730  101.8420   14.9180 C.3    24  GLU24       0.1567
      3  C        -56.2330  101.3140   14.2750 C.2    24  GLU24       0.2260
      4  O        -56.2840  100.1690   13.8730 O.2    24  GLU24      -0.2867
      5  CB       -54.1420  102.5910   13.8620 C.3    24  GLU24       0.0388
      6  CG       -52.7870  103.0530   14.3470 C.3    24  GLU24       0.1160
      7  CD       -52.8760  104.2450   15.2380 C.2    24  GLU24       0.3649
      8  OE1      -51.9230  104.4650   16.0240 O.co2  24  GLU24      -0.2457
      9  OE2      -53.8660  104.9970   15.1090 O.co2  24  GLU24      -0.2457
     10  N        -57.6540  101.9710   11.4170 N.3    26  TRP26      -0.1241
     11  CA       -57.4910  101.5930   10.0070 C.3    26  TRP26       0.1605
     12  C        -56.7420  100.2560    9.7910 C.2    26  TRP26       0.2264
     13  O        -56.6830   99.7890    8.6750 O.2    26  TRP26      -0.2867
     14  CB       -56.7660  102.6970    9.1950 C.3    26  TRP26       0.0550
     15  CG       -55.4890  103.1540    9.8230 C.ar   26  TRP26       0.0003
     16  CD1      -55.3130  104.2760   10.5900 C.ar   26  TRP26       0.0946
     17  CD2      -54.2050  102.4910    9.7700 C.ar   26  TRP26       0.0152
     18  NE1      -53.9940  104.3350   11.0400 N.ar   26  TRP26      -0.2442
     19  CE2      -53.2980  103.2670   10.5430 C.ar   26  TRP26       0.0810
     20  CE3      -53.7440  101.3400    9.1610 C.ar   26  TRP26       0.0012
     21  CZ2      -51.9820  102.9060   10.7250 C.ar   26  TRP26       0.0191
     22  CZ3      -52.4060  100.9810    9.3410 C.ar   26  TRP26       0.0001
     23  CH2      -51.5450  101.7760   10.1120 C.ar   26  TRP26       0.0015
     24  N        -46.3320   92.8890    9.4920 N.3    69  HIS69      -0.1241
     25  CA       -47.1230   93.5130    8.4600 C.3    69  HIS69       0.1621
     26  C        -48.2780   92.5780    8.0760 C.2    69  HIS69       0.2264
     27  O        -48.0650   91.3740    7.8970 O.2    69  HIS69      -0.2867
     28  CB       -46.2930   93.8440    7.2510 C.3    69  HIS69       0.0745
     29  CG       -45.2980   94.9450    7.4840 C.ar   69  HIS69       0.0817
     30  ND1      -44.1060   95.0200    6.7930 N.ar   69  HIS69      -0.2268
     31  CD2      -45.3090   95.9920    8.3320 C.ar   69  HIS69       0.1154
     32  CE1      -43.4360   96.0840    7.2010 C.ar   69  HIS69       0.1986
     33  NE2      -44.1770   96.7400    8.0740 N.ar   69  HIS69      -0.2212
     34  N        -54.3160   93.6790    3.7990 N.3    73  PHE73      -0.1227
     35  CA       -54.4640   94.9880    4.4140 C.3    73  PHE73       0.1736
     36  C        -55.7370   95.6130    3.9300 C.2    73  PHE73       0.2595
     37  O        -56.7210   95.6220    4.6540 O.2    73  PHE73      -0.2718
     38  CB       -53.2350   95.8580    4.1960 C.3    73  PHE73       0.0547
     39  CG       -53.3310   97.1820    4.8450 C.ar   73  PHE73      -0.0202
     40  CD1      -53.5740   97.2900    6.2170 C.ar   73  PHE73      -0.0042
     41  CD2      -53.1830   98.3460    4.0960 C.ar   73  PHE73      -0.0042
     42  CE1      -53.6820   98.5160    6.8300 C.ar   73  PHE73      -0.0003
     43  CE2      -53.3020   99.6270    4.7130 C.ar   73  PHE73      -0.0003
     44  CZ       -53.5580   99.7060    6.0690 C.ar   73  PHE73      -0.0000
     45  N        -55.7790   96.0790    2.7010 N.am   74  LYS74      -0.1980
     46  CA       -57.0680   96.4590    2.1720 C.3    74  LYS74       0.1596
     47  C        -57.6780   95.1560    1.6240 C.2    74  LYS74       0.2287
     48  O        -56.9860   94.2510    1.1520 O.2    74  LYS74      -0.2864
     49  CB       -56.9290   97.6000    1.1600 C.3    74  LYS74       0.0298
     50  CG       -56.2550   98.8160    1.8120 C.3    74  LYS74       0.0038
     51  CD       -56.8760  100.1690    1.4440 C.3    74  LYS74       0.0206
     52  CE       -56.5070  101.2860    2.4580 C.3    74  LYS74       0.1093
     53  NZ       -55.0440  101.6930    2.4360 N.3    74  LYS74      -0.1314
     54  N        -49.6280   93.9910   14.1280 N.3   102  HIS102     -0.1226
     55  CA       -49.1250   95.1300   13.4050 C.3   102  HIS102      0.1752
     56  C        -48.9960   96.3540   14.3000 C.2   102  HIS102      0.2596
     57  O        -48.1290   96.3490   15.1770 O.2   102  HIS102     -0.2718
     58  CB       -49.9180   95.4070   12.1410 C.3   102  HIS102      0.0759
     59  CG       -49.2460   96.3780   11.2360 C.ar  102  HIS102      0.0818
     60  ND1      -49.9430   97.2880   10.4620 N.ar  102  HIS102     -0.2268
     61  CD2      -47.9280   96.6200   11.0240 C.ar  102  HIS102      0.1154
     62  CE1      -49.0720   98.0320    9.7860 C.ar  102  HIS102      0.1986
     63  NE2      -47.8450   97.6590   10.1190 N.ar  102  HIS102     -0.2212
     64  N        -49.8670   97.3630   14.1680 N.am  103  THR103     -0.1953
     65  CA       -49.6390   98.5770   14.9360 C.3   103  THR103      0.1897
     66  C        -49.7990   98.3400   16.4570 C.2   103  THR103      0.2313
     67  O        -49.1940   99.0630   17.2060 O.2   103  THR103     -0.2863
     68  CB       -50.4470   99.7920   14.4550 C.3   103  THR103      0.1794
     69  OG1      -51.8460   99.5140   14.5230 O.3   103  THR103     -0.2208
     70  CG2      -50.0340  100.2080   13.0060 C.3   103  THR103      0.0378
     71  N        -46.3170   97.9930   17.2600 N.3   106  ASP106     -0.1239
     72  CA       -45.6210   99.2940   17.1230 C.3   106  ASP106      0.1674
     73  C        -45.7670  100.1610   18.3640 C.2   106  ASP106      0.2266
     74  O        -44.8740  100.9600   18.6580 O.2   106  ASP106     -0.2867
     75  CB       -46.0900  100.0900   15.8840 C.3   106  ASP106      0.1410
     76  CG       -45.5570   99.4950   14.5820 C.2   106  ASP106      0.3668
     77  OD1      -44.3170   99.2420   14.5640 O.co2 106  ASP106     -0.2456
     78  OD2      -46.3560   99.2930   13.6070 O.co2 106  ASP106     -0.2456
     79  N        -47.0240  105.2630   20.1130 N.3   221  LEU221     -0.1245
     80  CA       -46.1770  105.1240   18.9300 C.3   221  LEU221      0.1561
     81  C        -44.8280  105.8570   19.0490 C.2   221  LEU221      0.2260
     82  O        -44.7510  107.1000   18.9650 O.2   221  LEU221     -0.2867
     83  CB       -46.9210  105.5770   17.6660 C.3   221  LEU221      0.0270
     84  CG       -46.1040  105.3610   16.3970 C.3   221  LEU221      0.0019
     85  CD1      -45.9880  103.8400   16.0960 C.3   221  LEU221      0.0001
     86  CD2      -46.6990  106.1130   15.2230 C.3   221  LEU221      0.0001
     87  N        -39.3010  105.9060   15.6170 N.3   265  ILE265     -0.1231
     88  CA       -40.5110  105.2710   15.1080 C.3   265  ILE265      0.1692
     89  C        -40.1130  104.3910   13.9230 C.2   265  ILE265      0.2593
     90  O        -39.8300  104.8490   12.8170 O.2   265  ILE265     -0.2718
     91  CB       -41.6480  106.2340   14.7350 C.3   265  ILE265      0.0266
     92  CG1      -42.0680  107.0440   15.9450 C.3   265  ILE265      0.0019
     93  CG2      -42.8710  105.4160   14.1800 C.3   265  ILE265      0.0020
     94  CD1      -43.0950  108.0920   15.6820 C.3   265  ILE265      0.0001
     95  N        -40.0430  103.0950   14.1690 N.am  266  GLY266     -0.1942
     96  CA       -39.6430  102.2000   13.0930 C.3   266  GLY266      0.2014
     97  C        -40.7140  102.1210   12.0570 C.2   266  GLY266      0.2639
     98  O        -41.8640  102.2590   12.3750 O.2   266  GLY266     -0.2714
     99  N        -40.3170  101.8830   10.8110 N.am  267  GLY267     -0.1939
    100  CA       -41.2570  101.7850    9.7070 C.3   267  GLY267      0.2014
    101  C        -41.2530  103.0650    8.8850 C.2   267  GLY267      0.2640
    102  O        -40.2620  103.3680    8.1880 O.2   267  GLY267     -0.2714
    103  N        -42.3600  103.7530    8.9160 N.am  268  SER268     -0.1935
    104  CA       -42.5360  105.0030    8.1700 C.3   268  SER268      0.2055
    105  C        -43.1670  106.0050    9.1330 C.2   268  SER268      0.2643
    106  O        -44.4000  106.0990    9.2020 O.2   268  SER268     -0.2714
    107  CB       -43.4620  104.8210    6.9730 C.3   268  SER268      0.2130
    108  OG       -43.5460  106.0700    6.2380 O.3   268  SER268     -0.2179
    109  N        -42.3390  106.7280    9.8740 N.am  269  GLY269     -0.1954
    110  CA       -42.8520  107.6480   10.9240 C.3   269  GLY269      0.1869
    111  C        -42.7850  109.1130   10.6370 C.2   269  GLY269      0.2309
    112  O        -43.0390  109.9400   11.5140 O.2   269  GLY269     -0.2863
    113  N        -44.1290  112.6760   12.4390 N.3   272  TYR272     -0.1241
    114  CA       -43.9230  112.8100   13.9150 C.3   272  TYR272      0.1605
    115  C        -42.6470  113.5340   14.2910 C.2   272  TYR272      0.2264
    116  O        -42.4080  113.7690   15.4790 O.2   272  TYR272     -0.2867
    117  CB       -43.9360  111.4190   14.6150 C.3   272  TYR272      0.0534
    118  CG       -45.2900  110.7870   14.6480 C.ar  272  TYR272     -0.0201
    119  CD1      -45.7150  109.9690   13.6230 C.ar  272  TYR272     -0.0009
    120  CD2      -46.1440  110.9950   15.7250 C.ar  272  TYR272     -0.0009
    121  CE1      -47.0050  109.3660   13.6560 C.ar  272  TYR272      0.0417
    122  CE2      -47.4070  110.4040   15.7740 C.ar  272  TYR272      0.0417
    123  CZ       -47.8120  109.5930   14.7370 C.ar  272  TYR272      0.1957
    124  OH       -49.0330  109.0240   14.7770 O.3   272  TYR272     -0.2866
    125  N        -37.2140  101.3170    6.3960 N.3   309  HIS309     -0.1241
    126  CA       -38.4020  100.7090    6.9510 C.3   309  HIS309      0.1621
    127  C        -38.0700   99.2580    7.2900 C.2   309  HIS309      0.2264
    128  O        -38.5400   98.7400    8.3280 O.2   309  HIS309     -0.2867
    129  CB       -39.4710  100.7750    5.8770 C.3   309  HIS309      0.0745
    130  CG       -40.8670  100.4330    6.2990 C.ar  309  HIS309      0.0817
    131  ND1      -41.9600  101.1420    5.8220 N.ar  309  HIS309     -0.2268
    132  CD2      -41.3600   99.4590    7.0950 C.ar  309  HIS309      0.1154
    133  CE1      -43.0720  100.5840    6.2890 C.ar  309  HIS309      0.1986
    134  NE2      -42.7360   99.6240    7.1390 N.ar  309  HIS309     -0.2212
    135  N        -37.4970   97.4150   10.7640 N.3   312  GLU312     -0.1245
    136  CA       -38.4850   96.7000   11.5870 C.3   312  GLU312      0.1567
    137  C        -38.2590   95.1820   11.6840 C.2   312  GLU312      0.2260
    138  O        -38.8690   94.5220   12.5270 O.2   312  GLU312     -0.2867
    139  CB       -39.8910   96.9830   11.0890 C.3   312  GLU312      0.0388
    140  CG       -40.3330   98.3970   11.2800 C.3   312  GLU312      0.1160
    141  CD       -41.7900   98.5310   11.0840 C.2   312  GLU312      0.3649
    142  OE1      -42.5000   98.6240   12.1090 O.co2 312  GLU312     -0.2457
    143  OE2      -42.2370   98.4520    9.9240 O.co2 312  GLU312     -0.2457
@<TRIPOS>BOND
     1    48    47    2
     2    49    50    1
     3    49    46    1
     4    51    50    1
     5    51    52    1
     6    47    46    1
     7    46    45    1
     8    53    52    1
     9    45    36   am
    10    34    35    1
    11    36    35    1
    12    36    37    2
    13    41    43   ar
    14    41    39   ar
    15    38    35    1
    16    38    39    1
    17    43    44   ar
    18    39    40   ar
    19   131   133   ar
    20   131   130   ar
    21   129   130    1
    22   129   126    1
    23    44    42   ar
    24    40    42   ar
    25   108   107    1
    26   133   134   ar
    27   130   132   ar
    28   125   126    1
    29    30    32   ar
    30    30    29   ar
    31   126   127    1
    32   107   104    1
    33   132   134   ar
    34    32    33   ar
    35    28    29    1
    36    28    25    1
    37   127   128    2
    38    29    31   ar
    39    27    26    2
    40    33    31   ar
    41    26    25    1
    42   104   103    1
    43   104   105    1
    44   102   101    2
    45    25    24    1
    46    13    12    2
    47   101   103   am
    48   101   100    1
    49   105   106    2
    50   105   109   am
    51    20    22   ar
    52    20    17   ar
    53    14    15    1
    54    14    11    1
    55    22    23   ar
    56   100    99    1
    57    17    15   ar
    58    17    19   ar
    59    62    63   ar
    60    62    60   ar
    61    12    11    1
    62    15    16   ar
    63   109   110    1
    64   143   141   ar
    65    11    10    1
    66    23    21   ar
    67    63    61   ar
    68    60    59   ar
    69    19    21   ar
    70    19    18   ar
    71    16    18   ar
    72   111   110    1
    73   111   112    2
    74   135   136    1
    75    99    97   am
    76    61    59   ar
    77   141   140    1
    78   141   142   ar
    79   139   140    1
    80   139   136    1
    81    59    58    1
    82   136   137    1
    83   137   138    2
    84    97    98    2
    85    97    96    1
    86    58    55    1
    87   113   114    1
    88    90    89    2
    89    70    68    1
    90    96    95    1
    91    55    54    1
    92    55    56    1
    93    78    76   ar
    94   119   121   ar
    95   119   118   ar
    96   121   123   ar
    97     5     6    1
    98     5     2    1
    99     4     3    2
   100   114   115    1
   101   114   117    1
   102    89    95   am
   103    89    88    1
   104    64    56   am
   105    64    65    1
   106    93    91    1
   107     3     2    1
   108   115   116    2
   109    56    57    2
   110     6     7    1
   111    68    69    1
   112    68    65    1
   113    77    76   ar
   114    76    75    1
   115   117   118    1
   116   118   120   ar
   117    91    88    1
   118    91    92    1
   119   123   124    1
   120   123   122   ar
   121     2     1    1
   122    65    66    1
   123    88    87    1
   124     9     7   ar
   125    86    84    1
   126     7     8   ar
   127    94    92    1
   128   120   122   ar
   129    75    72    1
   130    85    84    1
   131    84    83    1
   132    66    67    2
   133    72    71    1
   134    72    73    1
   135    83    80    1
   136    73    74    2
   137    80    81    1
   138    80    79    1
   139    82    81    2
