@<TRIPOS>MOLECULE
tmp/3lnmB04.pdb
 101 93 0 0 0
SMALL
GASTEIGER

@<TRIPOS>ATOM
      1  N        -19.3630   54.5410  138.7790 N.3   106  LYS106     -0.1245
      2  CA       -20.7250   54.5100  139.3110 C.3   106  LYS106      0.1561
      3  C        -21.3970   53.1660  139.0310 C.2   106  LYS106      0.2260
      4  O        -21.0490   52.4780  138.0670 O.2   106  LYS106     -0.2867
      5  CB       -21.5440   55.6730  138.6880 C.3   106  LYS106      0.0271
      6  CG       -20.8990   57.0430  138.8500 C.3   106  LYS106      0.0035
      7  CD       -20.9130   57.5100  140.2970 C.3   106  LYS106      0.0206
      8  CE       -20.2040   58.8400  140.4790 C.3   106  LYS106      0.1093
      9  NZ       -18.7280   58.6860  140.6120 N.3   106  LYS106     -0.1314
     10  N        -22.5180   49.1620  155.3760 N.3   226  ILE226     -0.1231
     11  CA       -21.9440   49.6040  156.6370 C.3   226  ILE226      0.1692
     12  C        -23.0010   50.4010  157.3960 C.2   226  ILE226      0.2591
     13  O        -22.9260   50.5490  158.6140 O.2   226  ILE226     -0.2718
     14  CB       -20.7050   50.4880  156.4080 C.3   226  ILE226      0.0266
     15  CG1      -19.9820   50.7230  157.7340 C.3   226  ILE226      0.0019
     16  CG2      -21.1200   51.8140  155.7980 C.3   226  ILE226      0.0020
     17  CD1      -18.6630   51.4500  157.5870 C.3   226  ILE226      0.0001
     18  N        -23.9900   50.9080  156.6630 N.am  227  MET227     -0.1979
     19  CA       -25.0750   51.6780  157.2580 C.3   227  MET227      0.1605
     20  C        -25.9710   50.7810  158.0950 C.2   227  MET227      0.2287
     21  O        -26.2460   51.0750  159.2550 O.2   227  MET227     -0.2864
     22  CB       -25.9200   52.3510  156.1760 C.3   227  MET227      0.0413
     23  CG       -25.1870   53.4080  155.3690 C.3   227  MET227      0.0598
     24  SD       -24.4610   54.6840  156.4110 S.3   227  MET227     -0.1393
     25  CE       -25.8540   55.0940  157.4580 C.3   227  MET227      0.0692
     26  N        -23.7370   63.8110  154.5570 N.3   280  LYS280     -0.1245
     27  CA       -22.9070   63.6800  153.3720 C.3   280  LYS280      0.1561
     28  C        -21.4380   63.7430  153.7920 C.2   280  LYS280      0.2260
     29  O        -20.6580   62.8350  153.4990 O.2   280  LYS280     -0.2867
     30  CB       -23.2420   64.8150  152.3940 C.3   280  LYS280      0.0271
     31  CG       -22.4300   64.8430  151.1030 C.3   280  LYS280      0.0035
     32  CD       -22.7450   63.6800  150.1690 C.3   280  LYS280      0.0206
     33  CE       -21.9540   63.8230  148.8710 C.3   280  LYS280      0.1093
     34  NZ       -22.1340   62.6730  147.9450 N.3   280  LYS280     -0.1314
     35  N        -20.0630   60.8160  155.4780 N.3   283  GLN283     -0.1245
     36  CA       -19.8940   59.7110  154.5400 C.3   283  GLN283      0.1566
     37  C        -18.5990   59.9280  153.7720 C.2   283  GLN283      0.2260
     38  O        -17.8920   58.9800  153.4460 O.2   283  GLN283     -0.2867
     39  CB       -21.0600   59.6660  153.5570 C.3   283  GLN283      0.0367
     40  CG       -22.4100   59.4030  154.1930 C.3   283  GLN283      0.0905
     41  CD       -23.5500   59.5370  153.2040 C.2   283  GLN283      0.2608
     42  OE1      -23.5200   58.9460  152.1260 O.2   283  GLN283     -0.2717
     43  NE2      -24.5660   60.3100  153.5690 N.am  283  GLN283     -0.0878
     44  N        -15.9180   58.6780  155.8420 N.3   286  GLY286     -0.1210
     45  CA       -15.8920   57.2280  155.7730 C.3   286  GLY286      0.1956
     46  C        -15.0650   56.7280  154.6000 C.2   286  GLY286      0.2611
     47  O        -14.0750   56.0180  154.7910 O.2   286  GLY286     -0.2717
     48  N        -15.4650   57.1030  153.3860 N.am  287  GLN287     -0.1979
     49  CA       -14.7520   56.6910  152.1760 C.3   287  GLN287      0.1601
     50  C        -13.2860   57.1100  152.2700 C.2   287  GLN287      0.2287
     51  O        -12.3900   56.3410  151.9150 O.2   287  GLN287     -0.2864
     52  CB       -15.3800   57.3350  150.9350 C.3   287  GLN287      0.0394
     53  CG       -16.8970   57.4500  150.9820 C.3   287  GLN287      0.0908
     54  CD       -17.4810   58.1110  149.7400 C.2   287  GLN287      0.2608
     55  OE1      -16.8660   58.9990  149.1430 O.2   287  GLN287     -0.2717
     56  NE2      -18.6850   57.6910  149.3570 N.am  287  GLN287     -0.0878
     57  N        -11.3210   57.5360  154.8790 N.3   289  LEU289     -0.1231
     58  CA       -10.5720   56.6500  155.7570 C.3   289  LEU289      0.1693
     59  C        -10.3490   55.3090  155.0770 C.2   289  LEU289      0.2591
     60  O         -9.2280   54.7980  155.0310 O.2   289  LEU289     -0.2718
     61  CB       -11.3320   56.4580  157.0700 C.3   289  LEU289      0.0284
     62  CG       -11.5910   57.7530  157.8450 C.3   289  LEU289      0.0019
     63  CD1      -12.4970   57.4680  159.0280 C.3   289  LEU289      0.0001
     64  CD2      -10.2690   58.3590  158.3050 C.3   289  LEU289      0.0001
     65  N        -11.4250   54.7490  154.5370 N.am  290  LYS290     -0.1980
     66  CA       -11.3470   53.4680  153.8590 C.3   290  LYS290      0.1596
     67  C        -10.2080   53.4630  152.8490 C.2   290  LYS290      0.2287
     68  O         -9.5130   52.4660  152.6820 O.2   290  LYS290     -0.2864
     69  CB       -12.6570   53.1710  153.1360 C.3   290  LYS290      0.0298
     70  CG       -12.7070   51.7680  152.5920 C.3   290  LYS290      0.0038
     71  CD       -13.9090   51.5360  151.7050 C.3   290  LYS290      0.0206
     72  CE       -13.9650   50.0740  151.2920 C.3   290  LYS290      0.1093
     73  NZ       -12.6410   49.5930  150.7820 N.3   290  LYS290     -0.1314
     74  N         -6.3830   53.8720  154.4700 N.3   293  MET293     -0.1245
     75  CA        -5.9720   52.7870  155.3560 C.3   293  MET293      0.1570
     76  C         -4.4650   52.6310  155.5110 C.2   293  MET293      0.2261
     77  O         -3.9510   52.5900  156.6240 O.2   293  MET293     -0.2867
     78  CB        -6.5460   51.4630  154.8620 C.3   293  MET293      0.0387
     79  CG        -8.0330   51.3190  155.0820 C.3   293  MET293      0.0595
     80  SD        -8.4200   51.1570  156.8280 S.3   293  MET293     -0.1393
     81  CE        -8.2510   49.3500  157.0390 C.3   293  MET293      0.0692
     82  N        -15.2920   65.7720  144.6690 N.3   387  ARG387     -0.1231
     83  CA       -15.9700   64.8890  143.7250 C.3   387  ARG387      0.1694
     84  C        -17.3700   64.5700  144.2510 C.2   387  ARG387      0.2591
     85  O        -17.7980   63.4150  144.2880 O.2   387  ARG387     -0.2718
     86  CB       -15.1780   63.5930  143.5210 C.3   387  ARG387      0.0321
     87  CG       -15.6150   62.8050  142.2900 C.3   387  ARG387      0.0489
     88  CD       -15.0460   61.3990  142.2880 C.3   387  ARG387      0.2205
     89  NE       -15.4440   60.6540  143.4820 N.pl3 387  ARG387     -0.0865
     90  CZ       -16.7050   60.4110  143.8350 C.cat 387  ARG387      0.5346
     91  NH1      -17.7080   60.8520  143.0840 N.pl3 387  ARG387      0.1354
     92  NH2      -16.9660   59.7330  144.9460 N.pl3 387  ARG387      0.1354
     93  N        -18.0670   65.6220  144.6650 N.am  388  GLU388     -0.1979
     94  CA       -19.4230   65.5420  145.1890 C.3   388  GLU388      0.1602
     95  C        -19.9940   66.9610  145.1510 C.2   388  GLU388      0.2287
     96  O        -21.0720   67.1980  144.5990 O.2   388  GLU388     -0.2864
     97  CB       -19.4170   65.0140  146.6290 C.3   388  GLU388      0.0415
     98  CG       -19.6140   63.4900  146.6340 C.3   388  GLU388      0.1163
     99  CD       -18.6770   62.6850  147.4800 C.2   388  GLU388      0.3649
    100  OE1      -18.7430   62.6520  148.6890 O.co2 388  GLU388     -0.2457
    101  OE2      -17.8150   61.9780  146.7850 O.co2 388  GLU388     -0.2457
@<TRIPOS>BOND
     1     4     3    2
     2     5     6    1
     3     5     2    1
     4     1     2    1
     5     6     7    1
     6     3     2    1
     7     7     8    1
     8     8     9    1
     9    88    87    1
    10    88    89    1
    11    87    86    1
    12    91    90    1
    13    89    90    2
    14    86    83    1
    15    83    84    1
    16    83    82    1
    17    90    92    1
    18    84    85    2
    19    84    93   am
    20    96    95    2
    21    93    94    1
    22    95    94    1
    23    94    97    1
    24    97    98    1
    25    98    99    1
    26   101    99   ar
    27    99   100   ar
    28    34    33    1
    29    33    32    1
    30    55    54    2
    31    56    54   am
    32    54    53    1
    33    32    31    1
    34    73    72    1
    35    52    53    1
    36    52    49    1
    37    31    30    1
    38    72    71    1
    39    71    70    1
    40    51    50    2
    41    42    41    2
    42    49    50    1
    43    49    48    1
    44    30    27    1
    45    70    69    1
    46    68    67    2
    47    67    66    1
    48    69    66    1
    49    41    43   am
    50    41    40    1
    51    27    28    1
    52    27    26    1
    53    48    46   am
    54    38    37    2
    55    29    28    2
    56    39    40    1
    57    39    36    1
    58    37    36    1
    59    66    65    1
    60    74    75    1
    61    65    59   am
    62    36    35    1
    63    46    47    2
    64    46    45    1
    65    78    79    1
    66    78    75    1
    67    57    58    1
    68    60    59    2
    69    59    58    1
    70    79    80    1
    71    75    76    1
    72    23    22    1
    73    23    24    1
    74    10    11    1
    75    76    77    2
    76    58    61    1
    77    45    44    1
    78    16    14    1
    79    22    19    1
    80    14    11    1
    81    14    15    1
    82    24    25    1
    83    11    12    1
    84    18    19    1
    85    18    12   am
    86    80    81    1
    87    61    62    1
    88    19    20    1
    89    12    13    2
    90    17    15    1
    91    62    64    1
    92    62    63    1
    93    20    21    2
