@<TRIPOS>MOLECULE
tmp/3lntB00.pdb
 106 102 0 0 0
SMALL
GASTEIGER

@<TRIPOS>ATOM
      1  N        -52.8740  -15.6760  -14.9510 N.3     8  ARG8       -0.1231
      2  CA       -52.5830  -16.2860  -16.2370 C.3     8  ARG8        0.1694
      3  C        -51.1490  -15.9210  -16.6060 C.2     8  ARG8        0.2592
      4  O        -50.6970  -14.7940  -16.3650 O.2     8  ARG8       -0.2718
      5  CB       -53.5440  -15.7270  -17.3140 C.3     8  ARG8        0.0321
      6  CG       -53.4690  -16.3850  -18.6850 C.3     8  ARG8        0.0489
      7  CD       -54.4520  -15.6550  -19.6940 C.3     8  ARG8        0.2205
      8  NE       -54.1580  -16.0390  -21.0660 N.pl3   8  ARG8       -0.0865
      9  CZ       -54.2790  -15.2430  -22.1440 C.cat   8  ARG8        0.5346
     10  NH1      -54.7040  -13.9740  -22.0390 N.pl3   8  ARG8        0.1354
     11  NH2      -53.9210  -15.7110  -23.3430 N.pl3   8  ARG8        0.1354
     12  N        -50.4490  -16.8500  -17.2310 N.am    9  HIS9       -0.1976
     13  CA       -49.0950  -16.5690  -17.6640 C.3     9  HIS9        0.1656
     14  C        -49.0000  -15.2930  -18.5120 C.2     9  HIS9        0.2291
     15  O        -49.9860  -14.8770  -19.1650 O.2     9  HIS9       -0.2864
     16  CB       -48.5310  -17.7470  -18.4550 C.3     9  HIS9        0.0771
     17  CG       -49.2990  -18.0700  -19.6960 C.ar    9  HIS9        0.0820
     18  ND1      -49.1690  -17.3540  -20.8740 N.ar    9  HIS9       -0.2267
     19  CD2      -50.1540  -19.0880  -19.9660 C.ar    9  HIS9        0.1154
     20  CE1      -49.9470  -17.8870  -21.7950 C.ar    9  HIS9        0.1986
     21  NE2      -50.5430  -18.9540  -21.2770 N.ar    9  HIS9       -0.2212
     22  N        -48.9300  -16.7640  -28.2150 N.3    15  ASN15      -0.1240
     23  CA       -49.9230  -15.6830  -28.0020 C.3    15  ASN15       0.1653
     24  C        -49.6530  -14.5480  -29.0030 C.2    15  ASN15       0.2266
     25  O        -50.5680  -14.0570  -29.6670 O.2    15  ASN15      -0.2867
     26  CB       -49.8580  -15.0790  -26.5930 C.3    15  ASN15       0.1155
     27  CG       -50.3100  -16.0180  -25.5090 C.2    15  ASN15       0.2627
     28  OD1      -50.0140  -15.7730  -24.3350 O.2    15  ASN15      -0.2716
     29  ND2      -51.0440  -17.0880  -25.8660 N.am   15  ASN15      -0.0877
     30  N        -51.5440  -18.0920  -32.2810 N.3    19  ARG19      -0.1231
     31  CA       -51.6090  -19.5130  -32.5880 C.3    19  ARG19       0.1694
     32  C        -52.1540  -20.2810  -31.4040 C.2    19  ARG19       0.2592
     33  O        -51.7520  -20.0330  -30.2410 O.2    19  ARG19      -0.2718
     34  CB       -50.2350  -20.1150  -32.8580 C.3    19  ARG19       0.0321
     35  CG       -49.4520  -19.4910  -33.9130 C.3    19  ARG19       0.0489
     36  CD       -48.2480  -20.3570  -34.2890 C.3    19  ARG19       0.2205
     37  NE       -47.6490  -19.6560  -35.3970 N.pl3  19  ARG19      -0.0865
     38  CZ       -48.0050  -19.8180  -36.6720 C.cat  19  ARG19       0.5346
     39  NH1      -47.4080  -19.0870  -37.6000 N.pl3  19  ARG19       0.1354
     40  NH2      -48.9290  -20.7260  -37.0280 N.pl3  19  ARG19       0.1354
     41  N        -53.0260  -21.2420  -31.6990 N.am   20  PHE20      -0.1962
     42  CA       -53.4470  -22.2080  -30.6920 C.3    20  PHE20       0.1771
     43  C        -52.1950  -22.9070  -30.1500 C.2    20  PHE20       0.2620
     44  O        -51.3750  -23.3990  -30.9230 O.2    20  PHE20      -0.2715
     45  CB       -54.3990  -23.2530  -31.2690 C.3    20  PHE20       0.0574
     46  CG       -55.7520  -22.7060  -31.6540 C.ar   20  PHE20      -0.0200
     47  CD1      -56.7460  -22.4980  -30.6810 C.ar   20  PHE20      -0.0042
     48  CD2      -56.0360  -22.4140  -32.9860 C.ar   20  PHE20      -0.0042
     49  CE1      -58.0200  -21.9970  -31.0350 C.ar   20  PHE20      -0.0003
     50  CE2      -57.3030  -21.9220  -33.3650 C.ar   20  PHE20      -0.0003
     51  CZ       -58.3000  -21.7080  -32.3830 C.ar   20  PHE20      -0.0000
     52  N        -52.0780  -22.9640  -28.8250 N.am   21  THR21      -0.1937
     53  CA       -50.9260  -23.5840  -28.1970 C.3    21  THR21       0.2028
     54  C        -51.2730  -24.9110  -27.5260 C.2    21  THR21       0.2642
     55  O        -50.7070  -25.9370  -27.8680 O.2    21  THR21      -0.2714
     56  CB       -50.2490  -22.6340  -27.1810 C.3    21  THR21       0.1808
     57  OG1      -50.0180  -21.3710  -27.8070 O.3    21  THR21      -0.2208
     58  CG2      -48.9220  -23.2200  -26.7400 C.3    21  THR21       0.0379
     59  N        -52.2070  -24.8910  -26.5830 N.am   22  GLY22      -0.1954
     60  CA       -52.5450  -26.1010  -25.8490 C.3    22  GLY22       0.1869
     61  C        -51.3580  -26.5820  -25.0310 C.2    22  GLY22       0.2309
     62  O        -50.7600  -25.8050  -24.2630 O.2    22  GLY22      -0.2863
     63  N        -44.2940  -21.6090  -19.8030 N.3    60  ARG60      -0.1245
     64  CA       -44.8260  -20.2450  -19.8760 C.3    60  ARG60       0.1563
     65  C        -45.5120  -19.8780  -18.5570 C.2    60  ARG60       0.2260
     66  O        -45.4090  -18.7450  -18.1170 O.2    60  ARG60      -0.2867
     67  CB       -45.7920  -20.0680  -21.0540 C.3    60  ARG60       0.0307
     68  CG       -47.0970  -20.9010  -21.0160 C.3    60  ARG60       0.0489
     69  CD       -47.6600  -20.8400  -22.4460 C.3    60  ARG60       0.2205
     70  NE       -48.9340  -21.5060  -22.7160 N.pl3  60  ARG60      -0.0865
     71  CZ       -49.0370  -22.7340  -23.2170 C.cat  60  ARG60       0.5346
     72  NH1      -47.9340  -23.4560  -23.3820 N.pl3  60  ARG60       0.1354
     73  NH2      -50.2410  -23.2540  -23.5160 N.pl3  60  ARG60       0.1354
     74  N        -53.0080  -25.7670  -19.8730 N.3    87  GLU87      -0.1245
     75  CA       -53.9570  -25.2000  -20.8300 C.3    87  GLU87       0.1567
     76  C        -54.8330  -26.2980  -21.4500 C.2    87  GLU87       0.2260
     77  O        -54.4550  -27.4840  -21.4830 O.2    87  GLU87      -0.2867
     78  CB       -53.2130  -24.3930  -21.9060 C.3    87  GLU87       0.0388
     79  CG       -54.0790  -23.7500  -22.9810 C.3    87  GLU87       0.1160
     80  CD       -55.0250  -22.7440  -22.3890 C.2    87  GLU87       0.3649
     81  OE1      -54.6400  -21.5800  -22.3310 O.co2  87  GLU87      -0.2457
     82  OE2      -56.1030  -23.1230  -21.8930 O.co2  87  GLU87      -0.2457
     83  N        -55.7930  -28.5090  -27.4590 N.3    90  TYR90      -0.1241
     84  CA       -56.4840  -28.0960  -28.6990 C.3    90  TYR90       0.1605
     85  C        -56.3560  -29.0750  -29.8740 C.2    90  TYR90       0.2264
     86  O        -56.6000  -28.6990  -31.0310 O.2    90  TYR90      -0.2867
     87  CB       -56.0030  -26.7070  -29.1720 C.3    90  TYR90       0.0534
     88  CG       -56.5580  -25.6060  -28.3400 C.ar   90  TYR90      -0.0201
     89  CD1      -57.9070  -25.2430  -28.4370 C.ar   90  TYR90      -0.0009
     90  CD2      -55.7440  -24.9210  -27.4350 C.ar   90  TYR90      -0.0009
     91  CE1      -58.4420  -24.2130  -27.6290 C.ar   90  TYR90       0.0417
     92  CE2      -56.2530  -23.8910  -26.6440 C.ar   90  TYR90       0.0417
     93  CZ       -57.6010  -23.5520  -26.7400 C.ar   90  TYR90       0.1957
     94  OH       -58.0790  -22.5250  -25.9640 O.3    90  TYR90      -0.2866
     95  N        -55.2670  -19.6010  -19.4580 N.3   183  GLY183     -0.1210
     96  CA       -56.6240  -19.0920  -19.6810 C.3   183  GLY183      0.1956
     97  C        -57.7130  -20.0960  -19.3330 C.2   183  GLY183      0.2611
     98  O        -58.5700  -19.8190  -18.4880 O.2   183  GLY183     -0.2717
     99  N        -57.6700  -21.2850  -19.9410 N.am  184  ASN184     -0.1974
    100  CA       -58.7550  -22.2610  -19.7360 C.3   184  ASN184      0.1688
    101  C        -58.7540  -23.0430  -18.4470 C.2   184  ASN184      0.2292
    102  O        -59.8280  -23.4300  -17.9670 O.2   184  ASN184     -0.2864
    103  CB       -58.8960  -23.1980  -20.9170 C.3   184  ASN184      0.1181
    104  CG       -59.4570  -22.4900  -22.1160 C.2   184  ASN184      0.2629
    105  OD1      -60.6260  -22.0860  -22.1190 O.2   184  ASN184     -0.2716
    106  ND2      -58.6330  -22.3030  -23.1260 N.am  184  ASN184     -0.0877
@<TRIPOS>BOND
     1    39    38    1
     2    40    38    1
     3    38    37    2
     4    37    36    1
     5    36    35    1
     6    35    34    1
     7    50    48   ar
     8    50    51   ar
     9    48    46   ar
    10    34    31    1
    11    31    30    1
    12    31    32    1
    13    51    49   ar
    14    41    32   am
    15    41    42    1
    16    46    45    1
    17    46    47   ar
    18    32    33    2
    19    45    42    1
    20    49    47   ar
    21    86    85    2
    22    44    43    2
    23    42    43    1
    24    43    52   am
    25    85    84    1
    26    25    24    2
    27    87    84    1
    28    87    88    1
    29    24    23    1
    30    52    53    1
    31    84    83    1
    32    89    88   ar
    33    89    91   ar
    34    88    90   ar
    35    22    23    1
    36    53    54    1
    37    53    56    1
    38    23    26    1
    39    55    54    2
    40    57    56    1
    41    91    93   ar
    42    54    59   am
    43    90    92   ar
    44    56    58    1
    45    93    92   ar
    46    93    94    1
    47    26    27    1
    48    59    60    1
    49    29    27   am
    50    60    61    1
    51    27    28    2
    52    61    62    2
    53    73    71    1
    54    72    71    1
    55    11     9    1
    56    71    70    2
    57   106   104   am
    58    79    80    1
    59    79    78    1
    60    70    69    1
    61    69    68    1
    62    80    81   ar
    63    80    82   ar
    64     9    10    1
    65     9     8    2
    66   105   104    2
    67   104   103    1
    68    78    75    1
    69    20    21   ar
    70    20    18   ar
    71    77    76    2
    72    76    75    1
    73    21    19   ar
    74     8     7    1
    75    67    68    1
    76    67    64    1
    77   103   100    1
    78    18    17   ar
    79    75    74    1
    80    19    17   ar
    81    99   100    1
    82    99    97   am
    83    64    63    1
    84    64    65    1
    85   100   101    1
    86    17    16    1
    87     7     6    1
    88    96    95    1
    89    96    97    1
    90    97    98    2
    91    15    14    2
    92     6     5    1
    93    65    66    2
    94    14    13    1
    95    16    13    1
    96   101   102    2
    97    13    12    1
    98     5     2    1
    99    12     3   am
   100     3     4    2
   101     3     2    1
   102     2     1    1
