@<TRIPOS>MOLECULE
tmp/3lnvA01.pdb
 91 85 0 0 0
SMALL
GASTEIGER

@<TRIPOS>ATOM
      1  N         25.5450   24.1180   37.3970 N.3   165  THR165     -0.1203
      2  CA        25.3610   25.3110   36.5600 C.3   165  THR165      0.1994
      3  C         25.1640   24.9280   35.0890 C.2   165  THR165      0.2619
      4  O         25.4900   23.8050   34.6730 O.2   165  THR165     -0.2717
      5  CB        26.4920   26.3760   36.7550 C.3   165  THR165      0.1784
      6  OG1       27.7720   25.7890   36.5340 O.3   165  THR165     -0.2211
      7  CG2       26.4640   26.9280   38.1660 C.3   165  THR165      0.0376
      8  N         24.5990   25.8470   34.3100 N.am  166  SER166     -0.1937
      9  CA        24.2700   25.5520   32.9210 C.3   166  SER166      0.2055
     10  C         25.5190   25.2600   32.0800 C.2   166  SER166      0.2644
     11  O         25.4840   24.4240   31.1780 O.2   166  SER166     -0.2714
     12  CB        23.4570   26.7020   32.3010 C.3   166  SER166      0.2130
     13  OG        22.1620   26.8120   32.8900 O.3   166  SER166     -0.2179
     14  N         26.6220   25.9480   32.3790 N.am  167  GLY167     -0.1939
     15  CA        27.7840   25.9230   31.5050 C.3   167  GLY167      0.2014
     16  C         29.1400   25.8840   32.1720 C.2   167  GLY167      0.2639
     17  O         29.9230   26.8460   32.1120 O.2   167  GLY167     -0.2714
     18  N         29.4340   24.7560   32.8010 N.am  168  SER168     -0.1949
     19  CA        30.7560   24.5240   33.3450 C.3   168  SER168      0.1924
     20  C         31.0520   23.0830   32.9960 C.2   168  SER168      0.2314
     21  O         31.5570   22.3270   33.8120 O.2   168  SER168     -0.2863
     22  CB        30.7370   24.7010   34.8610 C.3   168  SER168      0.2116
     23  OG        31.8690   25.4280   35.3000 O.3   168  SER168     -0.2180
     24  N         20.6030   33.2760   39.1800 N.3   312  LEU312     -0.1231
     25  CA        21.5750   32.2480   38.8540 C.3   312  LEU312      0.1693
     26  C         21.5390   31.1730   39.9330 C.2   312  LEU312      0.2592
     27  O         21.0980   31.4140   41.0640 O.2   312  LEU312     -0.2718
     28  CB        22.9770   32.8490   38.7230 C.3   312  LEU312      0.0284
     29  CG        23.6730   33.3510   39.9990 C.3   312  LEU312      0.0019
     30  CD1       25.1470   33.5300   39.7540 C.3   312  LEU312      0.0001
     31  CD2       23.0430   34.6670   40.5450 C.3   312  LEU312      0.0001
     32  N         21.9970   29.9880   39.5840 N.am  313  ALA313     -0.1966
     33  CA        21.9650   28.8560   40.5030 C.3   313  ALA313      0.1728
     34  C         22.6520   29.1120   41.8640 C.2   313  ALA313      0.2616
     35  O         22.1640   28.6460   42.8850 O.2   313  ALA313     -0.2715
     36  CB        22.5520   27.6230   39.8160 C.3   313  ALA313      0.0334
     37  N         23.7580   29.8710   41.8900 N.am  314  GLU314     -0.1977
     38  CA        24.4900   30.1340   43.1380 C.3   314  GLU314      0.1602
     39  C         23.6790   30.9570   44.1200 C.2   314  GLU314      0.2287
     40  O         23.9370   30.9660   45.3320 O.2   314  GLU314     -0.2864
     41  CB        25.8260   30.8680   42.8550 C.3   314  GLU314      0.0415
     42  CG        26.8890   30.0140   42.1760 C.3   314  GLU314      0.1163
     43  CD        26.8150   30.0220   40.6490 C.2   314  GLU314      0.3649
     44  OE1       25.7380   30.2870   40.0650 O.co2 314  GLU314     -0.2457
     45  OE2       27.8520   29.7280   40.0360 O.co2 314  GLU314     -0.2457
     46  N         30.1000   25.0810   46.0610 N.3   395  TYR395     -0.1241
     47  CA        30.1060   24.0960   44.9870 C.3   395  TYR395      0.1605
     48  C         30.5730   22.7650   45.5560 C.2   395  TYR395      0.2264
     49  O         31.6800   22.6800   46.0760 O.2   395  TYR395     -0.2867
     50  CB        31.0980   24.4990   43.8900 C.3   395  TYR395      0.0534
     51  CG        30.8140   25.8150   43.2130 C.ar  395  TYR395     -0.0201
     52  CD1       29.5920   26.0530   42.5780 C.ar  395  TYR395     -0.0009
     53  CD2       31.7710   26.8150   43.1900 C.ar  395  TYR395     -0.0009
     54  CE1       29.3400   27.2580   41.9350 C.ar  395  TYR395      0.0417
     55  CE2       31.5350   28.0230   42.5530 C.ar  395  TYR395      0.0417
     56  CZ        30.3210   28.2450   41.9300 C.ar  395  TYR395      0.1957
     57  OH        30.1090   29.4500   41.3060 O.3   395  TYR395     -0.2866
     58  N         28.9160   37.0680   41.1390 N.3   420  THR420     -0.1218
     59  CA        28.1530   36.3560   40.1050 C.3   420  THR420      0.1862
     60  C         28.9000   36.0500   38.8190 C.2   420  THR420      0.2287
     61  O         28.5410   35.0990   38.1050 O.2   420  THR420     -0.2866
     62  CB        26.9190   37.1490   39.7120 C.3   420  THR420      0.1770
     63  OG1       27.3220   38.3810   39.1120 O.3   420  THR420     -0.2211
     64  CG2       26.0640   37.4300   40.9460 C.3   420  THR420      0.0375
     65  N         28.9330   38.2900   36.6250 N.3   422  ASP422     -0.1239
     66  CA        28.1140   39.0910   35.7230 C.3   422  ASP422      0.1674
     67  C         28.4140   40.5780   35.8800 C.2   422  ASP422      0.2266
     68  O         28.6870   41.0530   36.9920 O.2   422  ASP422     -0.2867
     69  CB        26.6150   38.8230   36.0090 C.3   422  ASP422      0.1410
     70  CG        26.1980   37.3860   35.6610 C.2   422  ASP422      0.3668
     71  OD1       26.7290   36.8380   34.6590 O.co2 422  ASP422     -0.2456
     72  OD2       25.3340   36.8130   36.3760 O.co2 422  ASP422     -0.2456
     73  N         29.4410   39.7850   30.8810 N.3   436  ARG436     -0.1245
     74  CA        30.1340   38.8590   31.7700 C.3   436  ARG436      0.1563
     75  C         31.5750   39.3300   31.9380 C.2   436  ARG436      0.2260
     76  O         32.1290   40.0000   31.0650 O.2   436  ARG436     -0.2867
     77  CB        30.1220   37.4310   31.1930 C.3   436  ARG436      0.0307
     78  CG        28.7770   36.6990   31.2510 C.3   436  ARG436      0.0489
     79  CD        28.8080   35.3990   30.4380 C.3   436  ARG436      0.2205
     80  NE        27.5250   34.6860   30.4550 N.pl3 436  ARG436     -0.0865
     81  CZ        27.2080   33.7340   31.3320 C.cat 436  ARG436      0.5346
     82  NH1       28.0820   33.3890   32.2600 N.pl3 436  ARG436      0.1354
     83  NH2       26.0160   33.1390   31.2950 N.pl3 436  ARG436      0.1354
     84  N         34.7200   31.5460   26.8830 N.3   443  ILE443     -0.1245
     85  CA        34.0430   30.5430   27.7010 C.3   443  ILE443      0.1561
     86  C         33.3220   29.4350   26.9120 C.2   443  ILE443      0.2260
     87  O         33.2730   28.2770   27.3520 O.2   443  ILE443     -0.2867
     88  CB        33.0570   31.1900   28.6760 C.3   443  ILE443      0.0252
     89  CG1       33.7780   32.2410   29.5290 C.3   443  ILE443      0.0019
     90  CG2       32.3890   30.1240   29.5350 C.3   443  ILE443      0.0019
     91  CD1       35.1970   31.8570   29.9610 C.3   443  ILE443      0.0001
@<TRIPOS>BOND
     1    84    85    1
     2    86    87    2
     3    86    85    1
     4    85    88    1
     5    88    89    1
     6    88    90    1
     7    89    91    1
     8    79    80    1
     9    79    78    1
    10    80    81    2
    11    73    74    1
    12    76    75    2
    13    11    10    2
    14    77    78    1
    15    77    74    1
    16    83    81    1
    17    81    82    1
    18    15    16    1
    19    15    14    1
    20    74    75    1
    21    10    14   am
    22    10     9    1
    23    17    16    2
    24    16    18   am
    25    12    13    1
    26    12     9    1
    27    18    19    1
    28     9     8    1
    29    20    19    1
    30    20    21    2
    31    19    22    1
    32     8     3   am
    33    71    70   ar
    34     4     3    2
    35    22    23    1
    36     3     2    1
    37    70    69    1
    38    70    72   ar
    39    66    67    1
    40    66    69    1
    41    66    65    1
    42    67    68    2
    43     6     5    1
    44     2     5    1
    45     2     1    1
    46     5     7    1
    47    61    60    2
    48    28    25    1
    49    28    29    1
    50    60    59    1
    51    25    24    1
    52    25    26    1
    53    63    62    1
    54    32    26   am
    55    32    33    1
    56    62    59    1
    57    62    64    1
    58    30    29    1
    59    36    33    1
    60    26    27    2
    61    29    31    1
    62    45    43   ar
    63    44    43   ar
    64    59    58    1
    65    33    34    1
    66    43    42    1
    67    57    56    1
    68    34    37   am
    69    34    35    2
    70    37    38    1
    71    56    54   ar
    72    56    55   ar
    73    54    52   ar
    74    42    41    1
    75    55    53   ar
    76    52    51   ar
    77    41    38    1
    78    38    39    1
    79    53    51   ar
    80    51    50    1
    81    50    47    1
    82    39    40    2
    83    47    48    1
    84    47    46    1
    85    48    49    2
