@<TRIPOS>MOLECULE
tmp/3lnzA00.pdb
 162 157 0 0 0
SMALL
GASTEIGER

@<TRIPOS>ATOM
      1  N         26.6710  -25.6760   25.6240 N.3    27  LYS27      -0.1245
      2  CA        27.2460  -25.0440   26.7910 C.3    27  LYS27       0.1561
      3  C         28.3180  -25.8980   27.5060 C.2    27  LYS27       0.2260
      4  O         29.3010  -25.3600   27.9960 O.2    27  LYS27      -0.2867
      5  CB        26.0950  -24.7440   27.7180 C.3    27  LYS27       0.0271
      6  CG        25.3400  -23.5610   27.2650 C.3    27  LYS27       0.0035
      7  CD        26.2500  -22.3390   27.2520 C.3    27  LYS27       0.0206
      8  CE        25.4970  -21.1010   27.7520 C.3    27  LYS27       0.1093
      9  NZ        24.3130  -20.7350   26.8720 N.3    27  LYS27      -0.1314
     10  N         31.3880  -26.1130   25.3070 N.3    30  LEU30      -0.1231
     11  CA        32.2190  -24.9190   25.5350 C.3    30  LEU30       0.1693
     12  C         32.9590  -24.8880   26.8970 C.2    30  LEU30       0.2592
     13  O         34.1490  -24.4900   26.9560 O.2    30  LEU30      -0.2718
     14  CB        31.4520  -23.6360   25.3410 C.3    30  LEU30       0.0284
     15  CG        31.1290  -23.2510   23.8930 C.3    30  LEU30       0.0019
     16  CD1       30.0260  -22.2450   23.9910 C.3    30  LEU30       0.0001
     17  CD2       32.3540  -22.6390   23.2040 C.3    30  LEU30       0.0001
     18  N         32.2910  -25.3510   27.9720 N.am   31  PHE31      -0.1976
     19  CA        33.0020  -25.5200   29.2840 C.3    31  PHE31       0.1639
     20  C         34.2820  -26.4030   29.2430 C.2    31  PHE31       0.2290
     21  O         35.3560  -25.9800   29.7450 O.2    31  PHE31      -0.2864
     22  CB        32.0420  -26.0640   30.3580 C.3    31  PHE31       0.0560
     23  CG        31.1190  -25.0220   30.9550 C.ar   31  PHE31      -0.0200
     24  CD1       31.6490  -23.7910   31.4270 C.ar   31  PHE31      -0.0042
     25  CD2       29.7500  -25.2780   31.1170 C.ar   31  PHE31      -0.0042
     26  CE1       30.8640  -22.8520   31.9960 C.ar   31  PHE31      -0.0003
     27  CE2       28.9140  -24.3210   31.7090 C.ar   31  PHE31      -0.0003
     28  CZ        29.4660  -23.0790   32.1950 C.ar   31  PHE31      -0.0000
     29  N         35.8900  -27.6050   26.5160 N.3    33  LEU33      -0.1231
     30  CA        36.8500  -27.1360   25.5400 C.3    33  LEU33       0.1693
     31  C         37.6290  -25.9680   26.1030 C.2    33  LEU33       0.2592
     32  O         38.8430  -25.8650   25.8940 O.2    33  LEU33      -0.2718
     33  CB        36.1800  -26.8160   24.1930 C.3    33  LEU33       0.0284
     34  CG        36.9990  -26.0410   23.1620 C.3    33  LEU33       0.0019
     35  CD1       38.2690  -26.8630   22.7460 C.3    33  LEU33       0.0001
     36  CD2       36.1750  -25.8450   21.9700 C.3    33  LEU33       0.0001
     37  N         36.9690  -25.0990   26.8580 N.am   34  GLY34      -0.1957
     38  CA        37.7870  -24.0910   27.6030 C.3    34  GLY34       0.1869
     39  C         38.7630  -24.7310   28.6210 C.2    34  GLY34       0.2309
     40  O         39.9200  -24.2890   28.7400 O.2    34  GLY34      -0.2863
     41  N         41.8820  -26.1910   26.9320 N.3    37  ILE37      -0.1231
     42  CA        42.8280  -25.1570   26.5000 C.3    37  ILE37       0.1692
     43  C         43.6410  -24.7260   27.7210 C.2    37  ILE37       0.2591
     44  O         44.8530  -24.6120   27.6260 O.2    37  ILE37      -0.2718
     45  CB        42.1560  -23.9920   25.6870 C.3    37  ILE37       0.0266
     46  CG1       41.6600  -24.4540   24.2860 C.3    37  ILE37       0.0019
     47  CG2       43.1410  -22.8060   25.3590 C.3    37  ILE37       0.0020
     48  CD1       40.5690  -23.6010   23.8500 C.3    37  ILE37       0.0001
     49  N         42.9850  -24.5200   28.8830 N.am   38  MET38      -0.1979
     50  CA        43.7390  -24.0970   30.0870 C.3    38  MET38       0.1605
     51  C         44.5510  -25.2320   30.6990 C.2    38  MET38       0.2287
     52  O         45.6940  -25.0260   31.1310 O.2    38  MET38      -0.2864
     53  CB        42.8090  -23.4710   31.1250 C.3    38  MET38       0.0413
     54  CG        42.2720  -22.0820   30.7030 C.3    38  MET38       0.0598
     55  SD        40.9380  -21.4150   31.7960 S.3    38  MET38      -0.1393
     56  CE        39.5040  -22.2160   31.1060 C.3    38  MET38       0.0692
     57  N         47.0410  -21.2470   25.7800 N.3    43  TYR43      -0.1241
     58  CA        46.8380  -19.8260   25.6010 C.3    43  TYR43       0.1605
     59  C         48.1620  -19.0630   25.7080 C.2    43  TYR43       0.2264
     60  O         49.0560  -19.4950   26.4480 O.2    43  TYR43      -0.2867
     61  CB        45.7850  -19.2950   26.5830 C.3    43  TYR43       0.0534
     62  CG        46.1160  -19.5280   28.0530 C.ar   43  TYR43      -0.0201
     63  CD1       46.9420  -18.6280   28.7450 C.ar   43  TYR43      -0.0009
     64  CD2       45.6300  -20.6720   28.7390 C.ar   43  TYR43      -0.0009
     65  CE1       47.2500  -18.8170   30.1330 C.ar   43  TYR43       0.0417
     66  CE2       45.9510  -20.8740   30.1430 C.ar   43  TYR43       0.0417
     67  CZ        46.7830  -19.9510   30.8130 C.ar   43  TYR43       0.1957
     68  OH        47.1140  -20.1340   32.1660 O.3    43  TYR43      -0.2866
     69  N         46.0980  -13.1120   26.0670 N.3    48  GLN48      -0.1231
     70  CA        45.4120  -14.3940   26.3910 C.3    48  GLN48       0.1698
     71  C         44.2390  -14.8930   25.5060 C.2    48  GLN48       0.2592
     72  O         43.7420  -16.0160   25.7230 O.2    48  GLN48      -0.2718
     73  CB        45.0850  -14.4250   27.8890 C.3    48  GLN48       0.0381
     74  CG        46.3370  -14.3140   28.7650 C.3    48  GLN48       0.0905
     75  CD        46.2480  -15.1230   30.0510 C.2    48  GLN48       0.2608
     76  OE1       45.1500  -15.5240   30.5040 O.2    48  GLN48      -0.2717
     77  NE2       47.4100  -15.3860   30.6440 N.am   48  GLN48      -0.0878
     78  N         43.8030  -14.1190   24.5140 N.am   49  HIS49      -0.1976
     79  CA        42.8490  -14.6310   23.5360 C.3    49  HIS49       0.1656
     80  C         43.5170  -15.5080   22.4480 C.2    49  HIS49       0.2291
     81  O         42.8210  -16.1540   21.6830 O.2    49  HIS49      -0.2864
     82  CB        42.0400  -13.5150   22.8690 C.3    49  HIS49       0.0771
     83  CG        42.8920  -12.5040   22.1700 C.ar   49  HIS49       0.0820
     84  ND1       43.1320  -12.5400   20.8110 N.ar   49  HIS49      -0.2267
     85  CD2       43.6380  -11.4800   22.6580 C.ar   49  HIS49       0.1154
     86  CE1       43.9580  -11.5540   20.4870 C.ar   49  HIS49       0.1986
     87  NE2       44.2740  -10.8920   21.5840 N.ar   49  HIS49      -0.2212
     88  N         45.4100  -18.6190   21.0470 N.3    51  VAL51      -0.1245
     89  CA        45.5530  -20.0120   21.4160 C.3    51  VAL51       0.1561
     90  C         46.4990  -20.6490   20.4050 C.2    51  VAL51       0.2260
     91  O         46.3100  -20.4860   19.1780 O.2    51  VAL51      -0.2867
     92  CB        44.1590  -20.7050   21.4380 C.3    51  VAL51       0.0252
     93  CG1       44.3180  -22.2090   21.7140 C.3    51  VAL51       0.0019
     94  CG2       43.2400  -20.0230   22.4870 C.3    51  VAL51       0.0019
     95  N         40.6780  -28.3950   14.7220 N.3    62  PHE62      -0.1241
     96  CA        40.4630  -27.1090   14.0480 C.3    62  PHE62       0.1605
     97  C         41.0960  -26.8390   12.6840 C.2    62  PHE62       0.2264
     98  O         40.5750  -26.0360   11.9270 O.2    62  PHE62      -0.2867
     99  CB        40.8470  -25.9590   14.9750 C.3    62  PHE62       0.0534
    100  CG        39.8050  -25.6300   16.0090 C.ar   62  PHE62      -0.0203
    101  CD1       40.0820  -24.6760   16.9940 C.ar   62  PHE62      -0.0042
    102  CD2       38.5820  -26.3190   16.0580 C.ar   62  PHE62      -0.0042
    103  CE1       39.1170  -24.3610   17.9810 C.ar   62  PHE62      -0.0003
    104  CE2       37.6030  -26.0130   17.0250 C.ar   62  PHE62      -0.0003
    105  CZ        37.8830  -25.0440   18.0230 C.ar   62  PHE62      -0.0000
    106  N         44.6790  -19.5170   16.7480 N.3    67  PHE67      -0.1241
    107  CA        43.4830  -18.7000   16.5030 C.3    67  PHE67       0.1605
    108  C         43.2890  -17.6710   17.5980 C.2    67  PHE67       0.2264
    109  O         43.8660  -17.7500   18.6950 O.2    67  PHE67      -0.2867
    110  CB        42.1930  -19.5430   16.3300 C.3    67  PHE67       0.0534
    111  CG        41.8450  -20.3820   17.5310 C.ar   67  PHE67      -0.0203
    112  CD1       41.1260  -19.8260   18.5880 C.ar   67  PHE67      -0.0042
    113  CD2       42.2160  -21.7180   17.6110 C.ar   67  PHE67      -0.0042
    114  CE1       40.8180  -20.5730   19.7460 C.ar   67  PHE67      -0.0003
    115  CE2       41.8720  -22.4880   18.7560 C.ar   67  PHE67      -0.0003
    116  CZ        41.2080  -21.8880   19.8420 C.ar   67  PHE67      -0.0000
    117  N         40.4720  -16.0860   20.1100 N.3    69  VAL69      -0.1231
    118  CA        39.1900  -16.3190   20.7920 C.3    69  VAL69       0.1692
    119  C         38.1590  -15.2650   20.4360 C.2    69  VAL69       0.2591
    120  O         36.9780  -15.5490   20.4280 O.2    69  VAL69      -0.2718
    121  CB        39.4370  -16.3360   22.3300 C.3    69  VAL69       0.0266
    122  CG1       38.1420  -16.2520   23.0930 C.3    69  VAL69       0.0020
    123  CG2       40.0610  -17.6080   22.6870 C.3    69  VAL69       0.0020
    124  N         38.6200  -14.0480   20.1160 N.am   70  LYS70      -0.1980
    125  CA        37.7550  -12.9140   19.7980 C.3    70  LYS70       0.1596
    126  C         36.9520  -13.0490   18.4980 C.2    70  LYS70       0.2287
    127  O         36.0180  -12.2950   18.2810 O.2    70  LYS70      -0.2864
    128  CB        38.5880  -11.6290   19.7650 C.3    70  LYS70       0.0298
    129  CG        39.3660  -11.3720   21.0680 C.3    70  LYS70       0.0038
    130  CD        39.7470   -9.9200   21.1610 C.3    70  LYS70       0.0206
    131  CE        40.9310   -9.5390   20.3070 C.3    70  LYS70       0.1093
    132  NZ        41.3580   -8.1160   20.6100 N.3    70  LYS70      -0.1314
    133  N         34.4660  -14.7450   17.1960 N.3    72  HIS72      -0.1241
    134  CA        33.4220  -15.6060   17.6430 C.3    72  HIS72       0.1621
    135  C         32.8530  -16.4710   16.5340 C.2    72  HIS72       0.2264
    136  O         32.8530  -17.6910   16.6680 O.2    72  HIS72      -0.2867
    137  CB        32.3300  -14.8090   18.3290 C.3    72  HIS72       0.0745
    138  CG        32.7710  -14.2120   19.6310 C.ar   72  HIS72       0.0817
    139  ND1       31.9470  -13.4290   20.3960 N.ar   72  HIS72      -0.2268
    140  CD2       33.9510  -14.2870   20.3040 C.ar   72  HIS72       0.1154
    141  CE1       32.5810  -13.0620   21.5010 C.ar   72  HIS72       0.1986
    142  NE2       33.8040  -13.5590   21.4640 N.ar   72  HIS72      -0.2212
    143  N         35.2360  -19.3160   15.5770 N.3    75  ILE75      -0.1231
    144  CA        35.3440  -20.3530   16.5990 C.3    75  ILE75       0.1692
    145  C         34.1100  -21.2790   16.6270 C.2    75  ILE75       0.2592
    146  O         34.2570  -22.4920   16.5520 O.2    75  ILE75      -0.2718
    147  CB        35.6020  -19.7640   17.9730 C.3    75  ILE75       0.0266
    148  CG1       36.9120  -18.9890   17.9300 C.3    75  ILE75       0.0019
    149  CG2       35.6010  -20.8830   19.0210 C.3    75  ILE75       0.0020
    150  CD1       37.8290  -19.2060   19.1390 C.3    75  ILE75       0.0001
    151  N         32.9010  -20.7180   16.6240 N.am   76  TYR76      -0.1976
    152  CA        31.7030  -21.5560   16.4510 C.3    76  TYR76       0.1639
    153  C         31.6890  -22.3840   15.1760 C.2    76  TYR76       0.2290
    154  O         31.1710  -23.4950   15.1620 O.2    76  TYR76      -0.2864
    155  CB        30.4040  -20.7000   16.4930 C.3    76  TYR76       0.0560
    156  CG        30.0650  -20.3600   17.9100 C.ar   76  TYR76      -0.0198
    157  CD1       30.3240  -19.0970   18.4230 C.ar   76  TYR76      -0.0009
    158  CD2       29.5130  -21.3220   18.7540 C.ar   76  TYR76      -0.0009
    159  CE1       30.0540  -18.7940   19.7540 C.ar   76  TYR76       0.0417
    160  CE2       29.2540  -21.0370   20.0880 C.ar   76  TYR76       0.0417
    161  CZ        29.5000  -19.7490   20.5700 C.ar   76  TYR76       0.1957
    162  OH        29.2090  -19.4540   21.8800 O.3    76  TYR76      -0.2866
@<TRIPOS>BOND
     1    98    97    2
     2    97    96    1
     3    96    95    1
     4    96    99    1
     5    99   100    1
     6   154   153    2
     7   153   152    1
     8   143   144    1
     9   100   102   ar
    10   100   101   ar
    11   102   104   ar
    12   110   107    1
    13   110   111    1
    14   152   155    1
    15   152   151    1
    16   155   156    1
    17   107   106    1
    18   107   108    1
    19   135   136    2
    20   135   134    1
    21   146   145    2
    22   144   145    1
    23   144   147    1
    24   151   145   am
    25   101   103   ar
    26   104   105   ar
    27   133   134    1
    28   111   113   ar
    29   111   112   ar
    30   108   109    2
    31   113   115   ar
    32   134   137    1
    33   156   157   ar
    34   156   158   ar
    35   148   147    1
    36   148   150    1
    37   147   149    1
    38   103   105   ar
    39   127   126    2
    40   137   138    1
    41   157   159   ar
    42   126   125    1
    43   112   114   ar
    44   158   160   ar
    45   115   116   ar
    46    91    90    2
    47   138   140   ar
    48   138   139   ar
    49   114   116   ar
    50   159   161   ar
    51   128   125    1
    52   128   129    1
    53   125   124    1
    54   160   161   ar
    55   117   118    1
    56   124   119   am
    57   140   142   ar
    58   131   132    1
    59   131   130    1
    60   139   141   ar
    61    90    89    1
    62   120   119    2
    63   119   118    1
    64    86    84   ar
    65    86    87   ar
    66   161   162    1
    67   118   121    1
    68    84    83   ar
    69    88    89    1
    70   129   130    1
    71    89    92    1
    72    92    93    1
    73    92    94    1
    74   142   141   ar
    75    87    85   ar
    76    81    80    2
    77    36    34    1
    78    83    85   ar
    79    83    82    1
    80   121   123    1
    81   121   122    1
    82    80    79    1
    83    35    34    1
    84    82    79    1
    85    34    33    1
    86    17    15    1
    87    79    78    1
    88    48    46    1
    89    15    16    1
    90    15    14    1
    91    33    30    1
    92    46    45    1
    93    78    71   am
    94    10    11    1
    95    14    11    1
    96    47    45    1
    97    71    72    2
    98    71    70    1
    99    11    12    1
   100    30    31    1
   101    30    29    1
   102    58    59    1
   103    58    57    1
   104    58    61    1
   105     1     2    1
   106    45    42    1
   107    59    60    2
   108    32    31    2
   109    69    70    1
   110    31    37   am
   111    70    73    1
   112    42    41    1
   113    42    43    1
   114    61    62    1
   115     2     3    1
   116     2     5    1
   117    37    38    1
   118     9     8    1
   119    12    13    2
   120    12    18   am
   121     7     6    1
   122     7     8    1
   123     6     5    1
   124     3     4    2
   125    38    39    1
   126    44    43    2
   127    43    49   am
   128    73    74    1
   129    18    19    1
   130    62    64   ar
   131    62    63   ar
   132    39    40    2
   133    64    66   ar
   134    63    65   ar
   135    74    75    1
   136    49    50    1
   137    20    19    1
   138    20    21    2
   139    19    22    1
   140    75    76    2
   141    75    77   am
   142    50    51    1
   143    50    53    1
   144    65    67   ar
   145    66    67   ar
   146    22    23    1
   147    51    52    2
   148    54    53    1
   149    54    55    1
   150    67    68    1
   151    23    25   ar
   152    23    24   ar
   153    56    55    1
   154    25    27   ar
   155    24    26   ar
   156    27    28   ar
   157    26    28   ar
