@<TRIPOS>MOLECULE
tmp/3lo5A00.pdb
 112 108 0 0 0
SMALL
GASTEIGER

@<TRIPOS>ATOM
      1  N        -14.8860  -13.6160  -45.6740 N.3    12  GLY12      -0.1210
      2  CA       -15.3950  -12.3880  -45.0980 C.3    12  GLY12       0.1956
      3  C        -16.5440  -12.6730  -44.1510 C.2    12  GLY12       0.2612
      4  O        -17.4260  -13.4730  -44.4560 O.2    12  GLY12      -0.2717
      5  N        -16.5260  -12.0280  -42.9910 N.am   13  GLY13      -0.1942
      6  CA       -17.6110  -12.1540  -42.0370 C.3    13  GLY13       0.2014
      7  C        -17.4050  -13.2200  -40.9750 C.2    13  GLY13       0.2639
      8  O        -18.2880  -13.4430  -40.1430 O.2    13  GLY13      -0.2714
      9  N        -16.2500  -13.8830  -40.9920 N.am   14  VAL14      -0.1963
     10  CA       -15.9830  -14.9390  -40.0160 C.3    14  VAL14       0.1727
     11  C        -15.5600  -14.3740  -38.6630 C.2    14  VAL14       0.2617
     12  O        -15.5980  -15.0740  -37.6520 O.2    14  VAL14      -0.2715
     13  CB       -14.9240  -15.9380  -40.5140 C.3    14  VAL14       0.0290
     14  CG1      -15.4040  -16.6270  -41.7830 C.3    14  VAL14       0.0023
     15  CG2      -13.5970  -15.2360  -40.7390 C.3    14  VAL14       0.0023
     16  N        -15.1590  -13.1060  -38.6520 N.am   15  GLY15      -0.1940
     17  CA       -14.8170  -12.4290  -37.4140 C.3    15  GLY15       0.2014
     18  C        -13.3310  -12.1680  -37.2640 C.2    15  GLY15       0.2639
     19  O        -12.8300  -12.0040  -36.1530 O.2    15  GLY15      -0.2714
     20  N        -12.6240  -12.1320  -38.3870 N.am   16  LYS16      -0.1963
     21  CA       -11.1930  -11.8510  -38.3790 C.3    16  LYS16       0.1728
     22  C        -10.8980  -10.5360  -37.6670 C.2    16  LYS16       0.2616
     23  O        -10.0080  -10.4620  -36.8220 O.2    16  LYS16      -0.2715
     24  CB       -10.6470  -11.8100  -39.8060 C.3    16  LYS16       0.0311
     25  CG       -10.7660  -13.1300  -40.5530 C.3    16  LYS16       0.0038
     26  CD       -10.0900  -13.0540  -41.9150 C.3    16  LYS16       0.0206
     27  CE       -10.7630  -12.0240  -42.8120 C.3    16  LYS16       0.1093
     28  NZ       -12.2020  -12.3400  -43.0560 N.3    16  LYS16      -0.1314
     29  N        -11.6590   -9.5010  -38.0080 N.am   17  ASN17      -0.1958
     30  CA       -11.4850   -8.1910  -37.3980 C.3    17  ASN17       0.1819
     31  C        -11.8490   -8.2020  -35.9190 C.2    17  ASN17       0.2621
     32  O        -11.1350   -7.6350  -35.0890 O.2    17  ASN17      -0.2715
     33  CB       -12.3220   -7.1410  -38.1290 C.3    17  ASN17       0.1195
     34  CG       -12.0160   -5.7280  -37.6630 C.2    17  ASN17       0.2630
     35  OD1      -12.8530   -5.0710  -37.0430 O.2    17  ASN17      -0.2716
     36  ND2      -10.8050   -5.2580  -37.9510 N.am   17  ASN17      -0.0877
     37  N        -12.9640   -8.8490  -35.5970 N.am   18  ALA18      -0.1977
     38  CA       -13.4450   -8.9080  -34.2200 C.3    18  ALA18       0.1597
     39  C        -12.4510   -9.6250  -33.3120 C.2    18  ALA18       0.2287
     40  O        -12.2150   -9.2030  -32.1790 O.2    18  ALA18      -0.2864
     41  CB       -14.8060   -9.5800  -34.1630 C.3    18  ALA18       0.0319
     42  N        -15.5160   -6.4080  -27.6030 N.3    28  PHE28      -0.1227
     43  CA       -16.2400   -6.8010  -28.8060 C.3    28  PHE28       0.1736
     44  C        -17.2550   -5.7310  -29.1910 C.2    28  PHE28       0.2595
     45  O        -18.0240   -5.2650  -28.3500 O.2    28  PHE28      -0.2718
     46  CB       -16.9490   -8.1370  -28.5630 C.3    28  PHE28       0.0547
     47  CG       -17.8020   -8.6020  -29.7150 C.ar   28  PHE28      -0.0202
     48  CD1      -17.2440   -9.3080  -30.7690 C.ar   28  PHE28      -0.0042
     49  CD2      -19.1660   -8.3540  -29.7290 C.ar   28  PHE28      -0.0042
     50  CE1      -18.0250   -9.7450  -31.8230 C.ar   28  PHE28      -0.0003
     51  CE2      -19.9540   -8.7880  -30.7800 C.ar   28  PHE28      -0.0003
     52  CZ       -19.3820   -9.4850  -31.8280 C.ar   28  PHE28      -0.0000
     53  N        -17.2560   -5.3410  -30.4620 N.am   29  VAL29      -0.1980
     54  CA       -18.2000   -4.3400  -30.9500 C.3    29  VAL29       0.1595
     55  C        -18.5630   -4.5850  -32.4100 C.2    29  VAL29       0.2287
     56  O        -17.9490   -5.4140  -33.0810 O.2    29  VAL29      -0.2864
     57  CB       -17.6410   -2.9130  -30.8020 C.3    29  VAL29       0.0276
     58  CG1      -18.4970   -1.9120  -31.6000 C.3    29  VAL29       0.0022
     59  CG2      -17.5790   -2.5200  -29.3320 C.3    29  VAL29       0.0022
     60  N        -14.3910  -19.7050  -35.2110 N.3    94  ASN94      -0.1225
     61  CA       -14.9100  -18.5460  -34.4870 C.3    94  ASN94       0.1785
     62  C        -16.4230  -18.5760  -34.2910 C.2    94  ASN94       0.2597
     63  O        -17.1230  -19.3910  -34.8930 O.2    94  ASN94      -0.2718
     64  CB       -14.4960  -17.2470  -35.1930 C.3    94  ASN94       0.1169
     65  CG       -14.7470  -16.0160  -34.3450 C.2    94  ASN94       0.2627
     66  OD1      -14.5480  -16.0340  -33.1330 O.2    94  ASN94      -0.2716
     67  ND2      -15.1850  -14.9380  -34.9820 N.am   94  ASN94      -0.0877
     68  N        -16.9130  -17.6780  -33.4410 N.am   95  LYS95      -0.1980
     69  CA       -18.3420  -17.5550  -33.1600 C.3    95  LYS95       0.1596
     70  C        -18.8810  -18.7860  -32.4440 C.2    95  LYS95       0.2287
     71  O        -20.0300  -19.1780  -32.6480 O.2    95  LYS95      -0.2864
     72  CB       -19.1340  -17.2990  -34.4440 C.3    95  LYS95       0.0298
     73  CG       -18.6410  -16.0920  -35.2350 C.3    95  LYS95       0.0038
     74  CD       -19.6370  -15.6790  -36.3100 C.3    95  LYS95       0.0206
     75  CE       -19.0780  -14.5490  -37.1640 C.3    95  LYS95       0.1093
     76  NZ       -20.0570  -14.0620  -38.1720 N.3    95  LYS95      -0.1314
     77  N        -19.8510  -19.0050  -29.6750 N.3    97  ASP97      -0.1225
     78  CA       -20.8920  -18.5990  -28.7390 C.3    97  ASP97       0.1805
     79  C        -22.2790  -18.7550  -29.3560 C.2    97  ASP97       0.2597
     80  O        -23.2880  -18.6520  -28.6610 O.2    97  ASP97      -0.2718
     81  CB       -20.6940  -17.1430  -28.3240 C.3    97  ASP97       0.1424
     82  CG       -20.7310  -16.2010  -29.5030 C.2    97  ASP97       0.3668
     83  OD1      -19.8040  -16.2640  -30.3330 O.co2  97  ASP97      -0.2456
     84  OD2      -21.6880  -15.4090  -29.6050 O.co2  97  ASP97      -0.2456
     85  N        -22.3230  -18.9910  -30.6640 N.am   98  LEU98      -0.1979
     86  CA       -23.5930  -19.1270  -31.3730 C.3    98  LEU98       0.1596
     87  C        -24.1140  -20.5610  -31.3450 C.2    98  LEU98       0.2287
     88  O        -23.3400  -21.5190  -31.4070 O.2    98  LEU98      -0.2864
     89  CB       -23.4630  -18.6380  -32.8190 C.3    98  LEU98       0.0297
     90  CG       -23.1770  -17.1450  -32.9840 C.3    98  LEU98       0.0022
     91  CD1      -23.0720  -16.7740  -34.4540 C.3    98  LEU98       0.0001
     92  CD2      -24.2480  -16.3170  -32.2920 C.3    98  LEU98       0.0001
     93  N        -14.3880  -17.0860  -29.5890 N.3   123  SER123     -0.1202
     94  CA       -15.5420  -16.2110  -29.6740 C.3   123  SER123      0.2020
     95  C        -15.0630  -14.7960  -29.4300 C.2   123  SER123      0.2619
     96  O        -14.7150  -14.4420  -28.3070 O.2   123  SER123     -0.2717
     97  CB       -16.6000  -16.5960  -28.6420 C.3   123  SER123      0.2103
     98  OG       -17.6810  -15.6820  -28.6600 O.3   123  SER123     -0.2182
     99  N        -15.0260  -13.9930  -30.4880 N.am  124  ALA124     -0.1965
    100  CA       -14.6270  -12.5990  -30.3710 C.3   124  ALA124      0.1728
    101  C        -15.5830  -11.8550  -29.4450 C.2   124  ALA124      0.2616
    102  O        -15.2430  -10.8100  -28.8950 O.2   124  ALA124     -0.2715
    103  CB       -14.5990  -11.9470  -31.7380 C.3   124  ALA124      0.0334
    104  N        -16.7770  -12.4120  -29.2710 N.am  125  LYS125     -0.1977
    105  CA       -17.8320  -11.7750  -28.4890 C.3   125  LYS125      0.1596
    106  C        -17.6380  -11.9770  -26.9910 C.2   125  LYS125      0.2287
    107  O        -17.6860  -11.0200  -26.2180 O.2   125  LYS125     -0.2864
    108  CB       -19.1980  -12.3240  -28.9100 C.3   125  LYS125      0.0298
    109  CG       -20.3780  -11.6960  -28.1980 C.3   125  LYS125      0.0038
    110  CD       -21.6050  -12.5810  -28.3170 C.3   125  LYS125      0.0206
    111  CE       -22.8770  -11.8360  -27.9490 C.3   125  LYS125      0.1093
    112  NZ       -23.2540  -10.8410  -28.9940 N.3   125  LYS125     -0.1314
@<TRIPOS>BOND
     1     1     2    1
     2     2     3    1
     3     4     3    2
     4     3     5   am
     5    28    27    1
     6     5     6    1
     7    27    26    1
     8     6     7    1
     9    26    25    1
    10    14    13    1
    11     9     7   am
    12     9    10    1
    13     7     8    2
    14    15    13    1
    15    25    24    1
    16    13    10    1
    17    10    11    1
    18    24    21    1
    19    11    16   am
    20    11    12    2
    21    16    17    1
    22    20    21    1
    23    20    18   am
    24    21    22    1
    25    76    75    1
    26    33    34    1
    27    33    30    1
    28    29    22   am
    29    29    30    1
    30    36    34   am
    31    22    23    2
    32    34    35    2
    33    17    18    1
    34    30    31    1
    35    18    19    2
    36    75    74    1
    37    74    73    1
    38    31    37   am
    39    31    32    2
    40    37    38    1
    41    73    72    1
    42    60    61    1
    43    64    61    1
    44    64    65    1
    45    67    65   am
    46    63    62    2
    47    61    62    1
    48    91    90    1
    49    72    69    1
    50    65    66    2
    51    62    68   am
    52    38    41    1
    53    38    39    1
    54    68    69    1
    55    39    40    2
    56    69    70    1
    57    56    55    2
    58    90    89    1
    59    90    92    1
    60    89    86    1
    61    71    70    2
    62    55    54    1
    63    52    50   ar
    64    52    51   ar
    65    50    48   ar
    66   103   100    1
    67    58    57    1
    68    88    87    2
    69    86    87    1
    70    86    85    1
    71    54    57    1
    72    54    53    1
    73    57    59    1
    74    51    49   ar
    75    48    47   ar
    76    85    79   am
    77    99   100    1
    78    99    95   am
    79    53    44   am
    80   100   101    1
    81    83    82   ar
    82    49    47   ar
    83    47    46    1
    84    77    78    1
    85    94    93    1
    86    94    95    1
    87    94    97    1
    88    84    82   ar
    89    82    81    1
    90   101   104   am
    91   101   102    2
    92    95    96    2
    93    79    78    1
    94    79    80    2
    95   104   105    1
    96    44    43    1
    97    44    45    2
    98   112   111    1
    99   108   105    1
   100   108   109    1
   101    43    46    1
   102    43    42    1
   103    78    81    1
   104    98    97    1
   105   105   106    1
   106   110   109    1
   107   110   111    1
   108   106   107    2
