@<TRIPOS>MOLECULE
tmp/3logA01.pdb
 115 115 0 0 0
SMALL
GASTEIGER

@<TRIPOS>ATOM
      1  N          4.4930    4.4350   18.0520 N.3    95  TRP95      -0.1241
      2  CA         4.5080    3.2390   18.8870 C.3    95  TRP95       0.1605
      3  C          5.8940    2.9910   19.3940 C.2    95  TRP95       0.2264
      4  O          6.9090    3.3270   18.7600 O.2    95  TRP95      -0.2867
      5  CB         3.9160    2.0340   18.1670 C.3    95  TRP95       0.0550
      6  CG         4.5980    1.6020   16.9460 C.ar   95  TRP95       0.0003
      7  CD1        4.2420    1.9270   15.6550 C.ar   95  TRP95       0.0946
      8  CD2        5.7040    0.6600   16.8270 C.ar   95  TRP95       0.0152
      9  NE1        5.0980    1.3130   14.7570 N.ar   95  TRP95      -0.2442
     10  CE2        5.9760    0.5090   15.4420 C.ar   95  TRP95       0.0810
     11  CE3        6.3990   -0.1340   17.7350 C.ar   95  TRP95       0.0012
     12  CZ2        6.9460   -0.3880   14.9690 C.ar   95  TRP95       0.0191
     13  CZ3        7.3950   -0.9880   17.2740 C.ar   95  TRP95       0.0001
     14  CH2        7.6830   -1.0840   15.9080 C.ar   95  TRP95       0.0015
     15  N         13.4310   -3.1720   15.8850 N.3   116  PRO116     -0.2116
     16  CA        12.7210   -1.9170   16.0990 C.3   116  PRO116      0.1372
     17  C         12.4460   -1.6650   17.5740 C.2   116  PRO116      0.2244
     18  O         11.9800   -2.5540   18.3190 O.2   116  PRO116     -0.2868
     19  CB        11.4400   -2.0560   15.2810 C.3   116  PRO116      0.0268
     20  CG        11.5840   -3.3390   14.5120 C.3   116  PRO116      0.0207
     21  CD        12.6250   -4.1530   15.1200 C.3   116  PRO116      0.0892
     22  N          2.7460   -1.6510    8.7770 N.3   230  ILE230     -0.1245
     23  CA         2.0700   -2.3230    9.8960 C.3   230  ILE230      0.1561
     24  C          0.6800   -1.7200    9.9420 C.2   230  ILE230      0.2260
     25  O          0.5330   -0.4680    9.9870 O.2   230  ILE230     -0.2867
     26  CB         2.8220   -2.0710   11.2430 C.3   230  ILE230      0.0252
     27  CG1        4.1860   -2.7570   11.2350 C.3   230  ILE230      0.0019
     28  CG2        1.9380   -2.5040   12.4310 C.3   230  ILE230      0.0019
     29  CD1        5.0730   -2.3030   12.3460 C.3   230  ILE230      0.0001
     30  N         10.7680  -11.1460   18.6430 N.3   367  PRO367     -0.2102
     31  CA        10.4070   -9.9830   19.4360 C.3   367  PRO367      0.1504
     32  C          8.9130   -9.8520   19.6150 C.2   367  PRO367      0.2576
     33  O          8.1100  -10.2950   18.7910 O.2   367  PRO367     -0.2718
     34  CB        10.9780   -8.7940   18.6390 C.3   367  PRO367      0.0282
     35  CG        11.0520   -9.2760   17.2560 C.3   367  PRO367      0.0208
     36  CD        11.2830  -10.7590   17.3120 C.3   367  PRO367      0.0893
     37  N          8.5340   -9.2330   20.7140 N.am  368  ARG368     -0.1966
     38  CA         7.1200   -8.9420   20.9330 C.3   368  ARG368      0.1729
     39  C          6.6760   -7.7850   20.0560 C.2   368  ARG368      0.2617
     40  O          5.5250   -7.7390   19.6230 O.2   368  ARG368     -0.2715
     41  CB         6.8690   -8.6100   22.3970 C.3   368  ARG368      0.0348
     42  CG         6.6770   -9.8130   23.2720 C.3   368  ARG368      0.0492
     43  CD         6.2270   -9.4340   24.6180 C.3   368  ARG368      0.2205
     44  NE         5.7600  -10.5570   25.4270 N.pl3 368  ARG368     -0.0865
     45  CZ         5.3680  -10.4370   26.6930 C.cat 368  ARG368      0.5346
     46  NH1        5.2630   -9.2250   27.2640 N.pl3 368  ARG368      0.1354
     47  NH2        5.0480  -11.5020   27.4020 N.pl3 368  ARG368      0.1354
     48  N          7.5870   -6.8390   19.8130 N.am  369  GLY369     -0.1940
     49  CA         7.2720   -5.6970   19.0050 C.3   369  GLY369      0.2014
     50  C          6.2140   -4.7910   19.6210 C.2   369  GLY369      0.2639
     51  O          6.3800   -4.3290   20.7300 O.2   369  GLY369     -0.2714
     52  N          5.1270   -4.5360   18.8940 N.am  370  LEU370     -0.1963
     53  CA         4.0760   -3.6620   19.4210 C.3   370  LEU370      0.1728
     54  C          3.4720   -4.2460   20.6880 C.2   370  LEU370      0.2616
     55  O          3.1460   -3.5140   21.5700 O.2   370  LEU370     -0.2715
     56  CB         2.9790   -3.3050   18.4000 C.3   370  LEU370      0.0311
     57  CG         3.2510   -2.1750   17.4030 C.3   370  LEU370      0.0022
     58  CD1        4.2750   -2.5610   16.2930 C.3   370  LEU370      0.0001
     59  CD2        1.9260   -1.8060   16.7150 C.3   370  LEU370      0.0001
     60  N          3.2610   -5.5520   20.7310 N.am  371  TYR371     -0.1974
     61  CA         2.5230   -6.1520   21.8640 C.3   371  TYR371      0.1639
     62  C          3.2630   -5.9430   23.1840 C.2   371  TYR371      0.2290
     63  O          4.4400   -6.3040   23.3170 O.2   371  TYR371     -0.2864
     64  CB         2.2950   -7.6430   21.6220 C.3   371  TYR371      0.0560
     65  CG         1.7080   -8.3390   22.8110 C.ar  371  TYR371     -0.0198
     66  CD1        0.3520   -8.2330   23.1130 C.ar  371  TYR371     -0.0009
     67  CD2        2.4810   -9.1210   23.6450 C.ar  371  TYR371     -0.0009
     68  CE1       -0.1760   -8.8340   24.2320 C.ar  371  TYR371      0.0417
     69  CE2        1.9230   -9.8010   24.7040 C.ar  371  TYR371      0.0417
     70  CZ         0.6100   -9.6340   25.0160 C.ar  371  TYR371      0.1957
     71  OH         0.1050  -10.2800   26.1180 O.3   371  TYR371     -0.2866
     72  N         -2.9940   -7.1280   14.7200 N.3   394  TYR394     -0.1241
     73  CA        -1.9000   -6.6740   13.8800 C.3   394  TYR394      0.1605
     74  C         -1.9120   -7.3030   12.4990 C.2   394  TYR394      0.2264
     75  O         -2.3270   -8.4250   12.3590 O.2   394  TYR394     -0.2867
     76  CB        -0.5530   -6.9610   14.5210 C.3   394  TYR394      0.0534
     77  CG        -0.5420   -6.8370   16.0280 C.ar  394  TYR394     -0.0201
     78  CD1       -0.2550   -5.6390   16.6350 C.ar  394  TYR394     -0.0009
     79  CD2       -0.8370   -7.9170   16.8290 C.ar  394  TYR394     -0.0009
     80  CE1       -0.2740   -5.5000   18.0070 C.ar  394  TYR394      0.0417
     81  CE2       -0.8950   -7.7970   18.2060 C.ar  394  TYR394      0.0417
     82  CZ        -0.6060   -6.5690   18.7940 C.ar  394  TYR394      0.1957
     83  OH        -0.6450   -6.4440   20.1570 O.3   394  TYR394     -0.2866
     84  N          1.0920   -7.5210    9.3500 N.3   396  VAL396     -0.1245
     85  CA         2.3820   -7.1760    8.7580 C.3   396  VAL396      0.1561
     86  C          2.6480   -8.2260    7.6590 C.2   396  VAL396      0.2260
     87  O          2.5540   -9.4220    7.9240 O.2   396  VAL396     -0.2867
     88  CB         3.4970   -7.1900    9.8030 C.3   396  VAL396      0.0252
     89  CG1        4.8280   -6.7220    9.1750 C.3   396  VAL396      0.0019
     90  CG2        3.0990   -6.3360   11.0430 C.3   396  VAL396      0.0019
     91  N         -2.8500  -11.2760   12.9040 N.3   401  TRP401     -0.1241
     92  CA        -2.8530  -11.9940   14.1600 C.3   401  TRP401      0.1605
     93  C         -3.2630  -11.1740   15.3520 C.2   401  TRP401      0.2264
     94  O         -3.3120   -9.9220   15.2930 O.2   401  TRP401     -0.2867
     95  CB        -1.4980  -12.6760   14.4600 C.3   401  TRP401      0.0550
     96  CG        -0.4010  -11.8030   14.9490 C.ar  401  TRP401      0.0003
     97  CD1        0.0520  -11.7400   16.2180 C.ar  401  TRP401      0.0946
     98  CD2        0.4250  -10.9030   14.1750 C.ar  401  TRP401      0.0152
     99  NE1        1.1450  -10.8830   16.2870 N.ar  401  TRP401     -0.2442
    100  CE2        1.3970  -10.3740   15.0470 C.ar  401  TRP401      0.0810
    101  CE3        0.4830  -10.5480   12.8180 C.ar  401  TRP401      0.0012
    102  CZ2        2.3960   -9.4820   14.6170 C.ar  401  TRP401      0.0191
    103  CZ3        1.4490   -9.6010   12.4070 C.ar  401  TRP401      0.0001
    104  CH2        2.4100   -9.1380   13.2940 C.ar  401  TRP401      0.0015
    105  N         -2.9460  -11.3560   19.8410 N.3   403  ARG403     -0.1245
    106  CA        -2.0270  -11.8050   20.8640 C.3   403  ARG403      0.1563
    107  C         -2.5290  -11.4750   22.2480 C.2   403  ARG403      0.2260
    108  O         -2.9280  -10.3470   22.5280 O.2   403  ARG403     -0.2867
    109  CB        -0.6360  -11.2320   20.6460 C.3   403  ARG403      0.0307
    110  CG         0.4350  -11.8230   21.5260 C.3   403  ARG403      0.0489
    111  CD         1.8330  -11.4170   21.0570 C.3   403  ARG403      0.2205
    112  NE         2.8770  -12.0770   21.7930 N.pl3 403  ARG403     -0.0865
    113  CZ         4.1180  -12.2860   21.3510 C.cat 403  ARG403      0.5346
    114  NH1        4.5360  -11.7730   20.2130 N.pl3 403  ARG403      0.1354
    115  NH2        4.9760  -12.9030   22.1470 N.pl3 403  ARG403      0.1354
@<TRIPOS>BOND
     1    86    87    2
     2    86    85    1
     3    85    84    1
     4    85    88    1
     5    22    23    1
     6    89    88    1
     7    88    90    1
     8    23    24    1
     9    23    26    1
    10    24    25    2
    11    27    26    1
    12    27    29    1
    13    26    28    1
    14    75    74    2
    15   103   101   ar
    16   103   104   ar
    17    74    73    1
    18   101    98   ar
    19    91    92    1
    20   104   102   ar
    21    73    76    1
    22    73    72    1
    23    92    95    1
    24    92    93    1
    25    98    96   ar
    26    98   100   ar
    27    95    96    1
    28    20    21    1
    29    20    19    1
    30    76    77    1
    31   102   100   ar
    32     9    10   ar
    33     9     7   ar
    34    96    97   ar
    35    12    10   ar
    36    12    14   ar
    37   100    99   ar
    38    21    15    1
    39    19    16    1
    40    94    93    2
    41    10     8   ar
    42     7     6   ar
    43    15    16    1
    44    14    13   ar
    45    77    78   ar
    46    77    79   ar
    47    16    17    1
    48    97    99   ar
    49    58    57    1
    50    78    80   ar
    51    59    57    1
    52     8     6   ar
    53     8    11   ar
    54    79    81   ar
    55     6     5    1
    56    35    36    1
    57    35    34    1
    58    13    11   ar
    59    36    30    1
    60    57    56    1
    61    17    18    2
    62    80    82   ar
    63     1     2    1
    64     5     2    1
    65    81    82   ar
    66    56    53    1
    67    34    31    1
    68    30    31    1
    69     4     3    2
    70    33    32    2
    71    82    83    1
    72     2     3    1
    73    52    53    1
    74    52    50   am
    75    49    50    1
    76    49    48    1
    77    53    54    1
    78    31    32    1
    79    32    37   am
    80    50    51    2
    81    40    39    2
    82    48    39   am
    83   105   106    1
    84    39    38    1
    85   114   113    1
    86   109   106    1
    87   109   110    1
    88    54    60   am
    89    54    55    2
    90    37    38    1
    91    60    61    1
    92   106   107    1
    93    38    41    1
    94   111   110    1
    95   111   112    1
    96   113   112    2
    97   113   115    1
    98    64    61    1
    99    64    65    1
   100    61    62    1
   101   107   108    2
   102    41    42    1
   103    65    66   ar
   104    65    67   ar
   105    66    68   ar
   106    62    63    2
   107    42    43    1
   108    67    69   ar
   109    68    70   ar
   110    43    44    1
   111    69    70   ar
   112    70    71    1
   113    44    45    2
   114    45    46    1
   115    45    47    1
