@<TRIPOS>MOLECULE
tmp/3logA00.pdb
 123 115 0 0 0
SMALL
GASTEIGER

@<TRIPOS>ATOM
      1  N          4.6510  -12.6630   32.7200 N.3   193  ILE193     -0.1245
      2  CA         3.5060  -12.6610   31.8090 C.3   193  ILE193      0.1561
      3  C          3.9570  -13.3460   30.5280 C.2   193  ILE193      0.2260
      4  O          4.8890  -12.8710   29.8580 O.2   193  ILE193     -0.2867
      5  CB         2.9440  -11.2160   31.5290 C.3   193  ILE193      0.0252
      6  CG1        2.0950  -10.7220   32.7000 C.3   193  ILE193      0.0019
      7  CG2        2.1130  -11.2750   30.2420 C.3   193  ILE193      0.0019
      8  CD1        2.8530  -10.4410   33.9790 C.3   193  ILE193      0.0001
      9  N         -5.1270    0.0830   29.9080 N.3   238  GLU238     -0.1245
     10  CA        -4.4440    0.8200   30.9750 C.3   238  GLU238      0.1567
     11  C         -3.3380    1.6760   30.3910 C.2   238  GLU238      0.2260
     12  O         -2.7870    1.3700   29.3280 O.2   238  GLU238     -0.2867
     13  CB        -3.8580   -0.1350   32.0230 C.3   238  GLU238      0.0388
     14  CG        -2.7050   -1.0050   31.4850 C.3   238  GLU238      0.1160
     15  CD        -2.5450   -2.3450   32.2120 C.2   238  GLU238      0.3649
     16  OE1       -3.1960   -3.3610   31.8120 O.co2 238  GLU238     -0.2457
     17  OE2       -1.6900   -2.3640   33.1300 O.co2 238  GLU238     -0.2457
     18  N         -2.7690   -2.9640   36.2060 N.3   254  LEU254     -0.1245
     19  CA        -3.9170   -3.8840   36.3270 C.3   254  LEU254      0.1561
     20  C         -3.4100   -5.3030   36.5370 C.2   254  LEU254      0.2260
     21  O         -2.4870   -5.7520   35.8610 O.2   254  LEU254     -0.2867
     22  CB        -4.7820   -3.8110   35.0680 C.3   254  LEU254      0.0270
     23  CG        -5.9070   -2.7740   35.0500 C.3   254  LEU254      0.0019
     24  CD1       -5.4840   -1.3560   35.4180 C.3   254  LEU254      0.0001
     25  CD2       -6.4530   -2.8290   33.6310 C.3   254  LEU254      0.0001
     26  N         -7.8000  -10.8300   36.9780 N.3   257  THR257     -0.1218
     27  CA        -8.7520  -10.8350   35.8730 C.3   257  THR257      0.1862
     28  C         -9.8640  -11.8560   36.0910 C.2   257  THR257      0.2287
     29  O         -9.5920  -12.9790   36.5130 O.2   257  THR257     -0.2866
     30  CB        -8.0110  -11.1970   34.5550 C.3   257  THR257      0.1770
     31  OG1       -7.0230  -10.1600   34.2710 O.3   257  THR257     -0.2211
     32  CG2       -8.9840  -11.3990   33.3910 C.3   257  THR257      0.0375
     33  N        -10.7960   -6.3080   35.6360 N.3   320  HIS320     -0.1241
     34  CA        -9.5210   -6.4230   36.3080 C.3   320  HIS320      0.1621
     35  C         -9.5310   -5.6610   37.6400 C.2   320  HIS320      0.2264
     36  O        -10.2050   -4.6360   37.7400 O.2   320  HIS320     -0.2867
     37  CB        -8.4140   -5.7820   35.4470 C.3   320  HIS320      0.0745
     38  CG        -8.3410   -6.3010   34.0400 C.ar  320  HIS320      0.0817
     39  ND1       -7.8980   -7.5740   33.7270 N.ar  320  HIS320     -0.2268
     40  CD2       -8.5690   -5.6760   32.8610 C.ar  320  HIS320      0.1154
     41  CE1       -7.9210   -7.7240   32.4090 C.ar  320  HIS320      0.1986
     42  NE2       -8.3130   -6.5800   31.8650 N.ar  320  HIS320     -0.2212
     43  N          2.9320   -5.0430   34.8380 N.3   347  THR347     -0.1203
     44  CA         1.8220   -5.9670   34.7730 C.3   347  THR347      0.1994
     45  C          1.7220   -6.6910   33.3990 C.2   347  THR347      0.2617
     46  O          0.8900   -7.5810   33.2360 O.2   347  THR347     -0.2717
     47  CB         0.4880   -5.3240   35.2850 C.3   347  THR347      0.1784
     48  OG1        0.2180   -4.1390   34.5320 O.3   347  THR347     -0.2211
     49  CG2        0.5930   -4.9630   36.8720 C.3   347  THR347      0.0376
     50  N          2.6060   -6.3580   32.4650 N.am  348  ALA348     -0.1979
     51  CA         2.7580   -7.0730   31.2070 C.3   348  ALA348      0.1597
     52  C          4.1380   -7.7300   31.0270 C.2   348  ALA348      0.2287
     53  O          4.4620   -8.2180   29.9500 O.2   348  ALA348     -0.2864
     54  CB         2.4230   -6.1350   30.0270 C.3   348  ALA348      0.0319
     55  N          3.2610   -5.5520   20.7310 N.3   371  TYR371     -0.1241
     56  CA         2.5230   -6.1520   21.8640 C.3   371  TYR371      0.1605
     57  C          3.2630   -5.9430   23.1840 C.2   371  TYR371      0.2264
     58  O          4.4400   -6.3040   23.3170 O.2   371  TYR371     -0.2867
     59  CB         2.2950   -7.6430   21.6220 C.3   371  TYR371      0.0534
     60  CG         1.7080   -8.3390   22.8110 C.ar  371  TYR371     -0.0201
     61  CD1        0.3520   -8.2330   23.1130 C.ar  371  TYR371     -0.0009
     62  CD2        2.4810   -9.1210   23.6450 C.ar  371  TYR371     -0.0009
     63  CE1       -0.1760   -8.8340   24.2320 C.ar  371  TYR371      0.0417
     64  CE2        1.9230   -9.8010   24.7040 C.ar  371  TYR371      0.0417
     65  CZ         0.6100   -9.6340   25.0160 C.ar  371  TYR371      0.1957
     66  OH         0.1050  -10.2800   26.1180 O.3   371  TYR371     -0.2866
     67  N         -2.2240   -3.8610   24.4810 N.3   390  LEU390     -0.1231
     68  CA        -2.7630   -5.1590   24.7640 C.3   390  LEU390      0.1693
     69  C         -4.1310   -5.0560   24.0800 C.2   390  LEU390      0.2591
     70  O         -4.6090   -3.9500   23.7570 O.2   390  LEU390     -0.2718
     71  CB        -2.9280   -5.4280   26.2730 C.3   390  LEU390      0.0284
     72  CG        -1.6590   -5.2590   27.1100 C.3   390  LEU390      0.0019
     73  CD1       -2.0870   -5.2260   28.5850 C.3   390  LEU390      0.0001
     74  CD2       -0.6310   -6.3610   26.7940 C.3   390  LEU390      0.0001
     75  N         -4.7370   -6.2040   23.8900 N.am  391  ARG391     -0.1980
     76  CA        -6.0780   -6.2770   23.3120 C.3   391  ARG391      0.1597
     77  C         -6.0920   -5.6420   21.9280 C.2   391  ARG391      0.2287
     78  O         -6.9690   -4.8130   21.6050 O.2   391  ARG391     -0.2864
     79  CB        -7.1260   -5.6260   24.2400 C.3   391  ARG391      0.0334
     80  CG        -6.8690   -5.8340   25.7630 C.3   391  ARG391      0.0492
     81  CD        -7.0170   -7.2860   26.2430 C.3   391  ARG391      0.2205
     82  NE        -6.2370   -7.5240   27.4640 N.pl3 391  ARG391     -0.0865
     83  CZ        -6.5860   -7.1410   28.6930 C.cat 391  ARG391      0.5346
     84  NH1       -7.7370   -6.4830   28.9140 N.pl3 391  ARG391      0.1354
     85  NH2       -5.7550   -7.3840   29.7180 N.pl3 391  ARG391      0.1354
     86  N         -2.9460  -11.3560   19.8410 N.3   403  ARG403     -0.1231
     87  CA        -2.0270  -11.8050   20.8640 C.3   403  ARG403      0.1694
     88  C         -2.5290  -11.4750   22.2480 C.2   403  ARG403      0.2592
     89  O         -2.9280  -10.3470   22.5280 O.2   403  ARG403     -0.2718
     90  CB        -0.6360  -11.2320   20.6460 C.3   403  ARG403      0.0321
     91  CG         0.4350  -11.8230   21.5260 C.3   403  ARG403      0.0489
     92  CD         1.8330  -11.4170   21.0570 C.3   403  ARG403      0.2205
     93  NE         2.8770  -12.0770   21.7930 N.pl3 403  ARG403     -0.0865
     94  CZ         4.1180  -12.2860   21.3510 C.cat 403  ARG403      0.5346
     95  NH1        4.5360  -11.7730   20.2130 N.pl3 403  ARG403      0.1354
     96  NH2        4.9760  -12.9030   22.1470 N.pl3 403  ARG403      0.1354
     97  N         -2.5120  -12.4620   23.1320 N.am  404  ALA404     -0.1966
     98  CA        -2.9200  -12.2400   24.4860 C.3   404  ALA404      0.1728
     99  C         -2.1180  -13.0990   25.4600 C.2   404  ALA404      0.2617
    100  O         -1.5940  -14.1670   25.0930 O.2   404  ALA404     -0.2715
    101  CB        -4.4790  -12.4670   24.6550 C.3   404  ALA404      0.0334
    102  N         -2.0700  -12.6620   26.7010 N.am  405  GLY405     -0.1940
    103  CA        -1.1960  -13.2770   27.7180 C.3   405  GLY405      0.2014
    104  C         -1.8350  -13.2900   29.0940 C.2   405  GLY405      0.2639
    105  O         -2.9740  -12.8520   29.3050 O.2   405  GLY405     -0.2714
    106  N         -1.0830  -13.7850   30.0470 N.am  406  ALA406     -0.1963
    107  CA        -1.5860  -14.0090   31.3760 C.3   406  ALA406      0.1728
    108  C         -0.3960  -14.0100   32.3210 C.2   406  ALA406      0.2616
    109  O          0.6830  -14.4810   31.9470 O.2   406  ALA406     -0.2715
    110  CB        -2.3160  -15.3890   31.4940 C.3   406  ALA406      0.0334
    111  N         -0.6300  -13.5000   33.5240 N.am  407  GLY407     -0.1955
    112  CA         0.3480  -13.4280   34.6010 C.3   407  GLY407      0.1869
    113  C          0.4840  -14.7670   35.2930 C.2   407  GLY407      0.2309
    114  O         -0.4940  -15.2660   35.8950 O.2   407  GLY407     -0.2863
    115  N         -9.3800  -12.6730   27.2860 N.3   424  LYS424     -0.1245
    116  CA        -8.8030  -11.4570   26.7650 C.3   424  LYS424      0.1561
    117  C         -8.9230  -11.3420   25.2300 C.2   424  LYS424      0.2260
    118  O         -9.1650  -10.2450   24.7080 O.2   424  LYS424     -0.2867
    119  CB        -7.3520  -11.3430   27.2340 C.3   424  LYS424      0.0271
    120  CG        -7.2840  -11.1120   28.7670 C.3   424  LYS424      0.0035
    121  CD        -5.8300  -11.2320   29.2160 C.3   424  LYS424      0.0206
    122  CE        -5.7240  -10.8860   30.6510 C.3   424  LYS424      0.1093
    123  NZ        -4.4090  -11.3780   31.2120 N.3   424  LYS424     -0.1314
@<TRIPOS>BOND
     1    86    87    1
     2    95    94    1
     3    90    87    1
     4    90    91    1
     5    55    56    1
     6    87    88    1
     7    92    91    1
     8    92    93    1
     9    94    93    2
    10    94    96    1
    11    78    77    2
    12    59    56    1
    13    59    60    1
    14    56    57    1
    15    77    76    1
    16    88    89    2
    17    88    97   am
    18    60    61   ar
    19    60    62   ar
    20    61    63   ar
    21    97    98    1
    22    57    58    2
    23    76    75    1
    24    76    79    1
    25    62    64   ar
    26    70    69    2
    27    75    69   am
    28    69    68    1
    29    63    65   ar
    30    79    80    1
    31    67    68    1
    32    98   101    1
    33    98    99    1
    34    64    65   ar
    35   118   117    2
    36    68    71    1
    37    65    66    1
    38   100    99    2
    39   117   116    1
    40    99   102   am
    41    80    81    1
    42    81    82    1
    43    71    72    1
    44   102   103    1
    45   116   119    1
    46   116   115    1
    47    74    72    1
    48    72    73    1
    49   119   120    1
    50    82    83    2
    51   103   104    1
    52    83    84    1
    53    83    85    1
    54   120   121    1
    55   104   105    2
    56   104   106   am
    57   121   122    1
    58    12    11    2
    59     4     3    2
    60     9    10    1
    61    53    52    2
    62    54    51    1
    63   106   107    1
    64     7     5    1
    65    11    10    1
    66     3     2    1
    67   122   123    1
    68    10    13    1
    69    52    51    1
    70    51    50    1
    71   107   110    1
    72   107   108    1
    73    14    13    1
    74    14    15    1
    75     5     2    1
    76     5     6    1
    77     2     1    1
    78    16    15   ar
    79    42    41   ar
    80    42    40   ar
    81   109   108    2
    82    15    17   ar
    83   108   111   am
    84    41    39   ar
    85    50    45   am
    86     6     8    1
    87    40    38   ar
    88    46    45    2
    89    32    30    1
    90    45    44    1
    91   111   112    1
    92    25    23    1
    93    39    38   ar
    94    38    37    1
    95    31    30    1
    96    48    47    1
    97    30    27    1
    98   112   113    1
    99    44    43    1
   100    44    47    1
   101    23    22    1
   102    23    24    1
   103    22    19    1
   104    47    49    1
   105   113   114    2
   106    37    34    1
   107    33    34    1
   108    21    20    2
   109    27    28    1
   110    27    26    1
   111    28    29    2
   112    18    19    1
   113    34    35    1
   114    19    20    1
   115    35    36    2
