@<TRIPOS>MOLECULE
tmp/3lokB00.pdb
 140 131 0 0 0
SMALL
GASTEIGER

@<TRIPOS>ATOM
      1  N          3.3320  -45.6710   32.6600 N.3    16  LEU16      -0.1231
      2  CA         3.2760  -44.9650   31.3510 C.3    16  LEU16       0.1693
      3  C          4.4180  -45.2110   30.3210 C.2    16  LEU16       0.2592
      4  O          4.1560  -45.3260   29.1150 O.2    16  LEU16      -0.2718
      5  CB         3.0890  -43.4500   31.5500 C.3    16  LEU16       0.0284
      6  CG         1.8930  -42.8420   32.2870 C.3    16  LEU16       0.0019
      7  CD1        2.1040  -41.3430   32.3900 C.3    16  LEU16       0.0001
      8  CD2        0.5500  -43.1520   31.6080 C.3    16  LEU16       0.0001
      9  N          5.6720  -45.2220   30.7560 N.am   17  GLY17      -0.1957
     10  CA         6.0480  -44.9630   32.1340 C.3    17  GLY17       0.1869
     11  C          7.2190  -45.8170   32.5390 C.2    17  GLY17       0.2309
     12  O          7.4250  -46.0910   33.7300 O.2    17  GLY17      -0.2863
     13  N          7.4580  -43.6090   35.4000 N.3    22  VAL22      -0.1245
     14  CA         6.6540  -42.4110   35.1910 C.3    22  VAL22       0.1561
     15  C          5.1640  -42.7310   35.2480 C.2    22  VAL22       0.2260
     16  O          4.6190  -43.4370   34.4130 O.2    22  VAL22      -0.2867
     17  CB         6.9750  -41.7440   33.8410 C.3    22  VAL22       0.0252
     18  CG1        6.0550  -40.5570   33.6020 C.3    22  VAL22       0.0019
     19  CG2        8.4330  -41.3150   33.7920 C.3    22  VAL22       0.0019
     20  N          1.6880  -35.8850   37.1980 N.3    34  ALA34      -0.1245
     21  CA         2.6200  -36.8560   36.6510 C.3    34  ALA34       0.1562
     22  C          3.7470  -37.0130   37.6380 C.2    34  ALA34       0.2260
     23  O          4.2600  -36.0280   38.1550 O.2    34  ALA34      -0.2867
     24  CB         3.1570  -36.3910   35.3140 C.3    34  ALA34       0.0290
     25  N          7.4870  -38.7760   38.5260 N.3    36  LYS36      -0.1245
     26  CA         8.7030  -39.3820   38.0070 C.3    36  LYS36       0.1561
     27  C          9.4460  -39.9260   39.2080 C.2    36  LYS36       0.2260
     28  O          9.5240  -39.2410   40.2280 O.2    36  LYS36      -0.2867
     29  CB         9.5360  -38.3280   37.2700 C.3    36  LYS36       0.0271
     30  CG        10.7160  -38.8540   36.4370 C.3    36  LYS36       0.0035
     31  CD        11.0170  -37.8980   35.2830 C.3    36  LYS36       0.0206
     32  CE        12.4840  -37.9240   34.8790 C.3    36  LYS36       0.1093
     33  NZ        12.7220  -37.0750   33.6550 N.3    36  LYS36      -0.1314
     34  N          7.0090  -27.4400   31.4860 N.3    49  VAL49      -0.1245
     35  CA         6.1000  -28.2020   32.3280 C.3    49  VAL49       0.1561
     36  C          6.5240  -27.9900   33.7680 C.2    49  VAL49       0.2260
     37  O          7.6800  -28.1400   34.0940 O.2    49  VAL49      -0.2867
     38  CB         5.8910  -29.6810   31.8610 C.3    49  VAL49       0.0252
     39  CG1        6.9310  -30.1030   30.8700 C.3    49  VAL49       0.0019
     40  CG2        5.8190  -30.6340   33.0400 C.3    49  VAL49       0.0019
     41  N          4.8750  -33.4340   39.0140 N.3    64  MET64      -0.1230
     42  CA         4.7760  -32.3890   38.0230 C.3    64  MET64       0.1702
     43  C          3.4320  -32.2830   37.3580 C.2    64  MET64       0.2592
     44  O          2.5880  -33.1710   37.4490 O.2    64  MET64      -0.2718
     45  CB         5.8090  -32.5830   36.9400 C.3    64  MET64       0.0401
     46  CG         7.2010  -32.5870   37.4580 C.3    64  MET64       0.0596
     47  SD         8.3180  -32.9220   36.1070 S.3    64  MET64      -0.1393
     48  CE         8.8630  -31.2320   35.7450 C.3    64  MET64       0.0692
     49  N          3.2700  -31.1560   36.6860 N.am   65  GLU65      -0.1966
     50  CA         2.2010  -30.8790   35.7810 C.3    65  GLU65       0.1733
     51  C          1.9110  -32.0960   34.9130 C.2    65  GLU65       0.2616
     52  O          2.8330  -32.6500   34.2870 O.2    65  GLU65      -0.2715
     53  CB         2.6680  -29.7200   34.9060 C.3    65  GLU65       0.0429
     54  CG         1.7260  -29.2750   33.8370 C.3    65  GLU65       0.1163
     55  CD         2.0040  -27.8830   33.4090 C.2    65  GLU65       0.3649
     56  OE1        2.8660  -27.2280   34.0170 O.co2  65  GLU65      -0.2457
     57  OE2        1.3570  -27.4240   32.4750 O.co2  65  GLU65      -0.2457
     58  N          0.6370  -32.5000   34.8600 N.am   66  TYR66      -0.1960
     59  CA         0.2230  -33.6220   34.0150 C.3    66  TYR66       0.1771
     60  C         -0.1280  -33.2150   32.5900 C.2    66  TYR66       0.2619
     61  O         -1.0820  -32.4530   32.3390 O.2    66  TYR66      -0.2715
     62  CB        -0.9720  -34.3290   34.6230 C.3    66  TYR66       0.0574
     63  CG        -1.4180  -35.5360   33.8410 C.ar   66  TYR66      -0.0198
     64  CD1       -0.5740  -36.6160   33.6700 C.ar   66  TYR66      -0.0009
     65  CD2       -2.6880  -35.6000   33.2830 C.ar   66  TYR66      -0.0009
     66  CE1       -0.9720  -37.7240   32.9460 C.ar   66  TYR66       0.0417
     67  CE2       -3.1080  -36.7160   32.5810 C.ar   66  TYR66       0.0417
     68  CZ        -2.2420  -37.7740   32.4100 C.ar   66  TYR66       0.1957
     69  OH        -2.6210  -38.9140   31.7050 O.3    66  TYR66      -0.2866
     70  N          0.6130  -33.7470   31.6360 N.am   67  MET67      -0.1977
     71  CA         0.3050  -33.4430   30.2610 C.3    67  MET67       0.1605
     72  C         -0.4530  -34.6000   29.6820 C.2    67  MET67       0.2287
     73  O          0.1010  -35.7070   29.5110 O.2    67  MET67      -0.2864
     74  CB         1.5660  -33.1360   29.4900 C.3    67  MET67       0.0413
     75  CG         2.3980  -32.1000   30.1870 C.3    67  MET67       0.0598
     76  SD         1.5890  -30.5210   30.2080 S.3    67  MET67      -0.1393
     77  CE         2.0240  -29.8830   28.5880 C.3    67  MET67       0.0692
     78  N          0.4980  -37.0430   26.4510 N.3    70  GLY70      -0.1210
     79  CA         1.7520  -37.7590   26.2210 C.3    70  GLY70       0.1956
     80  C          2.7520  -36.9170   25.4840 C.2    70  GLY70       0.2612
     81  O          2.5550  -35.6960   25.3910 O.2    70  GLY70      -0.2717
     82  N          3.7910  -37.5570   24.9660 N.am   71  CYS71      -0.1970
     83  CA         4.8940  -36.8880   24.2830 C.3    71  CYS71       0.1712
     84  C          4.4690  -36.5980   22.8770 C.2    71  CYS71       0.2296
     85  O          3.6270  -37.3190   22.3000 O.2    71  CYS71      -0.2864
     86  CB         6.2260  -37.6550   24.2040 C.3    71  CYS71       0.0983
     87  SG         6.0930  -39.2460   23.4210 S.3    71  CYS71      -0.0798
     88  N          6.1510  -36.7550   20.1160 N.3    73  LEU73      -0.1231
     89  CA         6.4820  -37.8370   19.1840 C.3    73  LEU73       0.1693
     90  C          5.3170  -38.8360   19.0370 C.2    73  LEU73       0.2592
     91  O          4.8330  -39.0940   17.9220 O.2    73  LEU73      -0.2718
     92  CB         7.7710  -38.5200   19.6150 C.3    73  LEU73       0.0284
     93  CG         8.2790  -39.6840   18.7810 C.3    73  LEU73       0.0019
     94  CD1        8.5070  -39.3590   17.3030 C.3    73  LEU73       0.0001
     95  CD2        9.5500  -40.1810   19.3980 C.3    73  LEU73       0.0001
     96  N          4.8360  -39.3930   20.1460 N.am   74  ASP74      -0.1974
     97  CA         3.6710  -40.2860   20.0430 C.3    74  ASP74       0.1709
     98  C          2.4540  -39.6020   19.4700 C.2    74  ASP74       0.2293
     99  O          1.7380  -40.1830   18.6600 O.2    74  ASP74      -0.2864
    100  CB         3.3610  -40.9420   21.3790 C.3    74  ASP74       0.1436
    101  CG         4.5080  -41.8050   21.8400 C.2    74  ASP74       0.3671
    102  OD1        5.3780  -42.1060   20.9870 O.co2  74  ASP74      -0.2456
    103  OD2        4.5860  -42.1620   23.0310 O.co2  74  ASP74      -0.2456
    104  N         10.3310  -36.1760   21.1820 N.3   116  ALA116     -0.1245
    105  CA        10.2270  -37.1650   22.2460 C.3   116  ALA116      0.1562
    106  C         10.2350  -36.5110   23.6160 C.2   116  ALA116      0.2260
    107  O          9.7720  -37.0950   24.5840 O.2   116  ALA116     -0.2867
    108  CB        11.3760  -38.2540   22.1400 C.3   116  ALA116      0.0290
    109  N          6.0330  -32.4700   25.7200 N.3   119  LEU119     -0.1245
    110  CA         4.7160  -32.9470   26.1670 C.3   119  LEU119      0.1561
    111  C          3.5520  -32.0630   25.6270 C.2   119  LEU119      0.2260
    112  O          3.7220  -30.8810   25.3410 O.2   119  LEU119     -0.2867
    113  CB         4.6720  -33.1250   27.6930 C.3   119  LEU119      0.0270
    114  CG         5.8820  -33.9150   28.1740 C.3   119  LEU119      0.0019
    115  CD1        6.0040  -34.0700   29.7030 C.3   119  LEU119      0.0001
    116  CD2        5.9200  -35.2920   27.4870 C.3   119  LEU119      0.0001
    117  N          9.1170  -29.9110   29.1360 N.3   129  ALA129     -0.1231
    118  CA        10.4240  -30.5530   29.2260 C.3   129  ALA129      0.1694
    119  C         10.2910  -32.0710   29.2560 C.2   129  ALA129      0.2592
    120  O          9.2090  -32.6050   29.4990 O.2   129  ALA129     -0.2718
    121  CB        11.1740  -30.0590   30.4540 C.3   129  ALA129      0.0304
    122  N         11.4110  -32.7640   29.0420 N.am  130  ASP130     -0.1960
    123  CA        12.3590  -33.0540   30.1170 C.3   130  ASP130      0.1840
    124  C         13.7960  -32.7530   29.8370 C.2   130  ASP130      0.2622
    125  O         14.2960  -33.0710   28.7970 O.2   130  ASP130     -0.2715
    126  CB        12.2150  -34.4490   30.7230 C.3   130  ASP130      0.1450
    127  CG        11.8490  -35.5080   29.7200 C.2   130  ASP130      0.3671
    128  OD1       12.3050  -36.6400   29.8780 O.co2 130  ASP130     -0.2456
    129  OD2       11.0790  -35.2490   28.8050 O.co2 130  ASP130     -0.2456
    130  N         14.4720  -32.1900   30.8200 N.am  131  PHE131     -0.1974
    131  CA        14.3720  -30.8080   31.1480 C.3   131  PHE131      0.1639
    132  C         15.7750  -30.3050   31.2280 C.2   131  PHE131      0.2290
    133  O         16.0730  -29.2120   30.7940 O.2   131  PHE131     -0.2864
    134  CB        13.7390  -30.6520   32.5160 C.3   131  PHE131      0.0560
    135  CG        13.0280  -31.8590   33.0170 C.ar  131  PHE131     -0.0200
    136  CD1       11.7240  -32.0810   32.7030 C.ar  131  PHE131     -0.0042
    137  CD2       13.6340  -32.7370   33.8610 C.ar  131  PHE131     -0.0042
    138  CE1       11.0820  -33.1560   33.1690 C.ar  131  PHE131     -0.0003
    139  CE2       12.9560  -33.8170   34.3390 C.ar  131  PHE131     -0.0003
    140  CZ        11.6960  -34.0170   33.9840 C.ar  131  PHE131     -0.0000
@<TRIPOS>BOND
     1    94    93    1
     2    91    90    2
     3    99    98    2
     4    93    95    1
     5    93    92    1
     6    90    89    1
     7    90    96   am
     8    89    92    1
     9    89    88    1
    10    98    97    1
    11    97    96    1
    12    97   100    1
    13   102   101   ar
    14   104   105    1
    15   100   101    1
    16   101   103   ar
    17   108   105    1
    18   105   106    1
    19    85    84    2
    20    84    83    1
    21    87    86    1
    22   106   107    2
    23    86    83    1
    24    83    82    1
    25    82    80   am
    26   112   111    2
    27    81    80    2
    28    80    79    1
    29   111   110    1
    30   109   110    1
    31   110   113    1
    32    79    78    1
    33   116   114    1
    34   113   114    1
    35   114   115    1
    36    77    76    1
    37   125   124    2
    38   129   127   ar
    39   122   119   am
    40   122   123    1
    41     4     3    2
    42   117   118    1
    43   118   119    1
    44   118   121    1
    45   119   120    2
    46    74    75    1
    47    74    71    1
    48    73    72    2
    49    72    71    1
    50   127   128   ar
    51   127   126    1
    52   124   123    1
    53   124   130   am
    54   123   126    1
    55    75    76    1
    56    71    70    1
    57     3     9   am
    58     3     2    1
    59     9    10    1
    60   133   132    2
    61   130   131    1
    62    39    38    1
    63   131   132    1
    64   131   134    1
    65     2     5    1
    66     2     1    1
    67    34    35    1
    68     5     6    1
    69     8     6    1
    70    70    60   am
    71    69    68    1
    72    38    35    1
    73    38    40    1
    74    10    11    1
    75     6     7    1
    76    35    36    1
    77    61    60    2
    78    68    67   ar
    79    68    66   ar
    80    57    55   ar
    81   134   135    1
    82    11    12    2
    83    67    65   ar
    84    60    59    1
    85   136   135   ar
    86   136   138   ar
    87    66    64   ar
    88   135   137   ar
    89   138   140   ar
    90    65    63   ar
    91    55    54    1
    92    55    56   ar
    93    18    17    1
    94    33    32    1
    95    64    63   ar
    96    36    37    2
    97    19    17    1
    98    54    53    1
    99    63    62    1
   100    17    14    1
   101   137   139   ar
   102   140   139   ar
   103    59    62    1
   104    59    58    1
   105    52    51    2
   106    16    15    2
   107    58    51   am
   108    32    31    1
   109    53    50    1
   110    51    50    1
   111    14    15    1
   112    14    13    1
   113    31    30    1
   114    24    21    1
   115    48    47    1
   116    50    49    1
   117    47    46    1
   118    30    29    1
   119    21    20    1
   120    21    22    1
   121    49    43   am
   122    45    46    1
   123    45    42    1
   124    29    26    1
   125    43    44    2
   126    43    42    1
   127    22    23    2
   128    26    25    1
   129    26    27    1
   130    42    41    1
   131    27    28    2
