@<TRIPOS>MOLECULE
tmp/3lonA00.pdb
 158 151 0 0 0
SMALL
GASTEIGER

@<TRIPOS>ATOM
      1  N        208.3040   -5.3260   52.4700 N.3    41  GLN41      -0.1231
      2  CA       207.2160   -4.4540   52.0700 C.3    41  GLN41       0.1698
      3  C        206.9890   -3.2550   52.9650 C.2    41  GLN41       0.2593
      4  O        207.4590   -3.2070   54.1060 O.2    41  GLN41      -0.2718
      5  CB       205.9210   -5.2620   51.9580 C.3    41  GLN41       0.0381
      6  CG       205.4510   -5.8520   53.2700 C.3    41  GLN41       0.0905
      7  CD       204.3450   -6.8690   53.0890 C.2    41  GLN41       0.2608
      8  OE1      203.1920   -6.5190   52.8420 O.2    41  GLN41      -0.2717
      9  NE2      204.6880   -8.1370   53.2300 N.am   41  GLN41      -0.0878
     10  N        206.2830   -2.2770   52.4070 N.am   42  THR42      -0.1939
     11  CA       205.9350   -1.0640   53.1190 C.3    42  THR42       0.2028
     12  C        204.4210   -0.9720   53.1320 C.2    42  THR42       0.2642
     13  O        203.7460   -1.2580   52.1380 O.2    42  THR42      -0.2714
     14  CB       206.5440    0.1980   52.4780 C.3    42  THR42       0.1808
     15  OG1      206.1830    1.3500   53.2540 O.3    42  THR42      -0.2208
     16  CG2      206.0480    0.3860   51.0740 C.3    42  THR42       0.0379
     17  N        203.8990   -0.6100   54.2970 N.am   43  PHE43      -0.1973
     18  CA       202.4740   -0.4970   54.5060 C.3    43  PHE43       0.1639
     19  C        202.2470    0.5690   55.5740 C.2    43  PHE43       0.2290
     20  O        203.1550    1.3590   55.8620 O.2    43  PHE43      -0.2864
     21  CB       201.8830   -1.8680   54.9010 C.3    43  PHE43       0.0560
     22  CG       202.7160   -2.6320   55.8990 C.ar   43  PHE43      -0.0200
     23  CD1      203.9670   -3.1400   55.5450 C.ar   43  PHE43      -0.0042
     24  CD2      202.2740   -2.7970   57.2010 C.ar   43  PHE43      -0.0042
     25  CE1      204.7600   -3.7800   56.4700 C.ar   43  PHE43      -0.0003
     26  CE2      203.0610   -3.4370   58.1410 C.ar   43  PHE43      -0.0003
     27  CZ       204.3060   -3.9330   57.7750 C.ar   43  PHE43      -0.0000
     28  N        198.7850   -4.3280   60.3630 N.3    55  VAL55      -0.1245
     29  CA       198.3820   -5.6160   59.8380 C.3    55  VAL55       0.1561
     30  C        199.4400   -6.7140   60.1230 C.2    55  VAL55       0.2260
     31  O        200.6500   -6.5080   59.9420 O.2    55  VAL55      -0.2867
     32  CB       198.0530   -5.3940   58.3280 C.3    55  VAL55       0.0252
     33  CG1      199.1490   -5.8670   57.4300 C.3    55  VAL55       0.0019
     34  CG2      196.6760   -5.9120   57.9840 C.3    55  VAL55       0.0019
     35  N        199.8160   -9.5340   58.6130 N.3    57  HIS57      -0.1241
     36  CA       200.3840  -10.0350   57.3690 C.3    57  HIS57       0.1621
     37  C        201.4940   -9.1450   56.8260 C.2    57  HIS57       0.2264
     38  O        202.1610   -9.4870   55.8580 O.2    57  HIS57      -0.2867
     39  CB       199.3080  -10.3080   56.3020 C.3    57  HIS57       0.0745
     40  CG       198.5920   -9.0880   55.7930 C.ar   57  HIS57       0.0817
     41  ND1      197.2830   -8.8120   56.1270 N.ar   57  HIS57      -0.2268
     42  CD2      198.9480   -8.1540   54.8780 C.ar   57  HIS57       0.1154
     43  CE1      196.8620   -7.7660   55.4400 C.ar   57  HIS57       0.1986
     44  NE2      197.8510   -7.3490   54.6770 N.ar   57  HIS57      -0.2212
     45  N        194.3080  -10.6150   62.4830 N.3    81  ASP81      -0.1239
     46  CA       195.3070  -10.1010   61.5610 C.3    81  ASP81       0.1674
     47  C        195.8000   -8.7400   62.0620 C.2    81  ASP81       0.2266
     48  O        196.0490   -7.8230   61.2820 O.2    81  ASP81      -0.2867
     49  CB       194.7180  -10.0130   60.1490 C.3    81  ASP81       0.1410
     50  CG       195.7670   -9.7530   59.0820 C.2    81  ASP81       0.3668
     51  OD1      196.9290  -10.1670   59.2510 O.co2  81  ASP81      -0.2456
     52  OD2      195.4150   -9.1280   58.0610 O.co2  81  ASP81      -0.2456
     53  N        183.3640   -4.8530   55.6280 N.3   123  ARG123     -0.1245
     54  CA       183.4380   -4.5090   54.2100 C.3   123  ARG123      0.1563
     55  C        182.7870   -3.1850   53.9050 C.2   123  ARG123      0.2260
     56  O        181.8630   -2.7580   54.5930 O.2   123  ARG123     -0.2867
     57  CB       182.7550   -5.5740   53.3560 C.3   123  ARG123      0.0307
     58  CG       183.4650   -6.9010   53.2920 C.3   123  ARG123      0.0489
     59  CD       184.6000   -6.9040   52.2880 C.3   123  ARG123      0.2205
     60  NE       185.1800   -8.2400   52.1750 N.pl3 123  ARG123     -0.0865
     61  CZ       184.9640   -9.0800   51.1630 C.cat 123  ARG123      0.5346
     62  NH1      184.1790   -8.7310   50.1500 N.pl3 123  ARG123      0.1354
     63  NH2      185.5240  -10.2850   51.1730 N.pl3 123  ARG123      0.1354
     64  N        194.0470   -1.6710   41.9140 N.3   132  ILE132     -0.1245
     65  CA       194.6450   -2.0960   43.1720 C.3   132  ILE132      0.1561
     66  C        196.0190   -1.4930   43.4290 C.2   132  ILE132      0.2260
     67  O        196.4190   -1.3360   44.5800 O.2   132  ILE132     -0.2867
     68  CB       194.7200   -3.6290   43.2950 C.3   132  ILE132      0.0252
     69  CG1      195.5790   -4.2180   42.1850 C.3   132  ILE132      0.0019
     70  CG2      193.3340   -4.2200   43.2510 C.3   132  ILE132      0.0019
     71  CD1      195.8000   -5.7060   42.3360 C.3   132  ILE132      0.0001
     72  N        195.8870    1.1970   45.8380 N.3   135  LEU135     -0.1231
     73  CA       195.7360    0.7310   47.2070 C.3   135  LEU135      0.1693
     74  C        196.9770    0.0080   47.7420 C.2   135  LEU135      0.2592
     75  O        197.0880   -0.2650   48.9380 O.2   135  LEU135     -0.2718
     76  CB       194.4960   -0.1550   47.3060 C.3   135  LEU135      0.0284
     77  CG       193.1640    0.5090   47.6700 C.3   135  LEU135      0.0019
     78  CD1      193.2510    2.0020   47.5860 C.3   135  LEU135      0.0001
     79  CD2      192.0610   -0.0190   46.7900 C.3   135  LEU135      0.0001
     80  N        197.9210   -0.2820   46.8600 N.am  136  LYS136     -0.1966
     81  CA       199.1440   -0.9610   47.2540 C.3   136  LYS136      0.1728
     82  C        199.8960   -0.1220   48.2820 C.2   136  LYS136      0.2616
     83  O        200.1740    1.0560   48.0660 O.2   136  LYS136     -0.2715
     84  CB       200.0170   -1.2230   46.0300 C.3   136  LYS136      0.0311
     85  CG       201.1970   -2.1450   46.2790 C.3   136  LYS136      0.0038
     86  CD       201.8940   -2.5230   44.9660 C.3   136  LYS136      0.0206
     87  CE       202.6720   -1.3550   44.3560 C.3   136  LYS136      0.1093
     88  NZ       203.8630   -0.9970   45.1780 N.3   136  LYS136     -0.1314
     89  N        200.1860   -0.7320   49.4200 N.am  137  GLY137     -0.1955
     90  CA       200.8900   -0.0380   50.4740 C.3   137  GLY137      0.1869
     91  C        199.9830    0.5450   51.5410 C.2   137  GLY137      0.2309
     92  O        200.4730    0.9720   52.5720 O.2   137  GLY137     -0.2863
     93  N        197.6740   -1.0860   53.4690 N.3   139  SER139     -0.1217
     94  CA       197.2720   -2.0220   54.5290 C.3   139  SER139      0.1889
     95  C        197.6970   -1.4880   55.8820 C.2   139  SER139      0.2288
     96  O        198.8600   -1.1310   56.0630 O.2   139  SER139     -0.2866
     97  CB       197.9020   -3.3950   54.3110 C.3   139  SER139      0.2089
     98  OG       197.3680   -3.9410   53.1310 O.3   139  SER139     -0.2183
     99  N        192.4180   -0.6730   57.0930 N.3   154  PHE154     -0.1227
    100  CA       192.4010   -1.3050   55.7690 C.3   154  PHE154      0.1736
    101  C        193.1720   -2.6250   55.7800 C.2   154  PHE154      0.2595
    102  O        194.3390   -2.6640   56.1620 O.2   154  PHE154     -0.2718
    103  CB       192.9800   -0.3440   54.7190 C.3   154  PHE154      0.0547
    104  CG       193.0500   -0.9210   53.3340 C.ar  154  PHE154     -0.0202
    105  CD1      191.9400   -1.5060   52.7480 C.ar  154  PHE154     -0.0042
    106  CD2      194.2380   -0.8780   52.6100 C.ar  154  PHE154     -0.0042
    107  CE1      192.0230   -2.0400   51.4590 C.ar  154  PHE154     -0.0003
    108  CE2      194.3250   -1.4090   51.3190 C.ar  154  PHE154     -0.0003
    109  CZ       193.2240   -1.9870   50.7480 C.ar  154  PHE154     -0.0000
    110  N        192.5210   -3.7000   55.3500 N.am  155  ARG155     -0.1966
    111  CA       193.1550   -5.0100   55.3430 C.3   155  ARG155      0.1729
    112  C        193.4690   -5.5850   53.9640 C.2   155  ARG155      0.2616
    113  O        194.6030   -5.9920   53.6930 O.2   155  ARG155     -0.2715
    114  CB       192.3010   -6.0000   56.1260 C.3   155  ARG155      0.0348
    115  CG       192.9330   -7.3560   56.2440 C.3   155  ARG155      0.0492
    116  CD       192.1030   -8.2730   57.0920 C.3   155  ARG155      0.2205
    117  NE       192.7490   -9.5710   57.2140 N.pl3 155  ARG155     -0.0865
    118  CZ       192.6930  -10.5250   56.2910 C.cat 155  ARG155      0.5346
    119  NH1      192.0070  -10.3300   55.1710 N.pl3 155  ARG155      0.1354
    120  NH2      193.3460  -11.6670   56.4770 N.pl3 155  ARG155      0.1354
    121  N        192.4600   -5.6510   53.1050 N.am  156  ALA156     -0.1963
    122  CA       192.6410   -6.2050   51.7750 C.3   156  ALA156      0.1728
    123  C        191.6560   -5.5910   50.8040 C.2   156  ALA156      0.2616
    124  O        190.5990   -5.0990   51.2010 O.2   156  ALA156     -0.2715
    125  CB       192.4390   -7.7100   51.8130 C.3   156  ALA156      0.0334
    126  N        192.0040   -5.6290   49.5230 N.am  157  ALA157     -0.1963
    127  CA       191.1340   -5.0930   48.4990 C.3   157  ALA157      0.1728
    128  C        190.3310   -6.2430   47.9310 C.2   157  ALA157      0.2616
    129  O        190.7840   -7.3960   47.9370 O.2   157  ALA157     -0.2715
    130  CB       191.9470   -4.4360   47.4050 C.3   157  ALA157      0.0334
    131  N        189.0970   -5.9400   47.5440 N.am  158  VAL158     -0.1963
    132  CA       188.2130   -6.9160   46.9310 C.3   158  VAL158      0.1727
    133  C        188.2830   -6.5050   45.4580 C.2   158  VAL158      0.2616
    134  O        187.5950   -5.5800   45.0180 O.2   158  VAL158     -0.2715
    135  CB       186.7740   -6.8010   47.4800 C.3   158  VAL158      0.0290
    136  CG1      185.9650   -7.9960   47.0570 C.3   158  VAL158      0.0023
    137  CG2      186.7880   -6.7020   48.9920 C.3   158  VAL158      0.0023
    138  N        189.1770   -7.1540   44.7230 N.am  159  CYS159     -0.1954
    139  CA       189.4000   -6.8190   43.3270 C.3   159  CYS159      0.1843
    140  C        189.0800   -7.8860   42.2870 C.2   159  CYS159      0.2626
    141  O        189.0430   -9.0840   42.5810 O.2   159  CYS159     -0.2714
    142  CB       190.8500   -6.3990   43.1600 C.3   159  CYS159      0.0997
    143  SG       191.9810   -7.6610   43.7670 S.3   159  CYS159     -0.0797
    144  N        188.8750   -7.4170   41.0580 N.am  160  THR160     -0.1950
    145  CA       188.5810   -8.2530   39.9000 C.3   160  THR160      0.1897
    146  C        189.1450   -7.5100   38.6980 C.2   160  THR160      0.2313
    147  O        188.9660   -6.2960   38.5850 O.2   160  THR160     -0.2863
    148  CB       187.0660   -8.4100   39.6780 C.3   160  THR160      0.1794
    149  OG1      186.4640   -7.1140   39.5310 O.3   160  THR160     -0.2208
    150  CG2      186.4180   -9.1580   40.8500 C.3   160  THR160      0.0378
    151  N        188.2490   -4.6700   52.3640 N.3   168  ASP168     -0.1239
    152  CA       188.0340   -5.4870   53.5340 C.3   168  ASP168      0.1674
    153  C        188.8070   -4.8130   54.6510 C.2   168  ASP168      0.2266
    154  O        189.9810   -4.4770   54.4760 O.2   168  ASP168     -0.2867
    155  CB       188.5840   -6.8880   53.2850 C.3   168  ASP168      0.1410
    156  CG       188.2440   -7.8490   54.3940 C.2   168  ASP168      0.3668
    157  OD1      187.1430   -8.4390   54.3380 O.co2 168  ASP168     -0.2456
    158  OD2      189.0710   -8.0180   55.3190 O.co2 168  ASP168     -0.2456
@<TRIPOS>BOND
     1   147   146    2
     2   146   145    1
     3   149   148    1
     4   148   145    1
     5   148   150    1
     6   145   144    1
     7   144   140   am
     8    64    65    1
     9    69    71    1
    10    69    68    1
    11   140   141    2
    12   140   139    1
    13   142   139    1
    14   142   143    1
    15    65    68    1
    16    65    66    1
    17    70    68    1
    18   139   138    1
    19    66    67    2
    20    87    86    1
    21    87    88    1
    22   138   133   am
    23    86    85    1
    24   134   133    2
    25   133   132    1
    26    72    73    1
    27    84    85    1
    28    84    81    1
    29    79    77    1
    30    80    81    1
    31    80    74   am
    32   132   135    1
    33   132   131    1
    34   136   135    1
    35    73    76    1
    36    73    74    1
    37    81    82    1
    38    76    77    1
    39   130   127    1
    40   135   137    1
    41   131   128   am
    42    78    77    1
    43    74    75    2
    44   128   129    2
    45   128   127    1
    46    83    82    2
    47    82    89   am
    48   127   126    1
    49    89    90    1
    50   126   123   am
    51    62    61    1
    52    90    91    1
    53   109   108   ar
    54   109   107   ar
    55   123   124    2
    56   123   122    1
    57    16    14    1
    58    61    63    1
    59    61    60    2
    60   108   106   ar
    61   107   105   ar
    62    91    92    2
    63   122   125    1
    64   122   121    1
    65     5     2    1
    66     5     6    1
    67     2     1    1
    68     2     3    1
    69    13    12    2
    70    60    59    1
    71    59    58    1
    72   151   152    1
    73    10     3   am
    74    10    11    1
    75    14    11    1
    76    14    15    1
    77   106   104   ar
    78   105   104   ar
    79     8     7    2
    80     3     4    2
    81     7     9   am
    82     7     6    1
    83   121   112   am
    84    11    12    1
    85    98    97    1
    86    12    17   am
    87   155   152    1
    88   155   156    1
    89    58    57    1
    90   104   103    1
    91    57    54    1
    92    93    94    1
    93   152   153    1
    94   113   112    2
    95    55    54    1
    96    55    56    2
    97   112   111    1
    98    54    53    1
    99    17    18    1
   100    97    94    1
   101   157   156   ar
   102   156   158   ar
   103   154   153    2
   104    18    21    1
   105    18    19    1
   106    94    95    1
   107    44    42   ar
   108    44    43   ar
   109   103   100    1
   110    42    40   ar
   111    21    22    1
   112   119   118    1
   113   111   110    1
   114   111   114    1
   115   110   101   am
   116    43    41   ar
   117    23    22   ar
   118    23    25   ar
   119    19    20    2
   120   100   101    1
   121   100    99    1
   122   101   102    2
   123    40    41   ar
   124    40    39    1
   125    38    37    2
   126    95    96    2
   127    22    24   ar
   128   114   115    1
   129   115   116    1
   130   118   120    1
   131   118   117    2
   132    39    36    1
   133    25    27   ar
   134    37    36    1
   135   116   117    1
   136    24    26   ar
   137    36    35    1
   138    33    32    1
   139    27    26   ar
   140    34    32    1
   141    52    50   ar
   142    32    29    1
   143    50    51   ar
   144    50    49    1
   145    29    30    1
   146    29    28    1
   147    31    30    2
   148    49    46    1
   149    48    47    2
   150    46    47    1
   151    46    45    1
