@<TRIPOS>MOLECULE
tmp/3lopA00.pdb
 132 120 0 0 0
SMALL
GASTEIGER

@<TRIPOS>ATOM
      1  N         23.5470   34.3710    4.1790 N.3    14  GLN14      -0.1245
      2  CA        24.1920   34.8920    5.3790 C.3    14  GLN14       0.1566
      3  C         23.6990   36.2680    5.8100 C.2    14  GLN14       0.2260
      4  O         24.2760   36.8770    6.7080 O.2    14  GLN14      -0.2867
      5  CB        25.7040   34.9480    5.1550 C.3    14  GLN14       0.0367
      6  CG        26.4060   33.6190    5.3360 C.3    14  GLN14       0.0905
      7  CD        26.6790   33.3120    6.7940 C.2    14  GLN14       0.2608
      8  OE1       25.7590   33.1440    7.5960 O.2    14  GLN14      -0.2717
      9  NE2       27.9540   33.2520    7.1480 N.am   14  GLN14      -0.0878
     10  N         23.2370   37.0740    9.5810 N.3    17  THR17      -0.1218
     11  CA        24.4860   37.2840   10.3020 C.3    17  THR17       0.1862
     12  C         25.1210   38.6370    9.9790 C.2    17  THR17       0.2287
     13  O         25.5050   39.3830   10.8870 O.2    17  THR17      -0.2866
     14  CB        25.4810   36.1510    9.9920 C.3    17  THR17       0.1770
     15  OG1       24.9690   34.9200   10.5200 O.3    17  THR17      -0.2211
     16  CG2       26.8380   36.4380   10.6130 C.3    17  THR17       0.0375
     17  N         28.4490   37.5660    0.8040 N.3    52  GLN52      -0.1245
     18  CA        29.4180   36.5570    1.2320 C.3    52  GLN52       0.1566
     19  C         30.1500   35.9380    0.0420 C.2    52  GLN52       0.2260
     20  O         30.7200   34.8530    0.1440 O.2    52  GLN52      -0.2867
     21  CB        28.7950   35.4440    2.0880 C.3    52  GLN52       0.0367
     22  CG        29.8750   34.7870    2.9670 C.3    52  GLN52       0.0905
     23  CD        29.4640   33.4820    3.6170 C.2    52  GLN52       0.2608
     24  OE1       28.8430   32.6210    2.9880 O.2    52  GLN52      -0.2717
     25  NE2       29.8420   33.3130    4.8740 N.am   52  GLN52      -0.0878
     26  N         32.7080   38.7890    7.2940 N.3    76  VAL76      -0.1231
     27  CA        32.1420   37.4590    7.5010 C.3    76  VAL76       0.1692
     28  C         32.6580   36.4220    6.5090 C.2    76  VAL76       0.2593
     29  O         32.7990   36.7030    5.3190 O.2    76  VAL76      -0.2718
     30  CB        30.6010   37.5070    7.3950 C.3    76  VAL76       0.0266
     31  CG1       30.0170   36.1020    7.4800 C.3    76  VAL76       0.0020
     32  CG2       30.0340   38.3950    8.4890 C.3    76  VAL76       0.0020
     33  N         32.9350   35.2220    7.0120 N.am   77  GLY77      -0.1942
     34  CA        33.4000   34.1450    6.1590 C.3    77  GLY77       0.2014
     35  C         34.8880   33.8730    6.2020 C.2    77  GLY77       0.2640
     36  O         35.6960   34.7350    5.8540 O.2    77  GLY77      -0.2714
     37  N         35.2530   32.6690    6.6280 N.am   78  THR78      -0.1936
     38  CA        36.6550   32.2840    6.6900 C.3    78  THR78       0.2028
     39  C         37.2880   32.4280    5.3110 C.2    78  THR78       0.2642
     40  O         38.3840   32.9750    5.1790 O.2    78  THR78      -0.2714
     41  CB        36.8090   30.8210    7.1720 C.3    78  THR78       0.1808
     42  OG1       36.4270   30.7350    8.5490 O.3    78  THR78      -0.2208
     43  CG2       38.2470   30.3520    7.0390 C.3    78  THR78       0.0379
     44  N         36.5960   31.9420    4.2830 N.am   79  ALA79      -0.1977
     45  CA        37.1230   32.0260    2.9230 C.3    79  ALA79       0.1597
     46  C         37.2530   33.4750    2.4670 C.2    79  ALA79       0.2287
     47  O         38.1980   33.8310    1.7640 O.2    79  ALA79      -0.2864
     48  CB        36.2220   31.2520    1.9530 C.3    79  ALA79       0.0319
     49  N         34.7480   38.3270   11.7210 N.3   100  ALA100     -0.1231
     50  CA        33.6710   37.4970   12.2590 C.3   100  ALA100      0.1694
     51  C         33.8470   35.9910   12.0810 C.2   100  ALA100      0.2592
     52  O         32.8730   35.2550   11.9210 O.2   100  ALA100     -0.2718
     53  CB        32.3400   37.9440   11.6630 C.3   100  ALA100      0.0304
     54  N         35.0940   35.5390   12.1230 N.am  101  THR101     -0.1953
     55  CA        35.4220   34.1260   11.9880 C.3   101  THR101      0.1897
     56  C         36.5580   33.8120   12.9520 C.2   101  THR101      0.2313
     57  O         37.4550   34.6300   13.1480 O.2   101  THR101     -0.2863
     58  CB        35.8680   33.7750   10.5450 C.3   101  THR101      0.1794
     59  OG1       36.6880   32.5990   10.5700 O.3   101  THR101     -0.2208
     60  CG2       36.6460   34.9250    9.9240 C.3   101  THR101      0.0378
     61  N         38.1180   29.0710   16.8450 N.3   118  TYR118     -0.1241
     62  CA        37.3110   27.8790   16.6160 C.3   118  TYR118      0.1605
     63  C         37.9720   26.6730   17.2700 C.2   118  TYR118      0.2264
     64  O         37.2890   25.8000   17.8060 O.2   118  TYR118     -0.2867
     65  CB        37.1510   27.5800   15.1210 C.3   118  TYR118      0.0534
     66  CG        36.2470   28.5200   14.3620 C.ar  118  TYR118     -0.0201
     67  CD1       35.1980   29.1830   14.9960 C.ar  118  TYR118     -0.0009
     68  CD2       36.4030   28.6950   12.9880 C.ar  118  TYR118     -0.0009
     69  CE1       34.3230   29.9970   14.2780 C.ar  118  TYR118      0.0417
     70  CE2       35.5380   29.5020   12.2620 C.ar  118  TYR118      0.0417
     71  CZ        34.5000   30.1500   12.9130 C.ar  118  TYR118      0.1957
     72  OH        33.6420   30.9570   12.2100 O.3   118  TYR118     -0.2866
     73  N         30.7510   22.8280    6.1800 N.3   141  GLN141     -0.1245
     74  CA        30.5850   23.6090    4.9640 C.3   141  GLN141      0.1566
     75  C         31.6950   23.2080    3.9950 C.2   141  GLN141      0.2260
     76  O         32.8440   23.0210    4.3940 O.2   141  GLN141     -0.2867
     77  CB        30.6580   25.1020    5.2920 C.3   141  GLN141      0.0367
     78  CG        30.4140   26.0260    4.1060 C.3   141  GLN141      0.0905
     79  CD        30.1050   27.4420    4.5450 C.2   141  GLN141      0.2608
     80  OE1       28.9770   27.7510    4.9290 O.2   141  GLN141     -0.2717
     81  NE2       31.1100   28.3070    4.5100 N.am  141  GLN141     -0.0878
     82  N         34.0720   24.2370    2.2040 N.3   143  ASP143     -0.1239
     83  CA        35.0520   25.2880    1.9600 C.3   143  ASP143      0.1674
     84  C         35.9580   25.4190    3.1850 C.2   143  ASP143      0.2266
     85  O         35.9920   24.5220    4.0320 O.2   143  ASP143     -0.2867
     86  CB        34.3540   26.6210    1.6350 C.3   143  ASP143      0.1410
     87  CG        33.8740   27.3630    2.8680 C.2   143  ASP143      0.3668
     88  OD1       33.6890   26.7290    3.9280 O.co2 143  ASP143     -0.2456
     89  OD2       33.6670   28.5930    2.7620 O.co2 143  ASP143     -0.2456
     90  N         35.7430   26.9910    5.9770 N.3   145  LEU145     -0.1245
     91  CA        35.0930   26.8490    7.2770 C.3   145  LEU145      0.1561
     92  C         34.9710   25.3790    7.6590 C.2   145  LEU145      0.2260
     93  O         35.3000   24.9950    8.7810 O.2   145  LEU145     -0.2867
     94  CB        33.6970   27.4870    7.2700 C.3   145  LEU145      0.0270
     95  CG        32.8350   27.1530    8.4980 C.3   145  LEU145      0.0019
     96  CD1       33.5310   27.6400    9.7620 C.3   145  LEU145      0.0001
     97  CD2       31.4590   27.7870    8.3600 C.3   145  LEU145      0.0001
     98  N         28.7130   26.1320    0.3830 N.3   171  ARG171     -0.1245
     99  CA        28.7730   27.4440    1.0190 C.3   171  ARG171      0.1563
    100  C         27.7710   28.3880    0.3590 C.2   171  ARG171      0.2260
    101  O         27.4430   28.2430   -0.8210 O.2   171  ARG171     -0.2867
    102  CB        30.1860   28.0420    0.9200 C.3   171  ARG171      0.0307
    103  CG        30.4840   28.7710   -0.3920 C.3   171  ARG171      0.0489
    104  CD        31.9420   29.2050   -0.4740 C.3   171  ARG171      0.2205
    105  NE        32.3470   30.0420    0.6540 N.pl3 171  ARG171     -0.0865
    106  CZ        32.1000   31.3450    0.7600 C.cat 171  ARG171      0.5346
    107  NH1       31.4460   31.9890   -0.1990 N.pl3 171  ARG171      0.1354
    108  NH2       32.5090   32.0050    1.8330 N.pl3 171  ARG171      0.1354
    109  N         27.3140   27.6300    8.9910 N.3   196  THR196     -0.1218
    110  CA        26.8080   28.9750    9.1980 C.3   196  THR196      0.1862
    111  C         25.3650   28.8760    9.6860 C.2   196  THR196      0.2287
    112  O         24.7720   27.7970    9.6900 O.2   196  THR196     -0.2866
    113  CB        26.8880   29.7990    7.9020 C.3   196  THR196      0.1770
    114  OG1       26.2610   29.0770    6.8350 O.3   196  THR196     -0.2211
    115  CG2       28.3480   30.0650    7.5410 C.3   196  THR196      0.0375
    116  N         29.7350   30.5300   15.0170 N.3   221  SER221     -0.1217
    117  CA        29.2850   31.0850   13.7500 C.3   221  SER221      0.1889
    118  C         27.7680   30.8970   13.6980 C.2   221  SER221      0.2288
    119  O         27.0890   31.4350   12.8240 O.2   221  SER221     -0.2866
    120  CB        29.9470   30.3400   12.5890 C.3   221  SER221      0.2089
    121  OG        29.8100   28.9350   12.7410 O.3   221  SER221     -0.2183
    122  N         25.4850   37.8970   17.6000 N.3   275  ARG275     -0.1245
    123  CA        26.2480   38.5370   16.5350 C.3   275  ARG275      0.1563
    124  C         26.1850   40.0630   16.6030 C.2   275  ARG275      0.2260
    125  O         27.1360   40.7360   16.2140 O.2   275  ARG275     -0.2867
    126  CB        25.7940   38.0390   15.1540 C.3   275  ARG275      0.0307
    127  CG        25.8340   36.5100   14.9690 C.3   275  ARG275      0.0489
    128  CD        27.0380   35.8360   15.6380 C.3   275  ARG275      0.2205
    129  NE        28.3350   36.1540   15.0360 N.pl3 275  ARG275     -0.0865
    130  CZ        28.8260   35.5910   13.9320 C.cat 275  ARG275      0.5346
    131  NH1       28.1330   34.6680   13.2720 N.pl3 275  ARG275      0.1354
    132  NH2       30.0370   35.9310   13.5040 N.pl3 275  ARG275      0.1354
@<TRIPOS>BOND
     1   101   100    2
     2   104   103    1
     3   104   105    1
     4   103   102    1
     5   107   106    1
     6    19    20    2
     7    19    18    1
     8   100    99    1
     9    98    99    1
    10   105   106    2
    11   106   108    1
    12    17    18    1
    13   102    99    1
    14    18    21    1
    15    86    83    1
    16    86    87    1
    17    47    46    2
    18    48    45    1
    19    83    82    1
    20    83    84    1
    21    21    22    1
    22    46    45    1
    23    89    87   ar
    24    87    88   ar
    25    45    44    1
    26    22    23    1
    27    24    23    2
    28    84    85    2
    29    23    25   am
    30    75    76    2
    31    75    74    1
    32    78    79    1
    33    78    77    1
    34     1     2    1
    35    44    39   am
    36    81    79   am
    37    79    80    2
    38    74    77    1
    39    74    73    1
    40     5     6    1
    41     5     2    1
    42    40    39    2
    43    39    38    1
    44    29    28    2
    45     6     7    1
    46     2     3    1
    47     3     4    2
    48    36    35    2
    49    90    91    1
    50    34    35    1
    51    34    33    1
    52    35    37   am
    53    28    33   am
    54    28    27    1
    55    37    38    1
    56    38    41    1
    57     7     9   am
    58     7     8    2
    59   114   113    1
    60    43    41    1
    61    41    42    1
    62    94    91    1
    63    94    95    1
    64    91    92    1
    65    26    27    1
    66    30    31    1
    67    30    27    1
    68    30    32    1
    69   115   113    1
    70    92    93    2
    71   113   110    1
    72    97    95    1
    73    95    96    1
    74   109   110    1
    75   110   111    1
    76    10    11    1
    77   111   112    2
    78    60    58    1
    79    12    11    1
    80    12    13    2
    81    14    11    1
    82    14    15    1
    83    14    16    1
    84    58    59    1
    85    58    55    1
    86    53    50    1
    87    49    50    1
    88    52    51    2
    89    55    54    1
    90    55    56    1
    91    51    54   am
    92    51    50    1
    93    72    71    1
    94    70    71   ar
    95    70    68   ar
    96   120   121    1
    97   120   117    1
    98   119   118    2
    99    71    69   ar
   100    56    57    2
   101    68    66   ar
   102   131   130    1
   103   132   130    1
   104   118   117    1
   105   117   116    1
   106   130   129    2
   107    69    67   ar
   108    66    67   ar
   109    66    65    1
   110   127   126    1
   111   127   128    1
   112   129   128    1
   113    65    62    1
   114   126   123    1
   115   125   124    2
   116   123   124    1
   117   123   122    1
   118    62    61    1
   119    62    63    1
   120    63    64    2
