@<TRIPOS>MOLECULE
tmp/3loqB01.pdb
 141 138 0 0 0
SMALL
GASTEIGER

@<TRIPOS>ATOM
      1  N         80.4460   76.2220   14.4870 N.3   147  ALA147     -0.1231
      2  CA        79.4190   77.1070   13.9840 C.3   147  ALA147      0.1694
      3  C         78.0660   76.5190   14.3820 C.2   147  ALA147      0.2592
      4  O         77.6970   75.4370   13.9220 O.2   147  ALA147     -0.2718
      5  CB        79.5160   77.2180   12.4800 C.3   147  ALA147      0.0304
      6  N         77.3260   77.2290   15.2220 N.am  148  TYR148     -0.1962
      7  CA        76.0940   76.6760   15.7880 C.3   148  TYR148      0.1771
      8  C         74.8580   77.5400   15.5160 C.2   148  TYR148      0.2619
      9  O         74.8400   78.7110   15.8620 O.2   148  TYR148     -0.2715
     10  CB        76.2570   76.4570   17.2960 C.3   148  TYR148      0.0574
     11  CG        75.0740   75.7330   17.8930 C.ar  148  TYR148     -0.0198
     12  CD1       74.9500   74.3560   17.7680 C.ar  148  TYR148     -0.0009
     13  CD2       74.0730   76.4220   18.5620 C.ar  148  TYR148     -0.0009
     14  CE1       73.8610   73.6810   18.2960 C.ar  148  TYR148      0.0417
     15  CE2       72.9810   75.7520   19.0990 C.ar  148  TYR148      0.0417
     16  CZ        72.8830   74.3810   18.9590 C.ar  148  TYR148      0.1957
     17  OH        71.7960   73.7040   19.4760 O.3   148  TYR148     -0.2866
     18  N         73.8260   76.9490   14.9160 N.am  149  ASP149     -0.1971
     19  CA        72.6080   77.6840   14.5450 C.3   149  ASP149      0.1709
     20  C         71.3500   76.9750   15.0500 C.2   149  ASP149      0.2293
     21  O         70.2670   77.1670   14.4900 O.2   149  ASP149     -0.2864
     22  CB        72.4980   77.8180   13.0160 C.3   149  ASP149      0.1436
     23  CG        72.2700   76.4690   12.3380 C.2   149  ASP149      0.3671
     24  OD1       72.3260   75.4310   13.0500 O.co2 149  ASP149     -0.2456
     25  OD2       72.0400   76.4350   11.1040 O.co2 149  ASP149     -0.2456
     26  N         70.2280   74.1870   14.6720 N.3   151  SER151     -0.1217
     27  CA        69.7010   73.1440   13.8040 C.3   151  SER151      0.1889
     28  C         70.1190   71.7920   14.3600 C.2   151  SER151      0.2288
     29  O         71.0790   71.6970   15.1400 O.2   151  SER151     -0.2866
     30  CB        70.2520   73.2950   12.3780 C.3   151  SER151      0.2089
     31  OG        71.6400   72.9640   12.3050 O.3   151  SER151     -0.2183
     32  N         71.5770   69.5000   12.6470 N.3   153  TRP153     -0.1227
     33  CA        72.9090   69.1270   12.1370 C.3   153  TRP153      0.1737
     34  C         74.0130   69.8680   12.8960 C.2   153  TRP153      0.2595
     35  O         75.1020   69.3280   13.1160 O.2   153  TRP153     -0.2718
     36  CB        73.0470   69.3020   10.6130 C.3   153  TRP153      0.0564
     37  CG        72.2650   70.4590   10.0490 C.ar  153  TRP153      0.0003
     38  CD1       72.7130   71.7450    9.8400 C.ar  153  TRP153      0.0946
     39  CD2       70.8980   70.4370    9.6180 C.ar  153  TRP153      0.0152
     40  NE1       71.6990   72.5200    9.3100 N.ar  153  TRP153     -0.2442
     41  CE2       70.5750   71.7430    9.1710 C.ar  153  TRP153      0.0810
     42  CE3       69.9160   69.4460    9.5650 C.ar  153  TRP153      0.0012
     43  CZ2       69.3050   72.0760    8.6880 C.ar  153  TRP153      0.0191
     44  CZ3       68.6590   69.7780    9.0850 C.ar  153  TRP153      0.0001
     45  CH2       68.3650   71.0830    8.6540 C.ar  153  TRP153      0.0015
     46  N         73.7230   71.0940   13.3230 N.am  154  ALA154     -0.1980
     47  CA        74.6710   71.8080   14.1620 C.3   154  ALA154      0.1597
     48  C         74.8260   71.0570   15.4870 C.2   154  ALA154      0.2287
     49  O         75.9410   70.8860   15.9560 O.2   154  ALA154     -0.2864
     50  CB        74.2250   73.2580   14.3900 C.3   154  ALA154      0.0319
     51  N         80.2860   79.5670   18.1460 N.3   175  ILE175     -0.1231
     52  CA        79.8730   80.8680   17.6440 C.3   175  ILE175      0.1692
     53  C         78.4680   80.7690   17.1030 C.2   175  ILE175      0.2592
     54  O         78.1430   79.8360   16.3580 O.2   175  ILE175     -0.2718
     55  CB        80.8010   81.4330   16.5600 C.3   175  ILE175      0.0266
     56  CG1       80.2790   82.8070   16.1340 C.3   175  ILE175      0.0019
     57  CG2       80.8990   80.4670   15.3620 C.3   175  ILE175      0.0020
     58  CD1       81.1660   83.5450   15.1740 C.3   175  ILE175      0.0001
     59  N         77.6270   81.7090   17.5300 N.am  176  HIS176     -0.1962
     60  CA        76.2930   81.8490   16.9870 C.3   176  HIS176      0.1787
     61  C         76.1330   83.2280   16.3460 C.2   176  HIS176      0.2620
     62  O         76.4320   84.2520   16.9590 O.2   176  HIS176     -0.2715
     63  CB        75.2500   81.6410   18.0720 C.3   176  HIS176      0.0785
     64  CG        73.8530   81.8870   17.6050 C.ar  176  HIS176      0.0821
     65  ND1       73.2240   81.0690   16.6920 N.ar  176  HIS176     -0.2267
     66  CD2       72.9720   82.8680   17.9050 C.ar  176  HIS176      0.1154
     67  CE1       72.0080   81.5320   16.4570 C.ar  176  HIS176      0.1986
     68  NE2       71.8290   82.6170   17.1880 N.ar  176  HIS176     -0.2212
     69  N         75.6660   83.2450   15.1090 N.am  177  VAL177     -0.1977
     70  CA        75.5160   84.4890   14.3700 C.3   177  VAL177      0.1596
     71  C         74.0400   84.8360   14.2510 C.2   177  VAL177      0.2287
     72  O         73.2570   84.0150   13.8050 O.2   177  VAL177     -0.2864
     73  CB        76.0900   84.3680   12.9620 C.3   177  VAL177      0.0276
     74  CG1       76.1020   85.7280   12.2840 C.3   177  VAL177      0.0022
     75  CG2       77.4910   83.8000   13.0090 C.3   177  VAL177      0.0022
     76  N         76.9490   85.2980    8.2800 N.3   209  PRO209     -0.2116
     77  CA        77.4580   84.1640    9.0530 C.3   209  PRO209      0.1372
     78  C         78.8340   83.6810    8.5870 C.2   209  PRO209      0.2244
     79  O         79.7160   83.5700    9.4260 O.2   209  PRO209     -0.2868
     80  CB        76.3650   83.1170    8.8790 C.3   209  PRO209      0.0268
     81  CG        75.1150   83.9430    8.8140 C.3   209  PRO209      0.0207
     82  CD        75.5170   85.1380    7.9660 C.3   209  PRO209      0.0892
     83  N         81.8630   83.8730   11.1310 N.3   213  ILE213     -0.1245
     84  CA        82.5620   82.6380   11.4980 C.3   213  ILE213      0.1561
     85  C         84.0610   82.7250   11.1940 C.2   213  ILE213      0.2260
     86  O         84.8950   82.3700   12.0270 O.2   213  ILE213     -0.2867
     87  CB        81.9730   81.3920   10.7860 C.3   213  ILE213      0.0252
     88  CG1       80.5280   81.1710   11.2250 C.3   213  ILE213      0.0019
     89  CG2       82.8450   80.1450   11.0620 C.3   213  ILE213      0.0019
     90  CD1       79.7320   80.2990   10.3040 C.3   213  ILE213      0.0001
     91  N         84.1630   73.0840   13.0510 N.3   226  PHE226     -0.1241
     92  CA        83.1800   72.0200   12.9140 C.3   226  PHE226      0.1605
     93  C         81.8450   72.6570   12.5840 C.2   226  PHE226      0.2264
     94  O         81.4460   73.6200   13.2290 O.2   226  PHE226     -0.2867
     95  CB        83.0340   71.2360   14.2180 C.3   226  PHE226      0.0534
     96  CG        84.1160   70.2270   14.4530 C.ar  226  PHE226     -0.0203
     97  CD1       85.4140   70.4780   14.0510 C.ar  226  PHE226     -0.0042
     98  CD2       83.8350   69.0280   15.1070 C.ar  226  PHE226     -0.0042
     99  CE1       86.4240   69.5330   14.2690 C.ar  226  PHE226     -0.0003
    100  CE2       84.8280   68.0910   15.3400 C.ar  226  PHE226     -0.0003
    101  CZ        86.1320   68.3430   14.9290 C.ar  226  PHE226     -0.0000
    102  N         77.6640   71.6770   10.6750 N.3   227  GLY227     -0.1210
    103  CA        76.7740   70.6730   10.1260 C.3   227  GLY227      0.1956
    104  C         76.2520   71.0610    8.7520 C.2   227  GLY227      0.2613
    105  O         76.5110   72.1640    8.2570 O.2   227  GLY227     -0.2717
    106  N         75.5210   70.1500    8.1210 N.am  228  SER228     -0.1938
    107  CA        74.7710   70.5110    6.9230 C.3   228  SER228      0.2055
    108  C         73.5920   69.5820    6.7200 C.2   228  SER228      0.2642
    109  O         73.5450   68.4900    7.2790 O.2   228  SER228     -0.2714
    110  CB        75.6600   70.4770    5.6880 C.3   228  SER228      0.2130
    111  OG        75.9810   69.1410    5.3720 O.3   228  SER228     -0.2179
    112  N         72.6490   70.0230    5.8970 N.am  229  ARG229     -0.1977
    113  CA        71.4800   69.2210    5.5720 C.3   229  ARG229      0.1597
    114  C         71.8420   67.8620    4.9580 C.2   229  ARG229      0.2287
    115  O         73.0180   67.5290    4.7780 O.2   229  ARG229     -0.2864
    116  CB        70.5240   70.0100    4.6720 C.3   229  ARG229      0.0334
    117  CG        69.8430   71.1720    5.3920 C.3   229  ARG229      0.0492
    118  CD        68.7740   71.8420    4.5390 C.3   229  ARG229      0.2205
    119  NE        67.7350   72.4740    5.3540 N.pl3 229  ARG229     -0.0865
    120  CZ        67.8290   73.6950    5.8800 C.cat 229  ARG229      0.5346
    121  NH1       68.9230   74.4260    5.6770 N.pl3 229  ARG229      0.1354
    122  NH2       66.8290   74.1860    6.6110 N.pl3 229  ARG229      0.1354
    123  N         76.1230   79.4360    0.2370 N.3   239  SER239     -0.1202
    124  CA        75.5830   79.1050    1.5610 C.3   239  SER239      0.2020
    125  C         76.6910   79.1990    2.5880 C.2   239  SER239      0.2619
    126  O         77.8710   79.1590    2.2330 O.2   239  SER239     -0.2717
    127  CB        74.9850   77.6940    1.5860 C.3   239  SER239      0.2103
    128  OG        75.9800   76.6930    1.3940 O.3   239  SER239     -0.2182
    129  N         76.3130   79.2900    3.8600 N.am  240  THR240     -0.1938
    130  CA        77.2800   79.4350    4.9490 C.3   240  THR240      0.2028
    131  C         78.3940   78.3830    4.9070 C.2   240  THR240      0.2642
    132  O         79.5750   78.7090    5.0000 O.2   240  THR240     -0.2714
    133  CB        76.5810   79.3750    6.3030 C.3   240  THR240      0.1808
    134  OG1       75.5330   80.3510    6.3260 O.3   240  THR240     -0.2208
    135  CG2       77.5740   79.6510    7.4540 C.3   240  THR240      0.0379
    136  N         78.0110   77.1250    4.7510 N.am  241  SER241     -0.1949
    137  CA        78.9650   76.0220    4.7650 C.3   241  SER241      0.1924
    138  C         79.8840   76.0280    3.5650 C.2   241  SER241      0.2314
    139  O         81.1040   75.9030    3.6960 O.2   241  SER241     -0.2863
    140  CB        78.2260   74.6890    4.8180 C.3   241  SER241      0.2116
    141  OG        77.9250   74.3950    6.1650 O.3   241  SER241     -0.2180
@<TRIPOS>BOND
     1   123   124    1
     2   128   127    1
     3   124   127    1
     4   124   125    1
     5   126   125    2
     6   125   129   am
     7   138   139    2
     8   138   137    1
     9   129   130    1
    10   118   119    1
    11   118   117    1
    12   116   117    1
    13   116   113    1
    14   136   137    1
    15   136   131   am
    16   137   140    1
    17   115   114    2
    18   140   141    1
    19   131   130    1
    20   131   132    2
    21   130   133    1
    22   114   113    1
    23   119   120    2
    24   111   110    1
    25   113   112    1
    26   121   120    1
    27   110   107    1
    28   120   122    1
    29   112   108   am
    30   133   134    1
    31   133   135    1
    32   108   107    1
    33   108   109    2
    34   107   106    1
    35    82    76    1
    36    82    81    1
    37   106   104   am
    38   105   104    2
    39    76    77    1
    40    78    77    1
    41    78    79    2
    42    45    43   ar
    43    45    44   ar
    44    43    41   ar
    45   104   103    1
    46    81    80    1
    47    80    77    1
    48    44    42   ar
    49    41    40   ar
    50    41    39   ar
    51    40    38   ar
    52    42    39   ar
    53    39    37   ar
    54    38    37   ar
    55    37    36    1
    56   103   102    1
    57    90    88    1
    58    36    33    1
    59    87    89    1
    60    87    88    1
    61    87    84    1
    62    25    23   ar
    63    83    84    1
    64    85    84    1
    65    85    86    2
    66    33    32    1
    67    33    34    1
    68    74    73    1
    69    31    30    1
    70    23    22    1
    71    23    24   ar
    72    30    27    1
    73     5     2    1
    74    93    92    1
    75    93    94    2
    76    34    35    2
    77    34    46   am
    78    92    91    1
    79    92    95    1
    80    73    75    1
    81    73    70    1
    82    22    19    1
    83    46    47    1
    84    27    28    1
    85    27    26    1
    86    72    71    2
    87     4     3    2
    88     2     3    1
    89     2     1    1
    90    97    99   ar
    91    97    96   ar
    92    47    50    1
    93    47    48    1
    94    95    96    1
    95    71    70    1
    96    99   101   ar
    97    28    29    2
    98    70    69    1
    99     3     6   am
   100    96    98   ar
   101    21    20    2
   102    19    18    1
   103    19    20    1
   104    18     8   am
   105   101   100   ar
   106    98   100   ar
   107    69    61   am
   108    58    56    1
   109     6     7    1
   110    57    55    1
   111    48    49    2
   112     8     7    1
   113     8     9    2
   114     7    10    1
   115    56    55    1
   116    61    62    2
   117    61    60    1
   118    54    53    2
   119    67    65   ar
   120    67    68   ar
   121    55    52    1
   122    65    64   ar
   123    60    59    1
   124    60    63    1
   125    53    59   am
   126    53    52    1
   127    68    66   ar
   128    10    11    1
   129    64    66   ar
   130    64    63    1
   131    52    51    1
   132    12    11   ar
   133    12    14   ar
   134    11    13   ar
   135    14    16   ar
   136    13    15   ar
   137    16    15   ar
   138    16    17    1
