@<TRIPOS>MOLECULE
tmp/3loqA00.pdb
 138 132 0 0 0
SMALL
GASTEIGER

@<TRIPOS>ATOM
      1  N         51.9360   55.5430   21.9760 N.3    11  PRO11      -0.2102
      2  CA        51.6820   56.9860   21.9790 C.3    11  PRO11       0.1504
      3  C         52.0480   57.5700   20.6300 C.2    11  PRO11       0.2576
      4  O         52.9890   57.0840   20.0100 O.2    11  PRO11      -0.2718
      5  CB        52.6740   57.5140   23.0260 C.3    11  PRO11       0.0282
      6  CG        53.1630   56.3220   23.7580 C.3    11  PRO11       0.0208
      7  CD        53.1280   55.2080   22.7650 C.3    11  PRO11       0.0893
      8  N         51.3190   58.5810   20.1720 N.am   12  THR12      -0.1939
      9  CA        51.7100   59.2770   18.9550 C.3    12  THR12       0.2028
     10  C         51.3230   60.7550   18.9620 C.2    12  THR12       0.2642
     11  O         50.2100   61.1290   19.3540 O.2    12  THR12      -0.2714
     12  CB        51.1400   58.6030   17.6860 C.3    12  THR12       0.1808
     13  OG1       51.4940   59.3830   16.5340 O.3    12  THR12      -0.2208
     14  CG2       49.6220   58.4760   17.7760 C.3    12  THR12       0.0379
     15  N         52.2680   61.5860   18.5470 N.am   13  ASP13      -0.1971
     16  CA        51.9990   62.9870   18.2600 C.3    13  ASP13       0.1709
     17  C         51.8820   63.1750   16.7430 C.2    13  ASP13       0.2293
     18  O         51.9880   64.2910   16.2270 O.2    13  ASP13      -0.2864
     19  CB        53.1230   63.8550   18.8190 C.3    13  ASP13       0.1436
     20  CG        54.4800   63.5120   18.2100 C.2    13  ASP13       0.3671
     21  OD1       55.4280   64.3180   18.3840 O.co2  13  ASP13      -0.2456
     22  OD2       54.5900   62.4480   17.5460 O.co2  13  ASP13      -0.2456
     23  N         58.6760   60.2550   13.4630 N.3    17  ASN17      -0.1225
     24  CA        59.4040   59.4310   14.4330 C.3    17  ASN17       0.1785
     25  C         58.4770   58.5500   15.2740 C.2    17  ASN17       0.2597
     26  O         58.8140   57.4110   15.6010 O.2    17  ASN17      -0.2718
     27  CB        60.3990   60.2460   15.2880 C.3    17  ASN17       0.1169
     28  CG        59.7330   60.9920   16.4360 C.2    17  ASN17       0.2627
     29  OD1       59.5090   62.2080   16.3580 O.2    17  ASN17      -0.2716
     30  ND2       59.4290   60.2730   17.5150 N.am   17  ASN17      -0.0877
     31  N         57.2770   59.0380   15.5610 N.am   18  SER18      -0.1952
     32  CA        56.3290   58.2300   16.3310 C.3    18  SER18       0.1924
     33  C         55.8410   56.9700   15.5880 C.2    18  SER18       0.2314
     34  O         55.3960   56.0020   16.2200 O.2    18  SER18      -0.2863
     35  CB        55.1360   59.0770   16.8110 C.3    18  SER18       0.2116
     36  OG        54.1910   59.2980   15.7730 O.3    18  SER18      -0.2180
     37  N         47.4540   56.1030   21.3070 N.3    39  LEU39      -0.1231
     38  CA        47.1670   57.2340   22.1820 C.3    39  LEU39       0.1693
     39  C         47.7130   58.5590   21.6500 C.2    39  LEU39       0.2592
     40  O         48.9260   58.7400   21.4830 O.2    39  LEU39      -0.2718
     41  CB        47.7440   56.9840   23.5740 C.3    39  LEU39       0.0284
     42  CG        47.4850   58.0720   24.6240 C.3    39  LEU39       0.0019
     43  CD1       45.9970   58.1520   24.9530 C.3    39  LEU39       0.0001
     44  CD2       48.3070   57.8590   25.9030 C.3    39  LEU39       0.0001
     45  N         46.8050   59.4850   21.3830 N.am   40  PHE40      -0.1962
     46  CA        47.1820   60.8120   20.9500 C.3    40  PHE40       0.1771
     47  C         46.7720   61.7790   22.0350 C.2    40  PHE40       0.2619
     48  O         45.6430   61.7720   22.4880 O.2    40  PHE40      -0.2715
     49  CB        46.4930   61.1890   19.6420 C.3    40  PHE40       0.0574
     50  CG        46.6600   62.6490   19.2750 C.ar   40  PHE40      -0.0200
     51  CD1       47.8430   63.1080   18.7200 C.ar   40  PHE40      -0.0042
     52  CD2       45.6340   63.5570   19.4940 C.ar   40  PHE40      -0.0042
     53  CE1       48.0060   64.4400   18.3790 C.ar   40  PHE40      -0.0003
     54  CE2       45.7850   64.8990   19.1530 C.ar   40  PHE40      -0.0003
     55  CZ        46.9730   65.3430   18.5970 C.ar   40  PHE40      -0.0000
     56  N         47.6900   62.6210   22.4540 N.am   41  VAL41      -0.1977
     57  CA        47.3860   63.5450   23.5270 C.3    41  VAL41       0.1596
     58  C         47.4020   64.9570   22.9610 C.2    41  VAL41       0.2287
     59  O         48.3180   65.3250   22.2140 O.2    41  VAL41      -0.2864
     60  CB        48.4080   63.4000   24.6720 C.3    41  VAL41       0.0276
     61  CG1       48.1420   64.4040   25.7870 C.3    41  VAL41       0.0022
     62  CG2       48.3970   61.9590   25.2070 C.3    41  VAL41       0.0022
     63  N         48.4320   68.3120   23.5370 N.3    43  ASN43      -0.1240
     64  CA        49.4630   68.8060   24.4250 C.3    43  ASN43       0.1653
     65  C         49.1910   70.2530   24.8480 C.2    43  ASN43       0.2266
     66  O         49.4740   71.1940   24.1040 O.2    43  ASN43      -0.2867
     67  CB        50.8320   68.6580   23.7540 C.3    43  ASN43       0.1155
     68  CG        51.9740   69.0900   24.6490 C.2    43  ASN43       0.2627
     69  OD1       51.7610   69.5920   25.7490 O.2    43  ASN43      -0.2716
     70  ND2       53.1970   68.9030   24.1770 N.am   43  ASN43      -0.0877
     71  N         51.5530   65.3100   27.7950 N.3    90  PRO90      -0.2116
     72  CA        51.7020   63.9810   27.1980 C.3    90  PRO90       0.1372
     73  C         52.3390   62.9700   28.1470 C.2    90  PRO90       0.2244
     74  O         51.8710   61.8310   28.2060 O.2    90  PRO90      -0.2868
     75  CB        52.5800   64.2390   25.9700 C.3    90  PRO90       0.0268
     76  CG        52.3040   65.6870   25.6210 C.3    90  PRO90       0.0207
     77  CD        52.0940   66.3800   26.9380 C.3    90  PRO90       0.0892
     78  N         50.3710   59.6040   29.1030 N.3    94  ILE94      -0.1245
     79  CA        50.8820   58.3370   28.6260 C.3    94  ILE94       0.1561
     80  C         51.0280   57.3860   29.8030 C.2    94  ILE94       0.2260
     81  O         50.5400   56.2610   29.7600 O.2    94  ILE94      -0.2867
     82  CB        52.2260   58.4730   27.8550 C.3    94  ILE94       0.0252
     83  CG1       51.9890   59.1380   26.4820 C.3    94  ILE94       0.0019
     84  CG2       52.8490   57.0850   27.6690 C.3    94  ILE94       0.0019
     85  CD1       53.2230   59.7640   25.8170 C.3    94  ILE94       0.0001
     86  N         58.4150   56.3700   19.8590 N.3   106  GLY106     -0.1210
     87  CA        59.5350   56.9390   19.1320 C.3   106  GLY106      0.1956
     88  C         60.3120   57.9210   19.9930 C.2   106  GLY106      0.2613
     89  O         60.0040   58.1200   21.1670 O.2   106  GLY106     -0.2717
     90  N         61.3360   58.5210   19.4050 N.am  107  SER107     -0.1938
     91  CA        62.0610   59.6100   20.0260 C.3   107  SER107      0.2055
     92  C         62.7050   60.4040   18.8910 C.2   107  SER107      0.2642
     93  O         63.1020   59.8310   17.8770 O.2   107  SER107     -0.2714
     94  CB        63.1310   59.0660   20.9640 C.3   107  SER107      0.2130
     95  OG        64.0720   60.0770   21.3020 O.3   107  SER107     -0.2179
     96  N         62.8160   61.7160   19.0400 N.am  108  ARG108     -0.1977
     97  CA        63.4230   62.4900   17.9670 C.3   108  ARG108      0.1597
     98  C         64.9540   62.4430   18.0500 C.2   108  ARG108      0.2287
     99  O         65.6580   63.0520   17.2390 O.2   108  ARG108     -0.2864
    100  CB        62.8600   63.9170   17.8970 C.3   108  ARG108      0.0334
    101  CG        63.1280   64.7570   19.1100 C.3   108  ARG108      0.0492
    102  CD        62.2790   66.0250   19.1170 C.3   108  ARG108      0.2205
    103  NE        62.8800   67.0230   20.0010 N.pl3 108  ARG108     -0.0865
    104  CZ        62.8410   66.9700   21.3340 C.cat 108  ARG108      0.5346
    105  NH1       62.2110   65.9650   21.9370 N.pl3 108  ARG108      0.1354
    106  NH2       63.4330   67.9200   22.0630 N.pl3 108  ARG108      0.1354
    107  N         67.0160   68.0720   24.7430 N.3   115  LYS115     -0.1245
    108  CA        66.0480   67.4180   25.6220 C.3   115  LYS115      0.1561
    109  C         65.7170   68.3360   26.8140 C.2   115  LYS115      0.2260
    110  O         64.5590   68.5130   27.1970 O.2   115  LYS115     -0.2867
    111  CB        66.5720   66.0600   26.1050 C.3   115  LYS115      0.0271
    112  CG        66.4270   64.9330   25.0890 C.3   115  LYS115      0.0035
    113  CD        66.6310   63.5690   25.7460 C.3   115  LYS115      0.0206
    114  CE        66.5320   62.4250   24.7420 C.3   115  LYS115      0.1093
    115  NZ        67.8080   62.2810   24.0040 N.3   115  LYS115     -0.1314
    116  N         62.2010   69.9060   26.1370 N.3   119  GLY119     -0.1210
    117  CA        61.3600   68.8490   26.6580 C.3   119  GLY119      0.1956
    118  C         61.5830   67.5490   25.8970 C.2   119  GLY119      0.2613
    119  O         61.9950   67.5470   24.7280 O.2   119  GLY119     -0.2717
    120  N         61.3150   66.4390   26.5720 N.am  120  SER120     -0.1938
    121  CA        61.4490   65.1200   25.9820 C.3   120  SER120      0.2055
    122  C         60.3760   64.2490   26.5940 C.2   120  SER120      0.2643
    123  O         60.4500   63.9050   27.7840 O.2   120  SER120     -0.2714
    124  CB        62.8180   64.5290   26.2980 C.3   120  SER120      0.2130
    125  OG        62.9160   63.2060   25.7890 O.3   120  SER120     -0.2179
    126  N         59.3640   63.9320   25.7940 N.am  121  VAL121     -0.1963
    127  CA        58.2810   63.0590   26.2170 C.3   121  VAL121      0.1727
    128  C         58.8010   61.6530   26.4700 C.2   121  VAL121      0.2616
    129  O         58.3720   60.9960   27.4220 O.2   121  VAL121     -0.2715
    130  CB        57.1300   63.0380   25.1870 C.3   121  VAL121      0.0290
    131  CG1       56.0560   62.0410   25.5980 C.3   121  VAL121      0.0023
    132  CG2       56.5320   64.4560   25.0480 C.3   121  VAL121      0.0023
    133  N         59.7590   61.2090   25.6600 N.am  122  SER122     -0.1950
    134  CA        60.2710   59.8510   25.8160 C.3   122  SER122      0.1924
    135  C         61.0750   59.7270   27.1070 C.2   122  SER122      0.2314
    136  O         60.9560   58.7250   27.8160 O.2   122  SER122     -0.2863
    137  CB        61.0750   59.3820   24.5860 C.3   122  SER122      0.2116
    138  OG        62.3260   60.0430   24.4580 O.3   122  SER122     -0.2180
@<TRIPOS>BOND
     1    23    24    1
     2    24    25    1
     3    24    27    1
     4    25    31   am
     5    25    26    2
     6    27    28    1
     7    31    32    1
     8    33    34    2
     9    33    32    1
    10    36    35    1
    11    18    17    2
    12    32    35    1
    13    29    28    2
    14    28    30   am
    15    13    12    1
    16    17    16    1
    17    99    98    2
    18    22    20   ar
    19    12    14    1
    20    12     9    1
    21    93    92    2
    22   100    97    1
    23   100   101    1
    24    97    98    1
    25    97    96    1
    26    20    21   ar
    27    20    19    1
    28    16    15    1
    29    16    19    1
    30    53    55   ar
    31    53    51   ar
    32    15    10   am
    33    55    54   ar
    34    51    50   ar
    35    92    96   am
    36    92    91    1
    37     9    10    1
    38     9     8    1
    39    10    11    2
    40   101   102    1
    41   102   103    1
    42    87    86    1
    43    87    88    1
    44    54    52   ar
    45    50    52   ar
    46    50    49    1
    47    90    88   am
    48    90    91    1
    49    49    46    1
    50    88    89    2
    51   103   104    2
    52     4     3    2
    53    91    94    1
    54     8     3   am
    55     3     2    1
    56    46    45    1
    57    46    47    1
    58    94    95    1
    59    37    38    1
    60   104   105    1
    61   104   106    1
    62    45    39   am
    63    40    39    2
    64    39    38    1
    65     1     2    1
    66     1     7    1
    67     2     5    1
    68    47    56   am
    69    47    48    2
    70    38    41    1
    71    59    58    2
    72    56    57    1
    73     7     6    1
    74    58    57    1
    75     5     6    1
    76    57    60    1
    77    63    64    1
    78    41    42    1
    79    67    64    1
    80    67    68    1
    81   115   114    1
    82    66    65    2
    83    70    68   am
    84    64    65    1
    85   138   137    1
    86   137   134    1
    87    42    43    1
    88    42    44    1
    89    68    69    2
    90    60    62    1
    91    60    61    1
    92   119   118    2
    93   114   113    1
    94   107   108    1
    95   132   130    1
    96   112   113    1
    97   112   111    1
    98   130   131    1
    99   130   127    1
   100    76    75    1
   101    76    77    1
   102   108   111    1
   103   108   109    1
   104   133   134    1
   105   133   128   am
   106   125   124    1
   107   126   127    1
   108   126   122   am
   109   134   135    1
   110    85    83    1
   111   118   120   am
   112   118   117    1
   113    75    72    1
   114   121   124    1
   115   121   120    1
   116   121   122    1
   117   116   117    1
   118   127   128    1
   119   128   129    2
   120    83    82    1
   121   122   123    2
   122   109   110    2
   123    77    71    1
   124   135   136    2
   125    72    71    1
   126    72    73    1
   127    84    82    1
   128    82    79    1
   129    73    74    2
   130    79    78    1
   131    79    80    1
   132    81    80    2
