@<TRIPOS>MOLECULE
tmp/3louC00.pdb
 119 112 0 0 0
SMALL
GASTEIGER

@<TRIPOS>ATOM
      1  N         14.2600  -42.6820   15.0540 N.3     3  GLN3       -0.1245
      2  CA        15.2980  -42.8610   16.0550 C.3     3  GLN3        0.1566
      3  C         14.8140  -43.1550   17.4790 C.2     3  GLN3        0.2260
      4  O         13.7250  -42.7720   17.8900 O.2     3  GLN3       -0.2867
      5  CB        16.1890  -41.6150   16.1190 C.3     3  GLN3        0.0367
      6  CG        17.1330  -41.4500   14.9730 C.3     3  GLN3        0.0905
      7  CD        17.8380  -40.1390   15.0350 C.2     3  GLN3        0.2608
      8  OE1       17.2160  -39.1260   15.2990 O.2     3  GLN3       -0.2717
      9  NE2       19.1480  -40.1400   14.8030 N.am    3  GLN3       -0.0878
     10  N         16.6120  -43.3330   21.6440 N.3     5  VAL5       -0.1245
     11  CA        17.7280  -42.9600   22.4320 C.3     5  VAL5        0.1561
     12  C         17.7500  -43.7910   23.7100 C.2     5  VAL5        0.2260
     13  O         16.7440  -43.8770   24.4350 O.2     5  VAL5       -0.2867
     14  CB        17.7300  -41.4350   22.7300 C.3     5  VAL5        0.0252
     15  CG1       16.4280  -40.9980   23.3950 C.3     5  VAL5        0.0019
     16  CG2       18.9500  -41.0540   23.5620 C.3     5  VAL5        0.0019
     17  N         24.4710  -41.6330   17.3020 N.3    33  GLU33      -0.1245
     18  CA        25.2610  -40.8810   18.2820 C.3    33  GLU33       0.1567
     19  C         25.6530  -41.8280   19.4220 C.2    33  GLU33       0.2260
     20  O         24.8800  -42.7280   19.7920 O.2    33  GLU33      -0.2867
     21  CB        24.4820  -39.6870   18.8610 C.3    33  GLU33       0.0388
     22  CG        23.9510  -38.6980   17.8490 C.3    33  GLU33       0.1160
     23  CD        22.9910  -37.6810   18.4740 C.2    33  GLU33       0.3649
     24  OE1       23.3060  -37.1270   19.5550 O.co2  33  GLU33      -0.2457
     25  OE2       21.9200  -37.4500   17.8840 O.co2  33  GLU33      -0.2457
     26  N         24.8980  -42.4360   26.4880 N.3    48  ARG48      -0.1245
     27  CA        23.7830  -41.9890   25.7050 C.3    48  ARG48       0.1563
     28  C         24.0300  -42.4360   24.2790 C.2    48  ARG48       0.2260
     29  O         25.0460  -42.0970   23.6840 O.2    48  ARG48      -0.2867
     30  CB        23.6160  -40.4780   25.7490 C.3    48  ARG48       0.0307
     31  CG        22.4350  -39.9620   24.9660 C.3    48  ARG48       0.0489
     32  CD        22.4070  -38.4270   25.0270 C.3    48  ARG48       0.2205
     33  NE        21.2860  -37.8440   24.3100 N.pl3  48  ARG48      -0.0865
     34  CZ        21.3020  -37.5350   23.0050 C.cat  48  ARG48       0.5346
     35  NH1       22.3880  -37.7820   22.2630 N.pl3  48  ARG48       0.1354
     36  NH2       20.2370  -36.9670   22.4450 N.pl3  48  ARG48       0.1354
     37  N         22.0610  -42.8750   20.4810 N.3    50  VAL50      -0.1245
     38  CA        20.9380  -42.6570   19.6110 C.3    50  VAL50       0.1561
     39  C         21.1240  -43.5940   18.4180 C.2    50  VAL50       0.2260
     40  O         22.2170  -43.6440   17.8260 O.2    50  VAL50      -0.2867
     41  CB        20.8820  -41.2200   19.0870 C.3    50  VAL50       0.0252
     42  CG1       19.7090  -41.0600   18.1260 C.3    50  VAL50       0.0019
     43  CG2       20.8180  -40.1900   20.2470 C.3    50  VAL50       0.0019
     44  N         13.9730  -44.2070   24.8460 N.3    78  HIS78      -0.1226
     45  CA        12.9130  -43.2860   24.4780 C.3    78  HIS78       0.1752
     46  C         12.8250  -43.1680   22.9900 C.2    78  HIS78       0.2596
     47  O         13.8400  -43.2530   22.2980 O.2    78  HIS78      -0.2718
     48  CB        13.1990  -41.8770   25.0310 C.3    78  HIS78       0.0759
     49  CG        13.0390  -41.7690   26.5010 C.ar   78  HIS78       0.0818
     50  ND1       14.1100  -41.7580   27.3630 N.ar   78  HIS78      -0.2268
     51  CD2       11.9290  -41.7560   27.2770 C.ar   78  HIS78       0.1154
     52  CE1       13.6700  -41.7100   28.6070 C.ar   78  HIS78       0.1986
     53  NE2       12.3500  -41.7170   28.5830 N.ar   78  HIS78      -0.2212
     54  N         11.5960  -42.9820   22.4950 N.am   79  ASP79      -0.1960
     55  CA        11.3650  -42.6960   21.1190 C.3    79  ASP79       0.1840
     56  C         11.7080  -41.2190   20.9180 C.2    79  ASP79       0.2621
     57  O         11.1730  -40.3530   21.6050 O.2    79  ASP79      -0.2715
     58  CB         9.8990  -42.9850   20.7720 C.3    79  ASP79       0.1450
     59  CG         9.5840  -42.7870   19.3030 C.2    79  ASP79       0.3671
     60  OD1       10.2850  -42.0400   18.6070 O.co2  79  ASP79      -0.2456
     61  OD2        8.6030  -43.3920   18.8560 O.co2  79  ASP79      -0.2456
     62  N         12.6390  -40.9440   20.0230 N.am   80  VAL80      -0.1977
     63  CA        13.0560  -39.5870   19.7740 C.3    80  VAL80       0.1596
     64  C         11.8970  -38.6920   19.2740 C.2    80  VAL80       0.2287
     65  O         11.8950  -37.5030   19.5250 O.2    80  VAL80      -0.2864
     66  CB        14.2400  -39.5300   18.7790 C.3    80  VAL80       0.0276
     67  CG1       14.4700  -38.0930   18.2840 C.3    80  VAL80       0.0022
     68  CG2       15.5100  -40.0690   19.4190 C.3    80  VAL80       0.0022
     69  N          8.8150  -38.8450   20.3500 N.3    82  ALA82      -0.1245
     70  CA         7.8870  -38.5730   21.4340 C.3    82  ALA82       0.1562
     71  C          8.2450  -37.2380   22.1160 C.2    82  ALA82       0.2260
     72  O          9.4220  -36.9170   22.3300 O.2    82  ALA82      -0.2867
     73  CB         7.8820  -39.6890   22.4290 C.3    82  ALA82       0.0290
     74  N          8.2200  -35.1940   25.3950 N.3    84  PRO84      -0.2116
     75  CA         8.0560  -35.3970   26.8290 C.3    84  PRO84       0.1372
     76  C          6.9750  -34.4730   27.4050 C.2    84  PRO84       0.2244
     77  O          6.8630  -33.3080   27.0010 O.2    84  PRO84      -0.2868
     78  CB         9.4410  -35.0580   27.4020 C.3    84  PRO84       0.0268
     79  CG        10.3960  -35.2500   26.2630 C.3    84  PRO84       0.0207
     80  CD         9.6050  -34.8420   25.0390 C.3    84  PRO84       0.0892
     81  N         14.8670  -32.7260   27.8880 N.3   261  ILE261     -0.1231
     82  CA        13.9440  -33.3730   26.9630 C.3   261  ILE261      0.1692
     83  C         14.6840  -34.0900   25.8210 C.2   261  ILE261      0.2592
     84  O         14.1320  -34.9710   25.1940 O.2   261  ILE261     -0.2718
     85  CB        12.8030  -32.3960   26.4560 C.3   261  ILE261      0.0266
     86  CG1       13.3330  -31.3390   25.5410 C.3   261  ILE261      0.0019
     87  CG2       12.0850  -31.7730   27.6480 C.3   261  ILE261      0.0020
     88  CD1       12.3720  -30.1580   25.3900 C.3   261  ILE261      0.0001
     89  N         15.9610  -33.7560   25.6400 N.am  262  GLU262     -0.1966
     90  CA        16.8090  -34.3980   24.6490 C.3   262  GLU262      0.1733
     91  C         17.5890  -35.5910   25.2690 C.2   262  GLU262      0.2616
     92  O         18.4360  -36.2350   24.6110 O.2   262  GLU262     -0.2715
     93  CB        17.7440  -33.3810   24.0140 C.3   262  GLU262      0.0429
     94  CG        17.0310  -32.4230   23.0480 C.3   262  GLU262      0.1163
     95  CD        17.9640  -31.5280   22.2620 C.2   262  GLU262      0.3649
     96  OE1       19.1000  -31.2970   22.7050 O.co2 262  GLU262     -0.2457
     97  OE2       17.5380  -31.0320   21.1850 O.co2 262  GLU262     -0.2457
     98  N         17.3140  -35.8400   26.5360 N.am  263  ARG263     -0.1963
     99  CA        17.9120  -36.9460   27.2870 C.3   263  ARG263      0.1729
    100  C         19.4360  -36.8030   27.3520 C.2   263  ARG263      0.2616
    101  O         20.1580  -37.7790   27.1890 O.2   263  ARG263     -0.2715
    102  CB        17.5150  -38.2780   26.6610 C.3   263  ARG263      0.0348
    103  CG        16.0310  -38.3810   26.3230 C.3   263  ARG263      0.0492
    104  CD        15.1930  -38.2210   27.5520 C.3   263  ARG263      0.2205
    105  NE        13.7850  -38.3880   27.2570 N.pl3 263  ARG263     -0.0865
    106  CZ        12.8260  -38.3060   28.1570 C.cat 263  ARG263      0.5346
    107  NH1       13.1250  -38.0610   29.4280 N.pl3 263  ARG263      0.1354
    108  NH2       11.5710  -38.4910   27.7960 N.pl3 263  ARG263      0.1354
    109  N         19.9090  -35.5800   27.6300 N.am  264  ARG264     -0.1977
    110  CA        21.3230  -35.3120   27.7000 C.3   264  ARG264      0.1597
    111  C         21.8000  -35.0270   29.0970 C.2   264  ARG264      0.2287
    112  O         23.0000  -34.7810   29.2860 O.2   264  ARG264     -0.2864
    113  CB        21.7150  -34.1260   26.7880 C.3   264  ARG264      0.0334
    114  CG        21.5680  -34.4540   25.3100 C.3   264  ARG264      0.0492
    115  CD        22.1110  -33.3570   24.3860 C.3   264  ARG264      0.2205
    116  NE        21.2350  -32.1820   24.3240 N.pl3 264  ARG264     -0.0865
    117  CZ        21.4390  -31.0140   24.9620 C.cat 264  ARG264      0.5346
    118  NH1       22.5200  -30.8050   25.7140 N.pl3 264  ARG264      0.1354
    119  NH2       20.5630  -30.0170   24.7880 N.pl3 264  ARG264      0.1354
@<TRIPOS>BOND
     1     9     7   am
     2     6     7    1
     3     6     5    1
     4     7     8    2
     5     1     2    1
     6     2     5    1
     7     2     3    1
     8    17    18    1
     9     3     4    2
    10    40    39    2
    11    22    23    1
    12    22    21    1
    13    25    23   ar
    14    42    41    1
    15    18    21    1
    16    18    19    1
    17    67    66    1
    18    39    38    1
    19    23    24   ar
    20    60    59   ar
    21    66    68    1
    22    66    63    1
    23    61    59   ar
    24    41    38    1
    25    41    43    1
    26    64    65    2
    27    64    63    1
    28    59    58    1
    29    19    20    2
    30    38    37    1
    31    63    62    1
    32    62    56   am
    33    69    70    1
    34    58    55    1
    35    56    55    1
    36    56    57    2
    37    55    54    1
    38    97    95   ar
    39    70    71    1
    40    70    73    1
    41    10    11    1
    42    71    72    2
    43    95    96   ar
    44    95    94    1
    45    35    34    1
    46    47    46    2
    47    11    14    1
    48    11    12    1
    49    36    34    1
    50    54    46   am
    51    14    15    1
    52    14    16    1
    53    46    45    1
    54    34    33    2
    55    94    93    1
    56    29    28    2
    57    12    13    2
    58    93    90    1
    59    28    27    1
    60    33    32    1
    61   116   115    1
    62   116   117    2
    63   115   114    1
    64    45    44    1
    65    45    48    1
    66    92    91    2
    67    90    91    1
    68    90    89    1
    69   119   117    1
    70   117   118    1
    71    31    32    1
    72    31    30    1
    73    48    49    1
    74    80    74    1
    75    80    79    1
    76    84    83    2
    77    91    98   am
    78   114   113    1
    79    88    86    1
    80    74    75    1
    81    86    85    1
    82    89    83   am
    83    27    30    1
    84    27    26    1
    85    83    82    1
    86    79    78    1
    87   103   102    1
    88   103   104    1
    89    85    82    1
    90    85    87    1
    91    49    51   ar
    92    49    50   ar
    93    98    99    1
    94   102    99    1
    95   113   110    1
    96    75    78    1
    97    75    76    1
    98    82    81    1
    99    77    76    2
   100   101   100    2
   101   105   104    1
   102   105   106    2
   103    51    53   ar
   104    99   100    1
   105   100   109   am
   106    50    52   ar
   107   109   110    1
   108   110   111    1
   109   108   106    1
   110   106   107    1
   111    53    52   ar
   112   111   112    2
