@<TRIPOS>MOLECULE
tmp/3loxA00.pdb
 161 155 0 0 0
SMALL
GASTEIGER

@<TRIPOS>ATOM
      1  N        208.1030   -5.6370   52.5170 N.3    41  GLN41      -0.1231
      2  CA       206.9690   -4.8100   52.0890 C.3    41  GLN41       0.1698
      3  C        206.7340   -3.5330   52.8930 C.2    41  GLN41       0.2593
      4  O        207.2120   -3.3960   54.0210 O.2    41  GLN41      -0.2718
      5  CB       205.6810   -5.6470   52.1110 C.3    41  GLN41       0.0381
      6  CG       205.3360   -6.2310   53.4840 C.3    41  GLN41       0.0905
      7  CD       204.0950   -7.1130   53.4620 C.2    41  GLN41       0.2608
      8  OE1      203.1030   -6.8130   52.7800 O.2    41  GLN41      -0.2717
      9  NE2      204.1410   -8.2050   54.2200 N.am   41  GLN41      -0.0878
     10  N        205.9490   -2.6280   52.3150 N.am   42  THR42      -0.1939
     11  CA       205.6090   -1.3640   52.9560 C.3    42  THR42       0.2028
     12  C        204.0980   -1.2120   53.0050 C.2    42  THR42       0.2642
     13  O        203.3940   -1.5360   52.0430 O.2    42  THR42      -0.2714
     14  CB       206.2210   -0.1650   52.2120 C.3    42  THR42       0.1808
     15  OG1      205.8290    1.0540   52.8520 O.3    42  THR42      -0.2208
     16  CG2      205.7580   -0.1420   50.7790 C.3    42  THR42       0.0379
     17  N        203.6070   -0.7360   54.1400 N.am   43  PHE43      -0.1973
     18  CA       202.1890   -0.5480   54.3690 C.3    43  PHE43       0.1639
     19  C        201.9760    0.5640   55.3860 C.2    43  PHE43       0.2290
     20  O        202.8680    1.3800   55.6010 O.2    43  PHE43      -0.2864
     21  CB       201.5230   -1.8650   54.8250 C.3    43  PHE43       0.0560
     22  CG       202.3410   -2.6780   55.8080 C.ar   43  PHE43      -0.0200
     23  CD1      203.5010   -3.3420   55.4030 C.ar   43  PHE43      -0.0042
     24  CD2      201.9530   -2.7760   57.1410 C.ar   43  PHE43      -0.0042
     25  CE1      204.2540   -4.0790   56.3060 C.ar   43  PHE43      -0.0003
     26  CE2      202.7070   -3.5140   58.0540 C.ar   43  PHE43      -0.0003
     27  CZ       203.8560   -4.1630   57.6350 C.ar   43  PHE43      -0.0000
     28  N        198.2740   -4.2630   60.2960 N.3    55  VAL55      -0.1245
     29  CA       197.8080   -5.5420   59.7950 C.3    55  VAL55       0.1561
     30  C        198.8370   -6.6750   60.0320 C.2    55  VAL55       0.2260
     31  O        200.0210   -6.5260   59.7280 O.2    55  VAL55      -0.2867
     32  CB       197.4090   -5.3360   58.3090 C.3    55  VAL55       0.0252
     33  CG1      198.5930   -5.5000   57.3910 C.3    55  VAL55       0.0019
     34  CG2      196.2220   -6.1720   57.9480 C.3    55  VAL55       0.0019
     35  N        199.2350   -9.6270   58.5940 N.3    57  HIS57      -0.1226
     36  CA       199.8270  -10.1860   57.3740 C.3    57  HIS57       0.1752
     37  C        200.9350   -9.3170   56.7540 C.2    57  HIS57       0.2596
     38  O        201.3970   -9.5780   55.6440 O.2    57  HIS57      -0.2718
     39  CB       198.7410  -10.4890   56.3390 C.3    57  HIS57       0.0759
     40  CG       198.0370   -9.2770   55.8110 C.ar   57  HIS57       0.0818
     41  ND1      196.7440   -8.9530   56.1700 N.ar   57  HIS57      -0.2268
     42  CD2      198.4150   -8.3470   54.9000 C.ar   57  HIS57       0.1154
     43  CE1      196.3560   -7.8800   55.5010 C.ar   57  HIS57       0.1986
     44  NE2      197.3510   -7.4930   54.7250 N.ar   57  HIS57      -0.2212
     45  N        201.3340   -8.2690   57.4650 N.am   58  GLY58      -0.1957
     46  CA       202.3770   -7.4010   56.9790 C.3    58  GLY58       0.1869
     47  C        203.4510   -7.2740   58.0350 C.2    58  GLY58       0.2309
     48  O        204.6240   -7.4870   57.7530 O.2    58  GLY58      -0.2863
     49  N        193.9660  -10.7240   62.4850 N.3    81  ASP81      -0.1239
     50  CA       194.9180  -10.1900   61.5160 C.3    81  ASP81       0.1674
     51  C        195.3740   -8.8100   61.9990 C.2    81  ASP81       0.2266
     52  O        195.6140   -7.9150   61.1960 O.2    81  ASP81      -0.2867
     53  CB       194.2650  -10.1310   60.1190 C.3    81  ASP81       0.1410
     54  CG       195.2620   -9.8640   58.9940 C.2    81  ASP81       0.3668
     55  OD1      196.3950  -10.3920   59.0200 O.co2  81  ASP81      -0.2456
     56  OD2      194.8920   -9.1330   58.0600 O.co2  81  ASP81      -0.2456
     57  N        182.9540   -4.8160   55.2690 N.3   123  ARG123     -0.1245
     58  CA       183.0500   -4.4440   53.8620 C.3   123  ARG123      0.1563
     59  C        182.5010   -3.0680   53.5580 C.2   123  ARG123      0.2260
     60  O        181.6940   -2.5160   54.3080 O.2   123  ARG123     -0.2867
     61  CB       182.3470   -5.4640   52.9800 C.3   123  ARG123      0.0307
     62  CG       182.9640   -6.8290   53.0050 C.3   123  ARG123      0.0489
     63  CD       184.3430   -6.8140   52.4220 C.3   123  ARG123      0.2205
     64  NE       184.8740   -8.1660   52.3720 N.pl3 123  ARG123     -0.0865
     65  CZ       184.5730   -9.0490   51.4250 C.cat 123  ARG123      0.5346
     66  NH1      183.7440   -8.7160   50.4420 N.pl3 123  ARG123      0.1354
     67  NH2      185.0940  -10.2720   51.4680 N.pl3 123  ARG123      0.1354
     68  N        193.9180   -1.7560   41.6760 N.3   132  ILE132     -0.1245
     69  CA       194.5900   -2.3970   42.8020 C.3   132  ILE132      0.1561
     70  C        195.9170   -1.7560   43.1910 C.2   132  ILE132      0.2260
     71  O        196.1700   -1.5270   44.3680 O.2   132  ILE132     -0.2867
     72  CB       194.8030   -3.9040   42.5040 C.3   132  ILE132      0.0252
     73  CG1      193.4780   -4.6440   42.6410 C.3   132  ILE132      0.0019
     74  CG2      195.8460   -4.5080   43.4140 C.3   132  ILE132      0.0019
     75  CD1      192.7690   -4.3540   43.9300 C.3   132  ILE132      0.0001
     76  N        195.7360    1.0620   45.5600 N.3   135  LEU135     -0.1231
     77  CA       195.4480    0.6570   46.9210 C.3   135  LEU135      0.1693
     78  C        196.6310   -0.0780   47.5580 C.2   135  LEU135      0.2592
     79  O        196.6640   -0.2820   48.7700 O.2   135  LEU135     -0.2718
     80  CB       194.1950   -0.2140   46.9340 C.3   135  LEU135      0.0284
     81  CG       192.9470    0.4080   47.5630 C.3   135  LEU135      0.0019
     82  CD1      192.9000    1.9290   47.3940 C.3   135  LEU135      0.0001
     83  CD2      191.7180   -0.2540   46.9720 C.3   135  LEU135      0.0001
     84  N        197.6160   -0.4590   46.7560 N.am  136  LYS136     -0.1966
     85  CA       198.7700   -1.1560   47.2960 C.3   136  LYS136      0.1728
     86  C        199.5560   -0.2620   48.2420 C.2   136  LYS136      0.2617
     87  O        199.8000    0.9060   47.9560 O.2   136  LYS136     -0.2715
     88  CB       199.6820   -1.6680   46.1890 C.3   136  LYS136      0.0311
     89  CG       200.7620   -2.5840   46.7170 C.3   136  LYS136      0.0038
     90  CD       201.3440   -3.4380   45.6230 C.3   136  LYS136      0.0206
     91  CE       202.0060   -4.6610   46.2270 C.3   136  LYS136      0.1093
     92  NZ       202.5060   -5.6120   45.1950 N.3   136  LYS136     -0.1314
     93  N        199.9370   -0.8240   49.3810 N.am  137  GLY137     -0.1940
     94  CA       200.6840   -0.0730   50.3660 C.3   137  GLY137      0.2014
     95  C        199.8080    0.5600   51.4250 C.2   137  GLY137      0.2640
     96  O        200.3230    1.0460   52.4160 O.2   137  GLY137     -0.2714
     97  N        198.4900    0.5000   51.2530 N.am  138  SER138     -0.1935
     98  CA       197.5530    1.0970   52.2110 C.3   138  SER138      0.2055
     99  C        197.0090    0.1780   53.3090 C.2   138  SER138      0.2643
    100  O        196.1440    0.5890   54.0790 O.2   138  SER138     -0.2714
    101  CB       196.3840    1.7410   51.4670 C.3   138  SER138      0.2130
    102  OG       196.8290    2.7800   50.6030 O.3   138  SER138     -0.2179
    103  N        197.5200   -1.0490   53.3970 N.am  139  SER139     -0.1949
    104  CA       197.0650   -2.0040   54.4180 C.3   139  SER139      0.1924
    105  C        197.4120   -1.4960   55.8140 C.2   139  SER139      0.2314
    106  O        198.5730   -1.2080   56.1070 O.2   139  SER139     -0.2863
    107  CB       197.7130   -3.3710   54.1930 C.3   139  SER139      0.2116
    108  OG       197.1930   -3.7630   52.9270 O.3   139  SER139     -0.2180
    109  N        192.0260   -0.8030   56.8110 N.3   154  PHE154     -0.1227
    110  CA       192.0340   -1.4700   55.4990 C.3   154  PHE154      0.1736
    111  C        192.8500   -2.7540   55.5520 C.2   154  PHE154      0.2595
    112  O        194.0190   -2.7360   55.9200 O.2   154  PHE154     -0.2718
    113  CB       192.6130   -0.5340   54.4420 C.3   154  PHE154      0.0547
    114  CG       192.7280   -1.1450   53.0770 C.ar  154  PHE154     -0.0202
    115  CD1      191.6450   -1.7570   52.4790 C.ar  154  PHE154     -0.0042
    116  CD2      193.9250   -1.0870   52.3820 C.ar  154  PHE154     -0.0042
    117  CE1      191.7600   -2.3040   51.2030 C.ar  154  PHE154     -0.0003
    118  CE2      194.0470   -1.6340   51.1030 C.ar  154  PHE154     -0.0003
    119  CZ       192.9720   -2.2360   50.5180 C.ar  154  PHE154     -0.0000
    120  N        192.2350   -3.8670   55.1710 N.am  155  ARG155     -0.1966
    121  CA       192.9160   -5.1540   55.2060 C.3   155  ARG155      0.1729
    122  C        193.1880   -5.7280   53.8190 C.2   155  ARG155      0.2616
    123  O        194.3340   -6.0580   53.4870 O.2   155  ARG155     -0.2715
    124  CB       192.1080   -6.1590   56.0300 C.3   155  ARG155      0.0348
    125  CG       192.6870   -7.5530   56.0120 C.3   155  ARG155      0.0492
    126  CD       191.9140   -8.5070   56.8810 C.3   155  ARG155      0.2205
    127  NE       192.4780   -9.8480   56.7750 N.pl3 155  ARG155     -0.0865
    128  CZ       192.0490  -10.7760   55.9250 C.cat 155  ARG155      0.5346
    129  NH1      191.0350  -10.5200   55.1070 N.pl3 155  ARG155      0.1354
    130  NH2      192.6560  -11.9540   55.8640 N.pl3 155  ARG155      0.1354
    131  N        192.1360   -5.8720   53.0200 N.am  156  ALA156     -0.1963
    132  CA       192.2800   -6.4270   51.6830 C.3   156  ALA156      0.1728
    133  C        191.3220   -5.7660   50.7180 C.2   156  ALA156      0.2616
    134  O        190.3270   -5.1620   51.1280 O.2   156  ALA156     -0.2715
    135  CB       192.0280   -7.9200   51.7110 C.3   156  ALA156      0.0334
    136  N        191.6160   -5.8950   49.4340 N.am  157  ALA157     -0.1963
    137  CA       190.7620   -5.3210   48.4130 C.3   157  ALA157      0.1728
    138  C        189.9540   -6.4070   47.7220 C.2   157  ALA157      0.2616
    139  O        190.4140   -7.5510   47.5870 O.2   157  ALA157     -0.2715
    140  CB       191.5890   -4.5620   47.3970 C.3   157  ALA157      0.0334
    141  N        188.7200   -6.0600   47.3670 N.am  158  VAL158     -0.1963
    142  CA       187.8040   -6.9500   46.6490 C.3   158  VAL158      0.1727
    143  C        187.8820   -6.4380   45.2190 C.2   158  VAL158      0.2616
    144  O        187.3520   -5.3700   44.8980 O.2   158  VAL158     -0.2715
    145  CB       186.3610   -6.7970   47.1450 C.3   158  VAL158      0.0290
    146  CG1      185.4580   -7.7630   46.4190 C.3   158  VAL158      0.0023
    147  CG2      186.2910   -7.0220   48.6400 C.3   158  VAL158      0.0023
    148  N        188.5470   -7.1850   44.3580 N.am  159  CYS159     -0.1968
    149  CA       188.7180   -6.7270   43.0020 C.3   159  CYS159      0.1712
    150  C        188.5650   -7.8200   41.9670 C.2   159  CYS159      0.2296
    151  O        188.4250   -9.0000   42.3000 O.2   159  CYS159     -0.2864
    152  CB       190.1160   -6.1470   42.8740 C.3   159  CYS159      0.0983
    153  SG       191.2800   -7.3480   42.2110 S.3   159  CYS159     -0.0798
    154  N        187.8880   -4.8730   52.2420 N.3   168  ASP168     -0.1239
    155  CA       187.6380   -5.6860   53.4120 C.3   168  ASP168      0.1674
    156  C        188.4600   -5.0320   54.5080 C.2   168  ASP168      0.2266
    157  O        189.6500   -4.7560   54.3080 O.2   168  ASP168     -0.2867
    158  CB       188.1380   -7.1060   53.1870 C.3   168  ASP168      0.1410
    159  CG       187.8830   -8.0020   54.3730 C.2   168  ASP168      0.3668
    160  OD1      186.7100   -8.1270   54.7710 O.co2 168  ASP168     -0.2456
    161  OD2      188.8460   -8.5780   54.9120 O.co2 168  ASP168     -0.2456
@<TRIPOS>BOND
     1    68    69    1
     2   150   151    2
     3   150   149    1
     4   153   152    1
     5    72    73    1
     6    72    69    1
     7    72    74    1
     8    73    75    1
     9    69    70    1
    10   152   149    1
    11   149   148    1
    12    70    71    2
    13   148   143   am
    14   144   143    2
    15    92    91    1
    16   143   142    1
    17    76    77    1
    18    90    91    1
    19    90    89    1
    20    88    89    1
    21    88    85    1
    22   146   145    1
    23   142   145    1
    24   142   141    1
    25    84    85    1
    26    84    78   am
    27    77    80    1
    28    77    78    1
    29    80    81    1
    30    83    81    1
    31   145   147    1
    32    85    86    1
    33   141   138   am
    34    82    81    1
    35   140   137    1
    36    78    79    2
    37   139   138    2
    38   138   137    1
    39    87    86    2
    40    86    93   am
    41   137   136    1
    42    93    94    1
    43   136   133   am
    44    94    95    1
    45    66    65    1
    46   119   118   ar
    47   119   117   ar
    48   102   101    1
    49   133   134    2
    50   133   132    1
    51    16    14    1
    52   118   116   ar
    53   117   115   ar
    54    97    95   am
    55    97    98    1
    56    95    96    2
    57    65    67    1
    58    65    64    2
    59   101    98    1
    60   132   135    1
    61   132   131    1
    62    13    12    2
    63     2     5    1
    64     2     1    1
    65     2     3    1
    66     5     6    1
    67    98    99    1
    68    14    15    1
    69    14    11    1
    70   154   155    1
    71    10     3   am
    72    10    11    1
    73    64    63    1
    74   116   114   ar
    75    63    62    1
    76   115   114   ar
    77     8     7    2
    78     3     4    2
    79   108   107    1
    80    11    12    1
    81    61    62    1
    82    61    58    1
    83    12    17   am
    84   131   122   am
    85   114   113    1
    86   158   155    1
    87   158   159    1
    88    99   103   am
    89    99   100    2
    90   103   104    1
    91   155   156    1
    92     7     6    1
    93     7     9   am
    94   123   122    2
    95    59    58    1
    96    59    60    2
    97   122   121    1
    98    58    57    1
    99    17    18    1
   100   107   104    1
   101   157   156    2
   102    18    21    1
   103    18    19    1
   104   159   160   ar
   105   159   161   ar
   106   104   105    1
   107   113   110    1
   108    44    42   ar
   109    44    43   ar
   110    21    22    1
   111    42    40   ar
   112   129   128    1
   113   120   121    1
   114   120   111   am
   115   121   124    1
   116    19    20    2
   117    23    22   ar
   118    23    25   ar
   119   110   111    1
   120   110   109    1
   121    43    41   ar
   122   111   112    2
   123    38    37    2
   124    22    24   ar
   125    40    41   ar
   126    40    39    1
   127   105   106    2
   128   130   128    1
   129   128   127    2
   130   125   124    1
   131   125   126    1
   132    25    27   ar
   133    39    36    1
   134    37    36    1
   135    37    45   am
   136   127   126    1
   137    46    45    1
   138    46    47    1
   139    24    26   ar
   140    36    35    1
   141    33    32    1
   142    27    26   ar
   143    48    47    2
   144    34    32    1
   145    56    54   ar
   146    32    29    1
   147    54    55   ar
   148    54    53    1
   149    31    30    2
   150    29    30    1
   151    29    28    1
   152    53    50    1
   153    52    51    2
   154    50    51    1
   155    50    49    1
