@<TRIPOS>MOLECULE
tmp/3lp0A00.pdb
 95 88 0 0 0
SMALL
GASTEIGER

@<TRIPOS>ATOM
      1  N        -12.0790   72.0650   30.5810 N.3   441  ASP441     -0.1225
      2  CA       -10.8470   72.0890   31.3510 C.3   441  ASP441      0.1805
      3  C        -11.0840   71.4470   32.7030 C.2   441  ASP441      0.2598
      4  O        -12.2200   71.3330   33.1550 O.2   441  ASP441     -0.2718
      5  CB       -10.3080   73.5130   31.5290 C.3   441  ASP441      0.1424
      6  CG        -8.8510   73.5390   31.9950 C.2   441  ASP441      0.3668
      7  OD1       -8.3900   74.5950   32.4750 O.co2 441  ASP441     -0.2456
      8  OD2       -8.1590   72.5040   31.8830 O.co2 441  ASP441     -0.2456
      9  N         -9.9970   71.0170   33.3310 N.am  442  GLY442     -0.1957
     10  CA       -10.0370   70.4530   34.6680 C.3   442  GLY442      0.1869
     11  C         -9.0500   71.1660   35.5640 C.2   442  GLY442      0.2309
     12  O         -8.1950   71.9180   35.0910 O.2   442  GLY442     -0.2863
     13  N         -3.4680   69.4360   44.7010 N.3   446  ARG446     -0.1245
     14  CA        -2.6240   68.2470   44.8730 C.3   446  ARG446      0.1563
     15  C         -2.6410   67.6300   46.2750 C.2   446  ARG446      0.2260
     16  O         -2.5550   66.4080   46.4220 O.2   446  ARG446     -0.2867
     17  CB        -1.1900   68.5560   44.4360 C.3   446  ARG446      0.0307
     18  CG        -0.3420   67.3310   44.1050 C.3   446  ARG446      0.0489
     19  CD         0.3340   67.4590   42.7400 C.3   446  ARG446      0.2205
     20  NE         0.9120   68.7850   42.5050 N.pl3 446  ARG446     -0.0865
     21  CZ         0.3620   69.7360   41.7460 C.cat 446  ARG446      0.5346
     22  NH1       -0.7970   69.5250   41.1290 N.pl3 446  ARG446      0.1354
     23  NH2        0.9750   70.9090   41.6030 N.pl3 446  ARG446      0.1354
     24  N         -9.6500   66.2590   33.5360 N.3   476  GLU476     -0.1245
     25  CA        -9.7480   66.5760   32.1090 C.3   476  GLU476      0.1567
     26  C        -10.6500   65.5790   31.3810 C.2   476  GLU476      0.2260
     27  O        -11.4400   65.9570   30.5160 O.2   476  GLU476     -0.2867
     28  CB        -8.3630   66.5870   31.4600 C.3   476  GLU476      0.0388
     29  CG        -7.3200   67.4280   32.1820 C.3   476  GLU476      0.1160
     30  CD        -7.2900   68.8800   31.7390 C.2   476  GLU476      0.3649
     31  OE1       -8.0410   69.2550   30.8090 O.co2 476  GLU476     -0.2457
     32  OE2       -6.4990   69.6480   32.3300 O.co2 476  GLU476     -0.2457
     33  N         -7.3210   71.2300   26.4650 N.3   496  ASP496     -0.1225
     34  CA        -5.9440   71.6700   26.6210 C.3   496  ASP496      0.1805
     35  C         -5.0910   70.5380   27.1990 C.2   496  ASP496      0.2598
     36  O         -3.9490   70.7450   27.6270 O.2   496  ASP496     -0.2718
     37  CB        -5.8800   72.9230   27.4970 C.3   496  ASP496      0.1424
     38  CG        -6.2910   72.6580   28.9300 C.2   496  ASP496      0.3668
     39  OD1       -7.2480   71.8840   29.1680 O.co2 496  ASP496     -0.2456
     40  OD2       -5.6530   73.2370   29.8240 O.co2 496  ASP496     -0.2456
     41  N         -5.6650   69.3390   27.1870 N.am  497  SER497     -0.1938
     42  CA        -5.0050   68.1380   27.6790 C.3   497  SER497      0.2055
     43  C         -4.5610   67.2430   26.5170 C.2   497  SER497      0.2642
     44  O         -5.3920   66.6520   25.8170 O.2   497  SER497     -0.2714
     45  CB        -5.9470   67.3800   28.6190 C.3   497  SER497      0.2130
     46  OG        -5.3660   66.1740   29.0760 O.3   497  SER497     -0.2179
     47  N         -3.2490   67.1560   26.3110 N.am  498  GLN498     -0.1976
     48  CA        -2.6910   66.2500   25.3040 C.3   498  GLN498      0.1601
     49  C         -2.9620   64.8030   25.6930 C.2   498  GLN498      0.2287
     50  O         -3.3110   63.9760   24.8450 O.2   498  GLN498     -0.2864
     51  CB        -1.1880   66.4720   25.1210 C.3   498  GLN498      0.0394
     52  CG        -0.8100   67.9030   24.7740 C.3   498  GLN498      0.0908
     53  CD         0.4870   68.0110   23.9870 C.2   498  GLN498      0.2608
     54  OE1        0.6790   68.9640   23.2230 O.2   498  GLN498     -0.2717
     55  NE2        1.3860   67.0370   24.1660 N.am  498  GLN498     -0.0878
     56  N         -2.6020   75.4450   27.1090 N.3   536  ALA536     -0.1231
     57  CA        -3.1380   76.0430   28.3300 C.3   536  ALA536      0.1694
     58  C         -2.4760   77.3880   28.6140 C.2   536  ALA536      0.2592
     59  O         -1.2550   77.5230   28.4830 O.2   536  ALA536     -0.2718
     60  CB        -2.9530   75.1010   29.5070 C.3   536  ALA536      0.0304
     61  N         -3.2940   78.3710   28.9930 N.am  537  HIS537     -0.1976
     62  CA        -2.8310   79.7080   29.4090 C.3   537  HIS537      0.1656
     63  C         -2.1000   80.4980   28.3180 C.2   537  HIS537      0.2291
     64  O         -0.9430   80.8980   28.4850 O.2   537  HIS537     -0.2864
     65  CB        -1.9740   79.6320   30.6800 C.3   537  HIS537      0.0771
     66  CG        -2.7040   79.0950   31.8680 C.ar  537  HIS537      0.0820
     67  ND1       -3.7510   79.7640   32.4620 N.ar  537  HIS537     -0.2267
     68  CD2       -2.5320   77.9560   32.5790 C.ar  537  HIS537      0.1154
     69  CE1       -4.1930   79.0610   33.4880 C.ar  537  HIS537      0.1986
     70  NE2       -3.4720   77.9580   33.5800 N.ar  537  HIS537     -0.2212
     71  N        -10.9420   77.6800   32.4340 N.3   547  ASP547     -0.1239
     72  CA        -9.7860   77.5560   33.3070 C.3   547  ASP547      0.1674
     73  C         -9.9890   78.3710   34.5750 C.2   547  ASP547      0.2266
     74  O         -9.7630   77.8680   35.6740 O.2   547  ASP547     -0.2867
     75  CB        -8.5030   77.9770   32.5960 C.3   547  ASP547      0.1410
     76  CG        -7.2930   77.8920   33.4970 C.2   547  ASP547      0.3668
     77  OD1       -6.5450   76.8940   33.4040 O.co2 547  ASP547     -0.2456
     78  OD2       -7.1000   78.8170   34.3110 O.co2 547  ASP547     -0.2456
     79  N        -10.5030   76.8080   38.1880 N.3   551  SER551     -0.1217
     80  CA        -9.4330   77.2240   39.1100 C.3   551  SER551      0.1889
     81  C         -9.9550   78.0040   40.3210 C.2   551  SER551      0.2288
     82  O         -9.1730   78.4120   41.1890 O.2   551  SER551     -0.2866
     83  CB        -8.3740   78.0620   38.3820 C.3   551  SER551      0.2089
     84  OG        -7.5090   77.2490   37.6110 O.3   551  SER551     -0.2183
     85  N         -6.6610   76.2160   42.7820 N.3   555  ARG555     -0.1245
     86  CA        -5.2530   76.6200   42.7260 C.3   555  ARG555      0.1563
     87  C         -5.1060   78.0990   43.0770 C.2   555  ARG555      0.2260
     88  O         -4.3280   78.4630   43.9560 O.2   555  ARG555     -0.2867
     89  CB        -4.6310   76.3190   41.3550 C.3   555  ARG555      0.0307
     90  CG        -5.0990   77.0250   40.1370 C.3   555  ARG555      0.0489
     91  CD        -4.0720   76.9490   38.9840 C.3   555  ARG555      0.2205
     92  NE        -4.7100   77.6780   37.8650 N.pl3 555  ARG555     -0.0865
     93  CZ        -4.8500   79.0000   37.8530 C.cat 555  ARG555      0.5346
     94  NH1       -4.3700   79.7390   38.8450 N.pl3 555  ARG555      0.1354
     95  NH2       -5.4330   79.6340   36.8460 N.pl3 555  ARG555      0.1354
@<TRIPOS>BOND
     1    54    53    2
     2    53    55   am
     3    53    52    1
     4    52    51    1
     5    50    49    2
     6    51    48    1
     7    48    49    1
     8    48    47    1
     9    44    43    2
    10    47    43   am
    11    33    34    1
    12    43    42    1
    13    34    35    1
    14    34    37    1
    15    56    57    1
    16    41    35   am
    17    41    42    1
    18    35    36    2
    19    37    38    1
    20    42    45    1
    21    63    64    2
    22    63    62    1
    23    57    58    1
    24    57    60    1
    25    59    58    2
    26    58    61   am
    27    45    46    1
    28    38    39   ar
    29    38    40   ar
    30    61    62    1
    31    62    65    1
    32    27    26    2
    33     1     2    1
    34    65    66    1
    35    31    30   ar
    36     2     5    1
    37     2     3    1
    38    26    25    1
    39    28    25    1
    40    28    29    1
    41     5     6    1
    42    30    29    1
    43    30    32   ar
    44    66    67   ar
    45    66    68   ar
    46     8     6   ar
    47     6     7   ar
    48    25    24    1
    49    71    72    1
    50    67    69   ar
    51    68    70   ar
    52    75    72    1
    53    75    76    1
    54     3     4    2
    55     3     9   am
    56    72    73    1
    57     9    10    1
    58    77    76   ar
    59    69    70   ar
    60    76    78   ar
    61    73    74    2
    62    10    11    1
    63    12    11    2
    64    95    93    1
    65    84    83    1
    66    93    92    2
    67    93    94    1
    68    92    91    1
    69    79    80    1
    70    83    80    1
    71    91    90    1
    72    80    81    1
    73    90    89    1
    74    81    82    2
    75    22    21    1
    76    89    86    1
    77    23    21    1
    78    21    20    2
    79    20    19    1
    80    86    85    1
    81    86    87    1
    82    19    18    1
    83    87    88    2
    84    18    17    1
    85    17    14    1
    86    13    14    1
    87    14    15    1
    88    15    16    2
