@<TRIPOS>MOLECULE
tmp/3lp1A00.pdb
 100 93 0 0 0
SMALL
GASTEIGER

@<TRIPOS>ATOM
      1  N        -12.1770   72.3400   31.1810 N.3   440  ASP440     -0.1225
      2  CA       -10.9820   72.3250   32.0180 C.3   440  ASP440      0.1805
      3  C        -11.2600   71.6550   33.3560 C.2   440  ASP440      0.2598
      4  O        -12.3960   71.6220   33.8280 O.2   440  ASP440     -0.2718
      5  CB       -10.4380   73.7400   32.2470 C.3   440  ASP440      0.1424
      6  CG        -8.9710   73.7440   32.6480 C.2   440  ASP440      0.3668
      7  OD1       -8.5450   74.6800   33.3560 O.co2 440  ASP440     -0.2456
      8  OD2       -8.2360   72.8100   32.2580 O.co2 440  ASP440     -0.2456
      9  N        -10.2060   71.1070   33.9490 N.am  441  GLY441     -0.1942
     10  CA       -10.2670   70.5530   35.2900 C.3   441  GLY441      0.2014
     11  C         -9.1880   71.1620   36.1600 C.2   441  GLY441      0.2638
     12  O         -8.2460   71.7790   35.6600 O.2   441  GLY441     -0.2714
     13  N         -9.3380   71.0010   37.4690 N.am  442  ALA442     -0.1977
     14  CA        -8.3390   71.4500   38.4270 C.3   442  ALA442      0.1597
     15  C         -8.3780   70.5320   39.6360 C.2   442  ALA442      0.2287
     16  O         -9.4540   70.1660   40.1070 O.2   442  ALA442     -0.2864
     17  CB        -8.5930   72.8940   38.8380 C.3   442  ALA442      0.0319
     18  N         -3.5680   68.6850   45.0980 N.3   445  ARG445     -0.1245
     19  CA        -2.8410   67.4470   45.4220 C.3   445  ARG445      0.1563
     20  C         -2.7440   67.1390   46.9180 C.2   445  ARG445      0.2260
     21  O         -2.4790   65.9970   47.2990 O.2   445  ARG445     -0.2867
     22  CB        -1.4620   67.3730   44.7420 C.3   445  ARG445      0.0307
     23  CG        -0.7840   68.6990   44.4550 C.3   445  ARG445      0.0489
     24  CD         0.3910   68.4900   43.5060 C.3   445  ARG445      0.2205
     25  NE         0.4700   69.5350   42.4820 N.pl3 445  ARG445     -0.0865
     26  CZ        -0.0720   69.4450   41.2670 C.cat 445  ARG445      0.5346
     27  NH1       -0.7370   68.3540   40.9020 N.pl3 445  ARG445      0.1354
     28  NH2        0.0520   70.4530   40.4090 N.pl3 445  ARG445      0.1354
     29  N         -9.7980   66.4620   33.9810 N.3   475  GLU475     -0.1245
     30  CA        -9.8160   66.7990   32.5560 C.3   475  GLU475      0.1567
     31  C        -10.7330   65.8580   31.7770 C.2   475  GLU475      0.2260
     32  O        -11.4590   66.2910   30.8800 O.2   475  GLU475     -0.2867
     33  CB        -8.4020   66.7670   31.9630 C.3   475  GLU475      0.0388
     34  CG        -7.3930   67.7100   32.6250 C.3   475  GLU475      0.1160
     35  CD        -7.5100   69.1660   32.1750 C.2   475  GLU475      0.3649
     36  OE1       -8.4020   69.5010   31.3640 O.co2 475  GLU475     -0.2457
     37  OE2       -6.6900   69.9850   32.6400 O.co2 475  GLU475     -0.2457
     38  N         -7.4890   71.6710   27.0150 N.3   495  ASP495     -0.1225
     39  CA        -6.0630   71.9880   27.1140 C.3   495  ASP495      0.1805
     40  C         -5.2570   70.7930   27.6330 C.2   495  ASP495      0.2598
     41  O         -4.0890   70.9270   28.0030 O.2   495  ASP495     -0.2718
     42  CB        -5.8150   73.2540   27.9530 C.3   495  ASP495      0.1424
     43  CG        -6.3900   73.1680   29.3590 C.2   495  ASP495      0.3668
     44  OD1       -6.4830   72.0560   29.9210 O.co2 495  ASP495     -0.2456
     45  OD2       -6.7440   74.2330   29.9120 O.co2 495  ASP495     -0.2456
     46  N         -5.9000   69.6290   27.6480 N.am  496  SER496     -0.1938
     47  CA        -5.2850   68.3900   28.1060 C.3   496  SER496      0.2055
     48  C         -4.8190   67.5470   26.9200 C.2   496  SER496      0.2642
     49  O         -5.6380   66.9820   26.1910 O.2   496  SER496     -0.2714
     50  CB        -6.2790   67.5990   28.9630 C.3   496  SER496      0.2130
     51  OG        -5.7000   66.4150   29.4820 O.3   496  SER496     -0.2179
     52  N         -3.5030   67.4760   26.7310 N.am  497  GLN497     -0.1976
     53  CA        -2.9070   66.6050   25.7140 C.3   497  GLN497      0.1601
     54  C         -3.1100   65.1360   26.0630 C.2   497  GLN497      0.2287
     55  O         -3.2770   64.2980   25.1780 O.2   497  GLN497     -0.2864
     56  CB        -1.4160   66.8980   25.5450 C.3   497  GLN497      0.0394
     57  CG        -1.1220   68.1420   24.7280 C.3   497  GLN497      0.0908
     58  CD         0.3330   68.2560   24.2980 C.2   497  GLN497      0.2608
     59  OE1        0.7670   69.3150   23.8440 O.2   497  GLN497     -0.2717
     60  NE2        1.0920   67.1690   24.4360 N.am  497  GLN497     -0.0878
     61  N         -2.6680   75.7550   27.6840 N.3   535  ALA535     -0.1231
     62  CA        -3.2640   76.2860   28.9080 C.3   535  ALA535      0.1694
     63  C         -2.5910   77.5870   29.3330 C.2   535  ALA535      0.2592
     64  O         -1.3660   77.7140   29.2610 O.2   535  ALA535     -0.2718
     65  CB        -3.1940   75.2560   30.0280 C.3   535  ALA535      0.0304
     66  N         -3.4110   78.5410   29.7760 N.am  536  HIS536     -0.1976
     67  CA        -2.9580   79.8500   30.2640 C.3   536  HIS536      0.1656
     68  C         -2.2110   80.6780   29.2210 C.2   536  HIS536      0.2291
     69  O         -1.0610   81.0750   29.4290 O.2   536  HIS536     -0.2864
     70  CB        -2.1440   79.7160   31.5560 C.3   536  HIS536      0.0771
     71  CG        -2.9720   79.3600   32.7480 C.ar  536  HIS536      0.0820
     72  ND1       -2.9930   78.0930   33.2890 N.ar  536  HIS536     -0.2267
     73  CD2       -3.8250   80.1020   33.4920 C.ar  536  HIS536      0.1154
     74  CE1       -3.8150   78.0730   34.3230 C.ar  536  HIS536      0.1986
     75  NE2       -4.3330   79.2790   34.4670 N.ar  536  HIS536     -0.2212
     76  N        -10.9730   77.8560   33.2130 N.3   546  ASP546     -0.1239
     77  CA        -9.8580   77.7710   34.1480 C.3   546  ASP546      0.1674
     78  C        -10.1500   78.4870   35.4660 C.2   546  ASP546      0.2266
     79  O         -9.9600   77.9090   36.5350 O.2   546  ASP546     -0.2867
     80  CB        -8.5760   78.3180   33.5180 C.3   546  ASP546      0.1410
     81  CG        -7.3950   78.2590   34.4640 C.2   546  ASP546      0.3668
     82  OD1       -6.8990   77.1450   34.7320 O.co2 546  ASP546     -0.2456
     83  OD2       -6.9610   79.3280   34.9410 O.co2 546  ASP546     -0.2456
     84  N        -10.7180   76.4260   38.9040 N.3   550  SER550     -0.1217
     85  CA        -9.6040   76.6440   39.8300 C.3   550  SER550      0.1889
     86  C        -10.0410   77.3390   41.1170 C.2   550  SER550      0.2288
     87  O         -9.3020   77.3440   42.1060 O.2   550  SER550     -0.2866
     88  CB        -8.4830   77.4430   39.1590 C.3   550  SER550      0.2089
     89  OG        -7.9480   76.7340   38.0550 O.3   550  SER550     -0.2183
     90  N         -7.0190   75.8490   43.4840 N.3   554  ARG554     -0.1197
     91  CA        -5.6420   76.3480   43.4420 C.3   554  ARG554      0.1779
     92  C         -5.5980   77.8780   43.4190 C.2   554  ARG554      0.2305
     93  O         -4.5260   78.4820   43.3340 O.2   554  ARG554     -0.2863
     94  CB        -4.8750   75.7560   42.2490 C.2   554  ARG554     -0.0007
     95  CG        -5.3740   76.1900   40.8630 C.2   554  ARG554      0.0176
     96  CD        -4.6060   75.6290   39.7110 C.3   554  ARG554      0.2464
     97  NE        -4.7760   74.1580   39.6410 N.pl3 554  ARG554     -0.0815
     98  CZ        -3.9430   73.3520   39.0050 C.cat 554  ARG554      0.5349
     99  NH1       -2.9430   73.8810   38.3050 N.pl3 554  ARG554      0.1354
    100  NH2       -4.1240   72.0440   39.0840 N.pl3 554  ARG554      0.1354
@<TRIPOS>BOND
     1    59    58    2
     2    58    60   am
     3    58    57    1
     4    57    56    1
     5    55    54    2
     6    56    53    1
     7    53    54    1
     8    53    52    1
     9    49    48    2
    10    52    48   am
    11    48    47    1
    12    38    39    1
    13    39    40    1
    14    39    42    1
    15    40    46   am
    16    40    41    2
    17    46    47    1
    18    61    62    1
    19    42    43    1
    20    47    50    1
    21    62    63    1
    22    62    65    1
    23    50    51    1
    24    68    69    2
    25    68    67    1
    26    64    63    2
    27    63    66   am
    28    43    45   ar
    29    43    44   ar
    30    66    67    1
    31    67    70    1
    32    32    31    2
    33     1     2    1
    34    36    35   ar
    35    70    71    1
    36    31    30    1
    37    33    30    1
    38    33    34    1
    39     2     5    1
    40     2     3    1
    41    35    34    1
    42    35    37   ar
    43     5     6    1
    44     8     6   ar
    45    30    29    1
    46     6     7   ar
    47    71    72   ar
    48    71    73   ar
    49    76    77    1
    50    72    74   ar
    51     3     4    2
    52     3     9   am
    53    73    75   ar
    54    80    77    1
    55    80    81    1
    56     9    10    1
    57    77    78    1
    58    74    75   ar
    59    81    82   ar
    60    81    83   ar
    61    10    11    1
    62    78    79    2
    63    12    11    2
    64    11    13   am
    65    13    14    1
    66    89    88    1
    67    99    98    1
    68    14    17    1
    69    14    15    1
    70    84    85    1
    71    98   100    1
    72    98    97    2
    73    88    85    1
    74    15    16    2
    75    97    96    1
    76    96    95    1
    77    85    86    1
    78    28    26    1
    79    95    94    2
    80    27    26    1
    81    86    87    2
    82    26    25    2
    83    94    91    1
    84    25    24    1
    85    93    92    2
    86    92    91    1
    87    91    90    1
    88    24    23    1
    89    23    22    1
    90    22    19    1
    91    18    19    1
    92    19    20    1
    93    20    21    2
