@<TRIPOS>MOLECULE
tmp/3lp2A00.pdb
 156 156 0 0 0
SMALL
GASTEIGER

@<TRIPOS>ATOM
      1  N         12.1350   21.9160   22.0690 N.3    92  PRO92      -0.2116
      2  CA        11.4660   21.7370   20.7820 C.3    92  PRO92       0.1372
      3  C          9.9730   21.4880   20.9600 C.2    92  PRO92       0.2244
      4  O          9.5720   20.7370   21.8570 O.2    92  PRO92      -0.2868
      5  CB        12.1540   20.5000   20.1870 C.3    92  PRO92       0.0268
      6  CG        12.8060   19.8180   21.3310 C.3    92  PRO92       0.0207
      7  CD        13.1630   20.8860   22.3070 C.3    92  PRO92       0.0892
      8  N          6.5160   19.8540   19.6110 N.3    94  PRO94      -0.2116
      9  CA         6.0170   18.7800   18.7540 C.3    94  PRO94       0.1372
     10  C          5.4800   19.2560   17.4010 C.2    94  PRO94       0.2244
     11  O          5.7420   18.6130   16.3830 O.2    94  PRO94      -0.2868
     12  CB         4.8970   18.1660   19.5920 C.3    94  PRO94       0.0268
     13  CG         5.3370   18.3790   20.9820 C.3    94  PRO94       0.0207
     14  CD         6.0300   19.7060   20.9950 C.3    94  PRO94       0.0892
     15  N          8.0100   19.3900   14.3340 N.3    97  LEU97      -0.1245
     16  CA         8.7250   18.2040   13.8790 C.3    97  LEU97       0.1561
     17  C          8.1730   17.7380   12.5380 C.2    97  LEU97       0.2260
     18  O          6.9770   17.8530   12.2870 O.2    97  LEU97      -0.2867
     19  CB         8.6100   17.0850   14.9160 C.3    97  LEU97       0.0270
     20  CG         8.8080   17.4630   16.3900 C.3    97  LEU97       0.0019
     21  CD1        8.4730   16.2900   17.2990 C.3    97  LEU97       0.0001
     22  CD2       10.2160   17.9800   16.6650 C.3    97  LEU97       0.0001
     23  N         12.7490    5.5370   19.8020 N.3   105  VAL105     -0.1245
     24  CA        13.1880    6.3820   20.8940 C.3   105  VAL105      0.1561
     25  C         14.3040    5.7270   21.7140 C.2   105  VAL105      0.2260
     26  O         14.1330    4.6340   22.2660 O.2   105  VAL105     -0.2867
     27  CB        11.9740    6.7730   21.7720 C.3   105  VAL105      0.0252
     28  CG1       12.4010    7.1910   23.1650 C.3   105  VAL105      0.0019
     29  CG2       11.1700    7.8740   21.0880 C.3   105  VAL105      0.0019
     30  N         16.6690   14.2020   16.9480 N.3   178  TYR178     -0.1227
     31  CA        16.3950   15.2110   17.9570 C.3   178  TYR178      0.1736
     32  C         16.9420   14.7090   19.2880 C.2   178  TYR178      0.2595
     33  O         16.6660   13.5820   19.6970 O.2   178  TYR178     -0.2718
     34  CB        14.8910   15.4900   18.0640 C.3   178  TYR178      0.0548
     35  CG        14.2400   15.9460   16.7730 C.ar  178  TYR178     -0.0200
     36  CD1       14.2630   17.2890   16.3930 C.ar  178  TYR178     -0.0009
     37  CD2       13.5920   15.0360   15.9370 C.ar  178  TYR178     -0.0009
     38  CE1       13.6640   17.7160   15.2050 C.ar  178  TYR178      0.0417
     39  CE2       12.9880   15.4520   14.7430 C.ar  178  TYR178      0.0417
     40  CZ        13.0290   16.7940   14.3840 C.ar  178  TYR178      0.1957
     41  OH        12.4370   17.2110   13.2100 O.3   178  TYR178     -0.2866
     42  N         17.7340   15.5400   19.9530 N.am  179  GLN179     -0.1965
     43  CA        18.2670   15.1800   21.2620 C.3   179  GLN179      0.1733
     44  C         18.0620   16.2780   22.2960 C.2   179  GLN179      0.2616
     45  O         18.4210   17.4350   22.0760 O.2   179  GLN179     -0.2715
     46  CB        19.7380   14.7380   21.1700 C.3   179  GLN179      0.0408
     47  CG        20.7200   15.7630   20.5860 C.3   179  GLN179      0.0908
     48  CD        21.5440   16.4820   21.6480 C.2   179  GLN179      0.2608
     49  OE1       22.3950   17.3110   21.3220 O.2   179  GLN179     -0.2717
     50  NE2       21.3010   16.1630   22.9200 N.am  179  GLN179     -0.0878
     51  N         17.4490   15.9080   23.4130 N.am  180  TYR180     -0.1974
     52  CA        17.2440   16.8220   24.5220 C.3   180  TYR180      0.1639
     53  C         17.4230   16.0610   25.8270 C.2   180  TYR180      0.2290
     54  O         16.8550   14.9850   26.0050 O.2   180  TYR180     -0.2864
     55  CB        15.8630   17.4880   24.4420 C.3   180  TYR180      0.0560
     56  CG        15.6440   18.5290   25.5150 C.ar  180  TYR180     -0.0198
     57  CD1       16.2090   19.7970   25.4040 C.ar  180  TYR180     -0.0009
     58  CD2       14.8890   18.2380   26.6490 C.ar  180  TYR180     -0.0009
     59  CE1       16.0260   20.7490   26.3910 C.ar  180  TYR180      0.0417
     60  CE2       14.6970   19.1830   27.6400 C.ar  180  TYR180      0.0417
     61  CZ        15.2710   20.4360   27.5060 C.ar  180  TYR180      0.1957
     62  OH        15.0840   21.3820   28.4850 O.3   180  TYR180     -0.2866
     63  N         17.6890   12.1210   26.2350 N.3   183  ASP183     -0.1225
     64  CA        16.7000   11.4940   25.3610 C.3   183  ASP183      0.1805
     65  C         17.0330   11.7260   23.8960 C.2   183  ASP183      0.2598
     66  O         17.5290   12.7860   23.5250 O.2   183  ASP183     -0.2718
     67  CB        15.2970   12.0200   25.6570 C.3   183  ASP183      0.1424
     68  CG        14.6540   11.3470   26.8540 C.2   183  ASP183      0.3668
     69  OD1       15.0480   10.2120   27.2010 O.co2 183  ASP183     -0.2456
     70  OD2       13.7350   11.9540   27.4440 O.co2 183  ASP183     -0.2456
     71  N         16.7470   10.7240   23.0720 N.am  184  LEU184     -0.1966
     72  CA        17.0350   10.7710   21.6460 C.3   184  LEU184      0.1728
     73  C         15.8090   10.3610   20.8450 C.2   184  LEU184      0.2616
     74  O         15.2220    9.3050   21.0820 O.2   184  LEU184     -0.2715
     75  CB        18.2140    9.8560   21.3050 C.3   184  LEU184      0.0311
     76  CG        19.6090   10.2120   21.8260 C.3   184  LEU184      0.0022
     77  CD1       20.4450    8.9590   21.9790 C.3   184  LEU184      0.0001
     78  CD2       20.3110   11.2040   20.9170 C.3   184  LEU184      0.0001
     79  N         15.4310   11.2180   19.9040 N.am  185  TYR185     -0.1974
     80  CA        14.2990   10.9910   19.0190 C.3   185  TYR185      0.1639
     81  C         14.8620   10.7980   17.6210 C.2   185  TYR185      0.2290
     82  O         15.3710   11.7410   17.0090 O.2   185  TYR185     -0.2864
     83  CB        13.3660   12.2060   19.0590 C.3   185  TYR185      0.0560
     84  CG        12.0260   12.0400   18.3650 C.ar  185  TYR185     -0.0198
     85  CD1       10.8810   11.7060   19.0930 C.ar  185  TYR185     -0.0009
     86  CD2       11.8930   12.2490   16.9860 C.ar  185  TYR185     -0.0009
     87  CE1        9.6420   11.5670   18.4670 C.ar  185  TYR185      0.0417
     88  CE2       10.6590   12.1090   16.3490 C.ar  185  TYR185      0.0417
     89  CZ         9.5380   11.7670   17.0980 C.ar  185  TYR185      0.1957
     90  OH         8.3120   11.6250   16.4850 O.3   185  TYR185     -0.2866
     91  N         11.5260    1.9570   23.6380 N.3   220  LYS220     -0.1231
     92  CA        10.1380    2.3370   23.9010 C.3   220  LYS220      0.1693
     93  C          9.2370    2.2560   22.6690 C.2   220  LYS220      0.2591
     94  O          9.7160    2.2780   21.5300 O.2   220  LYS220     -0.2718
     95  CB        10.1000    3.7500   24.5000 C.3   220  LYS220      0.0285
     96  CG         9.1120    3.9440   25.6580 C.3   220  LYS220      0.0035
     97  CD         9.6040    3.3310   26.9790 C.3   220  LYS220      0.0206
     98  CE        10.9700    3.8640   27.4160 C.3   220  LYS220      0.1093
     99  NZ        10.9710    5.3290   27.6920 N.3   220  LYS220     -0.1314
    100  N          7.9320    2.1570   22.9190 N.am  221  GLU221     -0.1979
    101  CA         6.9230    2.1040   21.8610 C.3   221  GLU221      0.1602
    102  C          5.9260    3.2680   21.9550 C.2   221  GLU221      0.2287
    103  O          5.5630    3.6800   23.0630 O.2   221  GLU221     -0.2864
    104  CB         6.1800    0.7670   21.9000 C.3   221  GLU221      0.0415
    105  CG         6.9540   -0.4000   21.2920 C.3   221  GLU221      0.1163
    106  CD         6.0780   -1.6200   21.0320 C.2   221  GLU221      0.3649
    107  OE1        5.1170   -1.8540   21.8010 O.co2 221  GLU221     -0.2457
    108  OE2        6.3570   -2.3480   20.0550 O.co2 221  GLU221     -0.2457
    109  N          2.3470    5.4340   21.8010 N.3   223  PRO223     -0.2102
    110  CA         2.6150    6.8620   22.0160 C.3   223  PRO223      0.1504
    111  C          3.7130    7.1660   23.0380 C.2   223  PRO223      0.2576
    112  O          3.7300    6.5920   24.1360 O.2   223  PRO223     -0.2718
    113  CB         1.2720    7.3970   22.5220 C.3   223  PRO223      0.0282
    114  CG         0.6170    6.2300   23.1510 C.3   223  PRO223      0.0208
    115  CD         1.0130    5.0570   22.3080 C.3   223  PRO223      0.0893
    116  N          4.6120    8.0740   22.6610 N.am  224  PHE224     -0.1963
    117  CA         5.7110    8.5090   23.5170 C.3   224  PHE224      0.1771
    118  C          5.2720    9.6300   24.4560 C.2   224  PHE224      0.2619
    119  O          4.9350   10.7260   24.0060 O.2   224  PHE224     -0.2715
    120  CB         6.8950    8.9800   22.6690 C.3   224  PHE224      0.0574
    121  CG         7.3160    8.0020   21.6050 C.ar  224  PHE224     -0.0200
    122  CD1        7.7990    6.7390   21.9440 C.ar  224  PHE224     -0.0042
    123  CD2        7.2480    8.3530   20.2570 C.ar  224  PHE224     -0.0042
    124  CE1        8.1950    5.8350   20.9550 C.ar  224  PHE224     -0.0003
    125  CE2        7.6430    7.4530   19.2590 C.ar  224  PHE224     -0.0003
    126  CZ         8.1180    6.1930   19.6120 C.ar  224  PHE224     -0.0000
    127  N          5.2660    9.3450   25.7570 N.am  225  LEU225     -0.1963
    128  CA         4.9630   10.3490   26.7740 C.3   225  LEU225      0.1728
    129  C          6.2230   11.1620   27.0480 C.2   225  LEU225      0.2616
    130  O          7.2140   10.6250   27.5390 O.2   225  LEU225     -0.2715
    131  CB         4.4750    9.6920   28.0780 C.3   225  LEU225      0.0311
    132  CG         3.1440    8.9310   28.2460 C.3   225  LEU225      0.0022
    133  CD1        1.9290    9.7490   27.8000 C.3   225  LEU225      0.0001
    134  CD2        3.1590    7.5630   27.5610 C.3   225  LEU225      0.0001
    135  N          6.1880   12.4530   26.7270 N.am  226  TRP226     -0.1974
    136  CA         7.3630   13.3170   26.8730 C.3   226  TRP226      0.1640
    137  C          6.9680   14.7540   27.1650 C.2   226  TRP226      0.2290
    138  O          6.1930   15.3450   26.4180 O.2   226  TRP226     -0.2864
    139  CB         8.2170   13.2600   25.6040 C.3   226  TRP226      0.0576
    140  CG         9.4070   14.1830   25.5900 C.ar  226  TRP226      0.0006
    141  CD1       10.6380   13.9340   26.1140 C.ar  226  TRP226      0.0946
    142  CD2        9.4830   15.4870   24.9940 C.ar  226  TRP226      0.0152
    143  NE1       11.4750   15.0010   25.8970 N.ar  226  TRP226     -0.2442
    144  CE2       10.7920   15.9690   25.2110 C.ar  226  TRP226      0.0810
    145  CE3        8.5700   16.2970   24.3010 C.ar  226  TRP226      0.0012
    146  CZ2       11.2140   17.2290   24.7630 C.ar  226  TRP226      0.0191
    147  CZ3        8.9930   17.5520   23.8570 C.ar  226  TRP226      0.0001
    148  CH2       10.3030   18.0010   24.0900 C.ar  226  TRP226      0.0015
    149  N          3.0420   11.6540   21.9360 N.3   231  LEU231     -0.1245
    150  CA         3.6590   11.7200   20.6090 C.3   231  LEU231      0.1561
    151  C          3.5260   10.4330   19.8100 C.2   231  LEU231      0.2260
    152  O          3.9750    9.3750   20.2460 O.2   231  LEU231     -0.2867
    153  CB         5.1390   12.0860   20.7290 C.3   231  LEU231      0.0270
    154  CG         5.5040   13.5290   21.0840 C.3   231  LEU231      0.0019
    155  CD1        6.7880   13.5600   21.8900 C.3   231  LEU231      0.0001
    156  CD2        5.6250   14.3910   19.8350 C.3   231  LEU231      0.0001
@<TRIPOS>BOND
     1    18    17    2
     2    17    16    1
     3    41    40    1
     4    16    15    1
     5    16    19    1
     6    40    39   ar
     7    40    38   ar
     8    39    37   ar
     9    19    20    1
    10    38    36   ar
    11    37    35   ar
    12    88    86   ar
    13    88    89   ar
    14    11    10    2
    15    20    22    1
    16    20    21    1
    17    36    35   ar
    18    90    89    1
    19    35    34    1
    20    30    31    1
    21    86    84   ar
    22    82    81    2
    23    89    87   ar
    24    10     9    1
    25    81    80    1
    26    31    34    1
    27    31    32    1
    28    84    83    1
    29    84    85   ar
    30    87    85   ar
    31     9    12    1
    32     9     8    1
    33    80    83    1
    34    80    79    1
    35   125   126   ar
    36   125   123   ar
    37    32    33    2
    38    32    42   am
    39    12    13    1
    40     8    14    1
    41   126   124   ar
    42    23    24    1
    43   151   152    2
    44   151   150    1
    45   156   154    1
    46    79    73   am
    47    42    43    1
    48   108   106   ar
    49     5     2    1
    50     5     6    1
    51   123   121   ar
    52    47    46    1
    53    47    48    1
    54   150   153    1
    55   150   149    1
    56   153   154    1
    57     2     3    1
    58     2     1    1
    59    73    74    2
    60    73    72    1
    61    24    25    1
    62    24    27    1
    63    78    76    1
    64   124   122   ar
    65     3     4    2
    66    13    14    1
    67   106   105    1
    68   106   107   ar
    69   154   155    1
    70    29    27    1
    71    46    43    1
    72    43    44    1
    73   105   104    1
    74    75    72    1
    75    75    76    1
    76    49    48    2
    77     6     7    1
    78    94    93    2
    79   121   122   ar
    80   121   120    1
    81    72    71    1
    82    48    50   am
    83    25    26    2
    84    27    28    1
    85   109   110    1
    86   109   115    1
    87    76    77    1
    88   101   104    1
    89   101   102    1
    90   101   100    1
    91   102   103    2
    92   110   113    1
    93   110   111    1
    94     1     7    1
    95    45    44    2
    96    44    51   am
    97   115   114    1
    98   113   114    1
    99   116   111   am
   100   116   117    1
   101    93   100   am
   102    93    92    1
   103   120   117    1
   104   111   112    2
   105    71    65   am
   106    51    52    1
   107   117   118    1
   108    66    65    2
   109    91    92    1
   110   147   148   ar
   111   147   145   ar
   112    65    64    1
   113    92    95    1
   114   119   118    2
   115   148   146   ar
   116   145   142   ar
   117    55    52    1
   118    55    56    1
   119   118   127   am
   120    95    96    1
   121    52    53    1
   122   146   144   ar
   123   142   144   ar
   124   142   140   ar
   125   144   143   ar
   126    64    67    1
   127    64    63    1
   128    57    56   ar
   129    57    59   ar
   130    56    58   ar
   131   140   139    1
   132   140   141   ar
   133   139   136    1
   134    67    68    1
   135    96    97    1
   136   127   128    1
   137    53    54    2
   138   143   141   ar
   139    59    61   ar
   140   138   137    2
   141    58    60   ar
   142   135   136    1
   143   135   129   am
   144   128   129    1
   145   128   131    1
   146    68    69   ar
   147    68    70   ar
   148   136   137    1
   149    97    98    1
   150   129   130    2
   151    98    99    1
   152    61    60   ar
   153    61    62    1
   154   134   132    1
   155   133   132    1
   156   131   132    1
