@<TRIPOS>MOLECULE
tmp/3lp3A00.pdb
 108 101 0 0 0
SMALL
GASTEIGER

@<TRIPOS>ATOM
      1  N        -13.2200   23.9310   40.7660 N.3    18  ASP18      -0.1225
      2  CA       -13.9630   23.5300   39.5740 C.3    18  ASP18       0.1805
      3  C        -13.0420   23.4140   38.3670 C.2    18  ASP18       0.2598
      4  O        -11.9470   23.9820   38.3400 O.2    18  ASP18      -0.2718
      5  CB       -15.1020   24.5090   39.2660 C.3    18  ASP18       0.1424
      6  CG       -16.2100   23.8810   38.4300 C.2    18  ASP18       0.3668
      7  OD1      -16.0430   22.7460   37.9400 O.co2  18  ASP18      -0.2456
      8  OD2      -17.2620   24.5270   38.2590 O.co2  18  ASP18      -0.2456
      9  N        -13.5000   22.6590   37.3760 N.am   19  GLY19      -0.1957
     10  CA       -12.8010   22.5090   36.1120 C.3    19  GLY19       0.1869
     11  C        -13.7840   22.5790   34.9630 C.2    19  GLY19       0.2309
     12  O        -15.0010   22.5080   35.1660 O.2    19  GLY19      -0.2863
     13  N        -14.6730   19.4710   24.7100 N.3    23  ARG23      -0.1245
     14  CA       -14.5200   18.0980   24.2220 C.3    23  ARG23       0.1563
     15  C        -13.8700   17.9780   22.8370 C.2    23  ARG23       0.2260
     16  O        -13.1170   17.0310   22.5840 O.2    23  ARG23      -0.2867
     17  CB       -15.8630   17.3660   24.2720 C.3    23  ARG23       0.0307
     18  CG       -16.2720   16.9540   25.6900 C.3    23  ARG23       0.0489
     19  CD       -17.7510   16.5920   25.7990 C.3    23  ARG23       0.2205
     20  NE       -18.1180   15.4670   24.9380 N.pl3  23  ARG23      -0.0865
     21  CZ       -18.7800   15.5840   23.7890 C.cat  23  ARG23       0.5346
     22  NH1      -19.1630   16.7780   23.3490 N.pl3  23  ARG23       0.1354
     23  NH2      -19.0630   14.5020   23.0760 N.pl3  23  ARG23       0.1354
     24  N         -9.5620   16.3190   29.9580 N.3    48  THR48      -0.1203
     25  CA       -10.9840   16.0200   30.1420 C.3    48  THR48       0.1994
     26  C        -11.4800   16.7220   31.3980 C.2    48  THR48       0.2618
     27  O        -10.6740   17.1340   32.2320 O.2    48  THR48      -0.2717
     28  CB       -11.2360   14.5000   30.2950 C.3    48  THR48       0.1784
     29  OG1      -10.4330   13.9830   31.3640 O.3    48  THR48      -0.2211
     30  CG2      -10.9000   13.7560   29.0060 C.3    48  THR48       0.0376
     31  N        -12.8000   16.8530   31.5360 N.am   49  ASN49      -0.1960
     32  CA       -13.3940   17.4610   32.7320 C.3    49  ASN49       0.1819
     33  C        -12.8580   16.8300   34.0150 C.2    49  ASN49       0.2621
     34  O        -12.3690   17.5300   34.9020 O.2    49  ASN49      -0.2715
     35  CB       -14.9240   17.3850   32.6980 C.3    49  ASN49       0.1195
     36  CG       -15.5330   18.3070   31.6520 C.2    49  ASN49       0.2630
     37  OD1      -16.0220   19.3970   31.9760 O.2    49  ASN49      -0.2716
     38  ND2      -15.5040   17.8780   30.3890 N.am   49  ASN49      -0.0877
     39  N        -12.9370   15.5030   34.0840 N.am   50  GLN50      -0.1977
     40  CA       -12.4050   14.7200   35.1970 C.3    50  GLN50       0.1601
     41  C        -11.0130   15.1960   35.6210 C.2    50  GLN50       0.2287
     42  O        -10.8020   15.5580   36.7800 O.2    50  GLN50      -0.2864
     43  CB       -12.3620   13.2390   34.8130 C.3    50  GLN50       0.0394
     44  CG       -13.6970   12.5120   34.9060 C.3    50  GLN50       0.0908
     45  CD       -14.7560   13.0070   33.9330 C.2    50  GLN50       0.2608
     46  OE1      -14.4810   13.2760   32.7590 O.2    50  GLN50      -0.2717
     47  NE2      -15.9870   13.1130   34.4210 N.am   50  GLN50      -0.0878
     48  N        -10.9430   18.7010   37.0110 N.3    53  GLU53      -0.1245
     49  CA       -11.5140   18.6810   38.3560 C.3    53  GLU53       0.1567
     50  C        -10.4910   18.2170   39.3930 C.2    53  GLU53       0.2260
     51  O        -10.4010   18.7890   40.4800 O.2    53  GLU53      -0.2867
     52  CB       -12.7660   17.7960   38.4020 C.3    53  GLU53       0.0388
     53  CG       -13.9560   18.3050   37.5830 C.3    53  GLU53       0.1160
     54  CD       -14.7560   19.3980   38.2750 C.2    53  GLU53       0.3649
     55  OE1      -14.3110   19.9250   39.3170 O.co2  53  GLU53      -0.2457
     56  OE2      -15.8450   19.7340   37.7690 O.co2  53  GLU53      -0.2457
     57  N        -17.6650   19.8780   42.9260 N.3    73  ASP73      -0.1225
     58  CA       -18.8880   19.3370   42.3310 C.3    73  ASP73       0.1805
     59  C        -18.5900   18.0790   41.5120 C.2    73  ASP73       0.2598
     60  O        -19.3970   17.6530   40.6870 O.2    73  ASP73      -0.2718
     61  CB       -19.6650   20.3990   41.5200 C.3    73  ASP73       0.1424
     62  CG       -18.8570   20.9980   40.3770 C.2    73  ASP73       0.3668
     63  OD1      -18.1270   20.2610   39.6800 O.co2  73  ASP73      -0.2456
     64  OD2      -18.9670   22.2220   40.1590 O.co2  73  ASP73      -0.2456
     65  N        -17.4270   17.4870   41.7650 N.am   74  SER74      -0.1938
     66  CA       -16.9760   16.3130   41.0300 C.3    74  SER74       0.2055
     67  C        -17.1550   15.0290   41.8400 C.2    74  SER74       0.2642
     68  O        -16.3890   14.7530   42.7670 O.2    74  SER74      -0.2714
     69  CB       -15.5130   16.4870   40.6090 C.3    74  SER74       0.2130
     70  OG       -15.0400   15.3680   39.8800 O.3    74  SER74      -0.2179
     71  N        -18.1710   14.2500   41.4800 N.am   75  GLN75      -0.1976
     72  CA       -18.3940   12.9320   42.0790 C.3    75  GLN75       0.1601
     73  C        -17.2320   11.9840   41.7850 C.2    75  GLN75       0.2287
     74  O        -16.8800   11.1410   42.6080 O.2    75  GLN75      -0.2864
     75  CB       -19.7090   12.3370   41.5780 C.3    75  GLN75       0.0394
     76  CG       -20.9390   12.8160   42.3300 C.3    75  GLN75       0.0908
     77  CD       -21.1070   12.1200   43.6670 C.2    75  GLN75       0.2608
     78  OE1      -21.1420   10.8890   43.7410 O.2    75  GLN75      -0.2717
     79  NE2      -21.2090   12.9060   44.7360 N.am   75  GLN75      -0.0878
     80  N        -23.4180   20.7990   40.9860 N.3   113  ALA113     -0.1231
     81  CA       -23.1100   21.8780   40.0450 C.3   113  ALA113      0.1694
     82  C        -24.3640   22.6400   39.6050 C.2   113  ALA113      0.2592
     83  O        -25.4400   22.0540   39.4510 O.2   113  ALA113     -0.2718
     84  CB       -22.3630   21.3360   38.8320 C.3   113  ALA113      0.0304
     85  N        -24.2080   23.9490   39.4150 N.am  114  HIS114     -0.1976
     86  CA       -25.2750   24.8260   38.9120 C.3   114  HIS114      0.1656
     87  C        -26.5710   24.7470   39.7190 C.2   114  HIS114      0.2291
     88  O        -27.6560   24.6040   39.1530 O.2   114  HIS114     -0.2864
     89  CB       -25.5450   24.5590   37.4260 C.3   114  HIS114      0.0771
     90  CG       -24.3330   24.7000   36.5630 C.ar  114  HIS114      0.0820
     91  ND1      -23.9600   25.8990   35.9960 N.ar  114  HIS114     -0.2267
     92  CD2      -23.3990   23.7960   36.1820 C.ar  114  HIS114      0.1154
     93  CE1      -22.8550   25.7250   35.2930 C.ar  114  HIS114      0.1986
     94  NE2      -22.4930   24.4590   35.3920 N.ar  114  HIS114     -0.2212
     95  N        -17.0440   28.2500   38.8920 N.3   124  ASP124     -0.1239
     96  CA       -17.5660   27.7510   37.6210 C.3   124  ASP124      0.1674
     97  C        -17.4820   28.8330   36.5520 C.2   124  ASP124      0.2266
     98  O        -16.9400   28.6040   35.4730 O.2   124  ASP124     -0.2867
     99  CB       -19.0180   27.2860   37.7760 C.3   124  ASP124      0.1410
    100  CG       -19.5790   26.6850   36.5010 C.2   124  ASP124      0.3668
    101  OD1      -20.4150   27.3420   35.8530 O.co2 124  ASP124     -0.2456
    102  OD2      -19.1750   25.5630   36.1390 O.co2 124  ASP124     -0.2456
    103  N        -15.2750   28.2770   33.3090 N.3   128  SER128     -0.1217
    104  CA       -16.1210   28.0740   32.1300 C.3   128  SER128      0.1889
    105  C        -15.8510   29.0970   31.0280 C.2   128  SER128      0.2288
    106  O        -15.8990   28.7610   29.8420 O.2   128  SER128     -0.2866
    107  CB       -17.6050   28.0920   32.5070 C.3   128  SER128      0.2089
    108  OG       -17.9230   27.0160   33.3730 O.3   128  SER128     -0.2183
@<TRIPOS>BOND
     1    16    15    2
     2    15    14    1
     3    23    21    1
     4    22    21    1
     5    21    20    2
     6    14    17    1
     7    14    13    1
     8    17    18    1
     9    20    19    1
    10    18    19    1
    11    30    28    1
    12   106   105    2
    13    24    25    1
    14    25    28    1
    15    25    26    1
    16    28    29    1
    17    38    36   am
    18   105   104    1
    19    26    31   am
    20    26    27    2
    21    31    32    1
    22    36    37    2
    23    36    35    1
    24   104   107    1
    25   104   103    1
    26   107   108    1
    27    35    32    1
    28    32    33    1
    29    46    45    2
    30    45    47   am
    31    45    44    1
    32    33    39   am
    33    33    34    2
    34    39    40    1
    35    43    44    1
    36    43    40    1
    37    11    12    2
    38    11    10    1
    39    40    41    1
    40    93    94   ar
    41    93    91   ar
    42    94    92   ar
    43    98    97    2
    44    41    42    2
    45   101   100   ar
    46    91    90   ar
    47    10     9    1
    48   102   100   ar
    49    92    90   ar
    50   100    99    1
    51    97    96    1
    52    90    89    1
    53    48    49    1
    54     9     3   am
    55    89    86    1
    56    53    54    1
    57    53    52    1
    58    96    99    1
    59    96    95    1
    60    56    54   ar
    61     7     6   ar
    62     8     6   ar
    63    54    55   ar
    64     4     3    2
    65    49    52    1
    66    49    50    1
    67     3     2    1
    68     6     5    1
    69    84    81    1
    70    86    85    1
    71    86    87    1
    72    88    87    2
    73     5     2    1
    74    50    51    2
    75    85    82   am
    76    83    82    2
    77     2     1    1
    78    82    81    1
    79    63    62   ar
    80    70    69    1
    81    81    80    1
    82    64    62   ar
    83    62    61    1
    84    69    66    1
    85    60    59    2
    86    66    65    1
    87    66    67    1
    88    71    67   am
    89    71    72    1
    90    59    65   am
    91    59    58    1
    92    61    58    1
    93    75    72    1
    94    75    76    1
    95    73    72    1
    96    73    74    2
    97    67    68    2
    98    76    77    1
    99    58    57    1
   100    77    78    2
   101    77    79   am
