@<TRIPOS>MOLECULE
tmp/3lp4B00.pdb
 125 114 0 0 0
SMALL
GASTEIGER

@<TRIPOS>ATOM
      1  N         17.6730  -44.2610   36.2580 N.3   121  HIS121     -0.1241
      2  CA        18.6550  -43.2140   35.9710 C.3   121  HIS121      0.1621
      3  C         19.6200  -43.5490   34.8280 C.2   121  HIS121      0.2264
      4  O         19.9170  -44.7160   34.5670 O.2   121  HIS121     -0.2867
      5  CB        19.4760  -42.9120   37.2320 C.3   121  HIS121      0.0745
      6  CG        18.6750  -42.9570   38.4960 C.ar  121  HIS121      0.0817
      7  ND1       18.5630  -44.0950   39.2640 N.ar  121  HIS121     -0.2268
      8  CD2       17.9090  -42.0180   39.1020 C.ar  121  HIS121      0.1154
      9  CE1       17.7630  -43.8560   40.2880 C.ar  121  HIS121      0.1986
     10  NE2       17.3520  -42.6030   40.2120 N.ar  121  HIS121     -0.2212
     11  N         22.7700  -42.5120   34.7750 N.3   123  ASP123     -0.1239
     12  CA        24.0980  -42.7050   35.3440 C.3   123  ASP123      0.1674
     13  C         25.1220  -42.2540   34.3200 C.2   123  ASP123      0.2266
     14  O         26.1350  -42.9140   34.1080 O.2   123  ASP123     -0.2867
     15  CB        24.3400  -44.1760   35.6800 C.3   123  ASP123      0.1410
     16  CG        23.4400  -44.6710   36.7860 C.2   123  ASP123      0.3668
     17  OD1       22.8250  -43.8220   37.4690 O.co2 123  ASP123     -0.2456
     18  OD2       23.3590  -45.9000   36.9780 O.co2 123  ASP123     -0.2456
     19  N         26.2180  -38.8910   34.3370 N.3   125  ASN125     -0.1240
     20  CA        26.8120  -37.6390   34.7980 C.3   125  ASN125      0.1653
     21  C         28.3330  -37.7560   34.6650 C.2   125  ASN125      0.2266
     22  O         28.8850  -38.8500   34.7610 O.2   125  ASN125     -0.2867
     23  CB        26.4520  -37.3670   36.2630 C.3   125  ASN125      0.1155
     24  CG        25.2750  -36.4180   36.4140 C.2   125  ASN125      0.2627
     25  OD1       25.2570  -35.3430   35.8290 O.2   125  ASN125     -0.2716
     26  ND2       24.2950  -36.8100   37.2140 N.am  125  ASN125     -0.0877
     27  N         28.1250  -33.6660   37.4260 N.3   130  THR130     -0.1203
     28  CA        27.5480  -34.2150   38.6420 C.3   130  THR130      0.1994
     29  C         27.2360  -33.1530   39.6940 C.2   130  THR130      0.2619
     30  O         27.9460  -32.1560   39.8370 O.2   130  THR130     -0.2717
     31  CB        28.4770  -35.2740   39.2690 C.3   130  THR130      0.1784
     32  OG1       27.7360  -36.0320   40.2310 O.3   130  THR130     -0.2211
     33  CG2       29.6770  -34.6110   39.9570 C.3   130  THR130      0.0376
     34  N         26.1540  -33.3810   40.4210 N.am  131  THR131     -0.1938
     35  CA        25.7170  -32.4830   41.4740 C.3   131  THR131      0.2028
     36  C         26.0350  -33.1740   42.7880 C.2   131  THR131      0.2642
     37  O         26.6650  -32.6080   43.6780 O.2   131  THR131     -0.2714
     38  CB        24.1950  -32.2330   41.3700 C.3   131  THR131      0.1808
     39  OG1       23.9660  -30.9480   40.7760 O.3   131  THR131     -0.2208
     40  CG2       23.5210  -32.3110   42.7420 C.3   131  THR131      0.0379
     41  N         25.5980  -34.4190   42.8840 N.am  132  SER132     -0.1949
     42  CA        25.8020  -35.2290   44.0680 C.3   132  SER132      0.1924
     43  C         27.2810  -35.5040   44.3390 C.2   132  SER132      0.2314
     44  O         27.7250  -35.4560   45.4860 O.2   132  SER132     -0.2863
     45  CB        25.0560  -36.5480   43.8970 C.3   132  SER132      0.2116
     46  OG        25.5200  -37.2160   42.7370 O.3   132  SER132     -0.2180
     47  N         28.6080  -38.3630   43.5660 N.3   134  ASN134     -0.1240
     48  CA        28.7010  -39.8060   43.7400 C.3   134  ASN134      0.1653
     49  C         28.9520  -40.4520   42.3880 C.2   134  ASN134      0.2266
     50  O         28.2830  -40.1290   41.4010 O.2   134  ASN134     -0.2867
     51  CB        27.4110  -40.3530   44.3520 C.3   134  ASN134      0.1155
     52  CG        26.9920  -39.5910   45.5830 C.2   134  ASN134      0.2627
     53  OD1       27.8160  -39.2930   46.4470 O.2   134  ASN134     -0.2716
     54  ND2       25.7070  -39.2750   45.6760 N.am  134  ASN134     -0.0877
     55  N         28.3890  -43.5700   41.4000 N.3   136  HIS136     -0.1226
     56  CA        27.4430  -44.5740   40.9180 C.3   136  HIS136      0.1752
     57  C         26.4560  -43.9420   39.9510 C.2   136  HIS136      0.2596
     58  O         25.6330  -44.6250   39.3470 O.2   136  HIS136     -0.2718
     59  CB        26.7040  -45.2740   42.0810 C.3   136  HIS136      0.0759
     60  CG        25.6870  -44.4190   42.7830 C.ar  136  HIS136      0.0818
     61  ND1       24.6260  -44.9570   43.4800 N.ar  136  HIS136     -0.2268
     62  CD2       25.5730  -43.0740   42.9060 C.ar  136  HIS136      0.1154
     63  CE1       23.9020  -43.9810   43.9980 C.ar  136  HIS136      0.1986
     64  NE2       24.4550  -42.8290   43.6650 N.ar  136  HIS136     -0.2212
     65  N         26.5650  -42.6260   39.7960 N.am  137  GLY137     -0.1957
     66  CA        25.6980  -41.9010   38.8870 C.3   137  GLY137      0.1869
     67  C         26.4860  -41.2950   37.7400 C.2   137  GLY137      0.2309
     68  O         26.0400  -40.3240   37.1290 O.2   137  GLY137     -0.2863
     69  N         14.1580  -40.2610   36.0290 N.3   176  ASP176     -0.1239
     70  CA        14.8170  -39.2410   36.8350 C.3   176  ASP176      0.1674
     71  C         16.1970  -38.9950   36.2490 C.2   176  ASP176      0.2266
     72  O         17.1920  -39.5560   36.7050 O.2   176  ASP176     -0.2867
     73  CB        14.9430  -39.6350   38.3070 C.3   176  ASP176      0.1410
     74  CG        15.5220  -38.4980   39.1580 C.2   176  ASP176      0.3668
     75  OD1       15.0440  -37.3530   39.0270 O.co2 176  ASP176     -0.2456
     76  OD2       16.4530  -38.7370   39.9490 O.co2 176  ASP176     -0.2456
     77  N         19.0740  -36.1010   35.1580 N.3   178  ASP178     -0.1239
     78  CA        19.5400  -34.7560   35.4880 C.3   178  ASP178      0.1674
     79  C         19.5330  -33.8750   34.2440 C.2   178  ASP178      0.2266
     80  O         19.6210  -34.3780   33.1300 O.2   178  ASP178     -0.2867
     81  CB        20.9590  -34.8160   36.0610 C.3   178  ASP178      0.1410
     82  CG        20.9990  -35.3490   37.4840 C.2   178  ASP178      0.3668
     83  OD1       22.1060  -35.6720   37.9690 O.co2 178  ASP178     -0.2456
     84  OD2       19.9310  -35.4370   38.1240 O.co2 178  ASP178     -0.2456
     85  N         22.4750  -34.6760   32.1130 N.3   181  GLU181     -0.1245
     86  CA        22.3890  -36.0210   31.5670 C.3   181  GLU181      0.1567
     87  C         21.4300  -36.0390   30.3900 C.2   181  GLU181      0.2260
     88  O         21.6430  -36.7650   29.4200 O.2   181  GLU181     -0.2867
     89  CB        21.8870  -36.9900   32.6170 C.3   181  GLU181      0.0388
     90  CG        22.8360  -37.2200   33.7410 C.3   181  GLU181      0.1160
     91  CD        22.4200  -38.4040   34.5580 C.2   181  GLU181      0.3649
     92  OE1       21.4250  -38.2950   35.3040 O.co2 181  GLU181     -0.2457
     93  OE2       23.0800  -39.4510   34.4340 O.co2 181  GLU181     -0.2457
     94  N         19.9370  -52.2190   36.9800 N.3   227  ASP227     -0.1239
     95  CA        19.8390  -51.4690   38.2240 C.3   227  ASP227      0.1674
     96  C         18.4340  -51.7830   38.7360 C.2   227  ASP227      0.2266
     97  O         17.4360  -51.4550   38.0760 O.2   227  ASP227     -0.2867
     98  CB        19.9690  -49.9650   37.9890 C.3   227  ASP227      0.1410
     99  CG        20.0170  -49.1730   39.2920 C.2   227  ASP227      0.3668
    100  OD1       19.3700  -49.5910   40.2700 O.co2 227  ASP227     -0.2456
    101  OD2       20.6930  -48.1230   39.3450 O.co2 227  ASP227     -0.2456
    102  N         16.6400  -50.4190   40.8010 N.3   229  ASP229     -0.1239
    103  CA        15.7710  -49.2530   40.9240 C.3   229  ASP229      0.1674
    104  C         15.1220  -48.9190   39.5740 C.2   229  ASP229      0.2266
    105  O         14.4450  -47.8940   39.4290 O.2   229  ASP229     -0.2867
    106  CB        16.5460  -48.0550   41.4770 C.3   229  ASP229      0.1410
    107  CG        17.5740  -47.5120   40.5070 C.2   229  ASP229      0.3668
    108  OD1       18.5210  -46.8500   40.9850 O.co2 229  ASP229     -0.2456
    109  OD2       17.4320  -47.7280   39.2830 O.co2 229  ASP229     -0.2456
    110  N         18.4550  -45.5430   45.4950 N.3   241  THR241     -0.1218
    111  CA        17.7670  -44.4410   44.8290 C.3   241  THR241      0.1862
    112  C         16.4880  -44.8610   44.0820 C.2   241  THR241      0.2287
    113  O         16.4770  -44.9930   42.8500 O.2   241  THR241     -0.2866
    114  CB        18.7510  -43.7410   43.8660 C.3   241  THR241      0.1770
    115  OG1       19.2660  -44.6930   42.9270 O.3   241  THR241     -0.2211
    116  CG2       19.9210  -43.1610   44.6480 C.3   241  THR241      0.0375
    117  N         22.7190  -52.2550   42.7240 N.3   272  GLU272     -0.1245
    118  CA        21.9450  -51.4500   43.6570 C.3   272  GLU272      0.1567
    119  C         21.0080  -52.1420   44.6370 C.2   272  GLU272      0.2260
    120  O         20.0510  -51.5300   45.1000 O.2   272  GLU272     -0.2867
    121  CB        21.1670  -50.3740   42.8890 C.3   272  GLU272      0.0388
    122  CG        22.0260  -49.4700   41.9830 C.3   272  GLU272      0.1160
    123  CD        22.8830  -48.4730   42.7510 C.2   272  GLU272      0.3649
    124  OE1       22.3850  -47.9170   43.7540 O.co2 272  GLU272     -0.2457
    125  OE2       24.0410  -48.2270   42.3450 O.co2 272  GLU272     -0.2457
@<TRIPOS>BOND
     1    88    87    2
     2    87    86    1
     3    86    85    1
     4    86    89    1
     5    89    90    1
     6    80    79    2
     7    90    91    1
     8    14    13    2
     9    79    78    1
    10    13    12    1
    11    19    20    1
    12    93    91   ar
    13    91    92   ar
    14     4     3    2
    15    21    22    2
    16    21    20    1
    17    11    12    1
    18    20    23    1
    19     3     2    1
    20    77    78    1
    21    12    15    1
    22    78    81    1
    23    15    16    1
    24    25    24    2
    25     2     1    1
    26     2     5    1
    27    69    70    1
    28    81    82    1
    29    71    72    2
    30    71    70    1
    31    23    24    1
    32    24    26   am
    33    16    18   ar
    34    16    17   ar
    35    70    73    1
    36    94    95    1
    37    68    67    2
    38     5     6    1
    39    27    28    1
    40    82    83   ar
    41    82    84   ar
    42    67    66    1
    43    98    95    1
    44    98    99    1
    45    97    96    2
    46    95    96    1
    47    73    74    1
    48     6     8   ar
    49     6     7   ar
    50    28    31    1
    51    28    29    1
    52    66    65    1
    53    75    74   ar
    54     8    10   ar
    55    74    76   ar
    56     7     9   ar
    57    31    33    1
    58    31    32    1
    59   109   107   ar
    60    99   101   ar
    61    99   100   ar
    62    58    57    2
    63   105   104    2
    64   104   103    1
    65    29    30    2
    66    29    34   am
    67    65    57   am
    68    57    56    1
    69    10     9   ar
    70    34    35    1
    71   107   108   ar
    72   107   106    1
    73    39    38    1
    74   102   103    1
    75    56    55    1
    76    56    59    1
    77   103   106    1
    78    38    35    1
    79    38    40    1
    80    50    49    2
    81    35    36    1
    82   122   123    1
    83   122   121    1
    84    59    60    1
    85   125   123   ar
    86    49    48    1
    87   117   118    1
    88    46    45    1
    89   123   124   ar
    90    60    62   ar
    91    60    61   ar
    92    36    41   am
    93    36    37    2
    94   113   112    2
    95    41    42    1
    96   121   118    1
    97    62    64   ar
    98   115   114    1
    99    61    63   ar
   100    47    48    1
   101   118   119    1
   102    64    63   ar
   103    48    51    1
   104   114   116    1
   105   114   111    1
   106    45    42    1
   107    42    43    1
   108   112   111    1
   109    43    44    2
   110    51    52    1
   111   119   120    2
   112   111   110    1
   113    52    54   am
   114    52    53    2
