@<TRIPOS>MOLECULE
tmp/3lpbA00.pdb
 199 191 0 0 0
SMALL
GASTEIGER

@<TRIPOS>ATOM
      1  N        118.8350   60.1640   18.7720 N.3    12  GLN12      -0.1231
      2  CA       117.4110   59.9980   18.6430 C.3    12  GLN12       0.1698
      3  C        117.0190   59.8710   17.1840 C.2    12  GLN12       0.2592
      4  O        117.7580   60.2800   16.2850 O.2    12  GLN12      -0.2718
      5  CB       116.6190   61.1240   19.3500 C.3    12  GLN12       0.0381
      6  CG       116.4580   62.3930   18.5760 C.3    12  GLN12       0.0905
      7  CD       115.4770   63.3430   19.2470 C.2    12  GLN12       0.2608
      8  OE1      115.8250   63.9600   20.2290 O.2    12  GLN12      -0.2717
      9  NE2      114.2660   63.4860   18.6970 N.am   12  GLN12      -0.0878
     10  N        115.8730   59.2430   16.9880 N.am   13  GLN13      -0.1966
     11  CA       115.2270   59.1200   15.6920 C.3    13  GLN13       0.1733
     12  C        114.6260   60.4810   15.3220 C.2    13  GLN13       0.2616
     13  O        113.9760   61.0950   16.1520 O.2    13  GLN13      -0.2715
     14  CB       114.1480   58.0320   15.8270 C.3    13  GLN13       0.0408
     15  CG       113.2830   57.8370   14.6070 C.3    13  GLN13       0.0908
     16  CD       114.0650   57.2670   13.4610 C.2    13  GLN13       0.2608
     17  OE1      115.0370   56.5320   13.6730 O.2    13  GLN13      -0.2717
     18  NE2      113.6610   57.6060   12.2290 N.am   13  GLN13      -0.0878
     19  N        114.8890   60.9970   14.1210 N.am   14  LEU14      -0.1963
     20  CA       114.3140   62.2980   13.7150 C.3    14  LEU14       0.1728
     21  C        113.1070   62.1410   12.8160 C.2    14  LEU14       0.2617
     22  O        112.2120   62.9670   12.8180 O.2    14  LEU14      -0.2715
     23  CB       115.3520   63.2100   13.0220 C.3    14  LEU14       0.0311
     24  CG       116.5420   63.6170   13.8860 C.3    14  LEU14       0.0022
     25  CD1      117.5920   64.3720   13.0840 C.3    14  LEU14       0.0001
     26  CD2      116.0490   64.4650   15.0470 C.3    14  LEU14       0.0001
     27  N        113.0640   61.0930   12.0260 N.am   15  GLY15      -0.1940
     28  CA       111.8520   60.8760   11.2660 C.3    15  GLY15       0.2014
     29  C        112.0430   59.7630   10.2880 C.2    15  GLY15       0.2639
     30  O        113.1630   59.3120   10.0790 O.2    15  GLY15      -0.2714
     31  N        110.9250   59.3010    9.7300 N.am   16  LYS16      -0.1963
     32  CA       110.8990   58.3910    8.5800 C.3    16  LYS16       0.1728
     33  C        110.1290   59.0740    7.4150 C.2    16  LYS16       0.2616
     34  O        109.2820   59.9470    7.6510 O.2    16  LYS16      -0.2715
     35  CB       110.2120   57.0600    8.9570 C.3    16  LYS16       0.0311
     36  CG       110.9200   56.2920   10.0360 C.3    16  LYS16       0.0038
     37  CD       110.2330   54.9780   10.3520 C.3    16  LYS16       0.0206
     38  CE       109.4480   55.0250   11.6450 C.3    16  LYS16       0.1093
     39  NZ       110.2980   55.2590   12.8180 N.3    16  LYS16      -0.1314
     40  N        110.4370   58.6860    6.1770 N.am   17  GLY17      -0.1955
     41  CA       109.7060   59.1610    4.9780 C.3    17  GLY17       0.1869
     42  C        110.3130   58.5680    3.7130 C.2    17  GLY17       0.2309
     43  O        111.5300   58.3600    3.6570 O.2    17  GLY17      -0.2863
     44  N        113.3330   56.1360    3.5180 N.3    20  GLY20      -0.1225
     45  CA       114.5040   56.6030    4.2750 C.3    20  GLY20       0.1811
     46  C        114.1840   56.8810    5.7430 C.2    20  GLY20       0.2280
     47  O        113.0160   57.0650    6.1370 O.2    20  GLY20      -0.2866
     48  N        115.9820   58.9930    9.3130 N.3    22  VAL22      -0.1245
     49  CA       116.9940   59.9660    9.7080 C.3    22  VAL22       0.1561
     50  C        117.1690   59.9780   11.2390 C.2    22  VAL22       0.2260
     51  O        116.1970   60.0510   11.9960 O.2    22  VAL22      -0.2867
     52  CB       116.6750   61.4040    9.1840 C.3    22  VAL22       0.0252
     53  CG1      117.8450   62.3820    9.4560 C.3    22  VAL22       0.0019
     54  CG2      116.3300   61.3900    7.6740 C.3    22  VAL22       0.0019
     55  N        123.1880   64.8720   11.2970 N.3    39  ALA39      -0.1245
     56  CA       122.0230   64.1100   10.8900 C.3    39  ALA39       0.1562
     57  C        122.4800   62.9930   10.0070 C.2    39  ALA39       0.2260
     58  O        123.3300   63.1860    9.1440 O.2    39  ALA39      -0.2867
     59  CB       121.0020   65.0050   10.1380 C.3    39  ALA39       0.0290
     60  N        121.1480   59.8710    7.5270 N.3    41  LYS41      -0.1245
     61  CA       120.0400   59.2580    6.7950 C.3    41  LYS41       0.1561
     62  C        120.4360   57.8610    6.3050 C.2    41  LYS41       0.2260
     63  O        121.5450   57.6710    5.8040 O.2    41  LYS41      -0.2867
     64  CB       119.5610   60.1710    5.6380 C.3    41  LYS41       0.0271
     65  CG       118.4830   59.5460    4.7060 C.3    41  LYS41       0.0035
     66  CD       117.7470   60.5940    3.8430 C.3    41  LYS41       0.0206
     67  CE       116.6730   59.8910    3.0450 C.3    41  LYS41       0.1093
     68  NZ       115.9900   60.7510    2.0390 N.3    41  LYS41      -0.1314
     69  N        120.1200   72.0140    2.6340 N.3    70  VAL70      -0.1245
     70  CA       120.8750   71.3710    3.7320 C.3    70  VAL70       0.1561
     71  C        122.2760   70.8620    3.2720 C.2    70  VAL70       0.2260
     72  O        122.4190   70.3090    2.1730 O.2    70  VAL70      -0.2867
     73  CB       120.0350   70.2320    4.4130 C.3    70  VAL70       0.0252
     74  CG1      119.8590   69.0160    3.4660 C.3    70  VAL70       0.0019
     75  CG2      120.6690   69.8050    5.7510 C.3    70  VAL70       0.0019
     76  N        124.7320   64.5310    7.1140 N.3    83  MET83      -0.1230
     77  CA       124.3950   65.9230    6.8360 C.3    83  MET83       0.1702
     78  C        124.5650   66.7690    8.0830 C.2    83  MET83       0.2592
     79  O        124.6220   66.2290    9.2270 O.2    83  MET83      -0.2718
     80  CB       122.9490   66.0450    6.3290 C.3    83  MET83       0.0401
     81  CG       122.6780   65.2630    5.0180 C.3    83  MET83       0.0596
     82  SD       120.9500   65.1750    4.5810 S.3    83  MET83      -0.1393
     83  CE       120.4030   63.8540    5.6750 C.3    83  MET83       0.0692
     84  N        124.6990   68.0830    7.8860 N.am   84  GLU84      -0.1966
     85  CA       124.5990   69.0150    9.0370 C.3    84  GLU84       0.1733
     86  C        123.2490   68.7770    9.7470 C.2    84  GLU84       0.2616
     87  O        122.2520   68.4110    9.1140 O.2    84  GLU84      -0.2715
     88  CB       124.7130   70.4730    8.6130 C.3    84  GLU84       0.0429
     89  CG       123.5080   70.9590    7.7470 C.3    84  GLU84       0.1163
     90  CD       123.5960   72.4240    7.3600 C.2    84  GLU84       0.3649
     91  OE1      124.3370   73.1750    8.0160 O.co2  84  GLU84      -0.2457
     92  OE2      122.9090   72.8450    6.4000 O.co2  84  GLU84      -0.2457
     93  N        123.2470   68.9860   11.0610 N.am   85  TYR85      -0.1960
     94  CA       122.0300   68.9330   11.8860 C.3    85  TYR85       0.1771
     95  C        121.4910   70.3550   12.0550 C.2    85  TYR85       0.2619
     96  O        122.2100   71.2560   12.4930 O.2    85  TYR85      -0.2715
     97  CB       122.4280   68.3750   13.2560 C.3    85  TYR85       0.0574
     98  CG       121.3640   68.4820   14.3470 C.ar   85  TYR85      -0.0198
     99  CD1      120.2880   67.5980   14.3660 C.ar   85  TYR85      -0.0009
    100  CD2      121.4810   69.4310   15.3780 C.ar   85  TYR85      -0.0009
    101  CE1      119.3100   67.6530   15.3950 C.ar   85  TYR85       0.0417
    102  CE2      120.5190   69.4870   16.4270 C.ar   85  TYR85       0.0417
    103  CZ       119.4550   68.5880   16.4190 C.ar   85  TYR85       0.1957
    104  OH       118.4830   68.6170   17.4080 O.3    85  TYR85      -0.2866
    105  N        120.2320   70.5590   11.7120 N.am   86  LEU86      -0.1964
    106  CA       119.5960   71.8530   11.8200 C.3    86  LEU86       0.1713
    107  C        118.7090   71.8720   13.0740 C.2    86  LEU86       0.2458
    108  O        117.7410   71.1510   13.1500 O.2    86  LEU86      -0.2730
    109  CB       118.7850   72.1710   10.5440 C.3    86  LEU86       0.0310
    110  CG       119.7030   72.3030    9.2830 C.3    86  LEU86       0.0022
    111  CD1      118.8560   72.7060    8.0830 C.3    86  LEU86       0.0001
    112  CD2      120.8880   73.2970    9.4960 C.3    86  LEU86       0.0001
    113  N        119.0570   72.7240   14.0520 N.am   87  PRO87      -0.2716
    114  CA       118.5530   72.4890   15.4160 C.3    87  PRO87       0.1536
    115  C        117.0730   72.7840   15.6420 C.2    87  PRO87       0.2599
    116  O        116.5150   72.3210   16.6560 O.2    87  PRO87      -0.2715
    117  CB       119.4180   73.4200   16.2830 C.3    87  PRO87       0.0310
    118  CG       119.9070   74.5150   15.3180 C.3    87  PRO87       0.0237
    119  CD       120.0860   73.7840   14.0010 C.3    87  PRO87       0.0939
    120  N        116.4320   73.5310   14.7450 N.am   88  TYR88      -0.1960
    121  CA       115.0010   73.8240   14.9250 C.3    88  TYR88       0.1771
    122  C        114.0710   72.8470   14.2260 C.2    88  TYR88       0.2620
    123  O        112.8550   72.9960   14.3080 O.2    88  TYR88      -0.2715
    124  CB       114.6550   75.2680   14.5600 C.3    88  TYR88       0.0574
    125  CG       115.2420   76.2930   15.5020 C.ar   88  TYR88      -0.0198
    126  CD1      114.5180   76.7500   16.6120 C.ar   88  TYR88      -0.0009
    127  CD2      116.5120   76.8010   15.3000 C.ar   88  TYR88      -0.0009
    128  CE1      115.0640   77.7160   17.4870 C.ar   88  TYR88       0.0417
    129  CE2      117.0700   77.7390   16.1720 C.ar   88  TYR88       0.0417
    130  CZ       116.3270   78.2010   17.2500 C.ar   88  TYR88       0.1957
    131  OH       116.8940   79.1190   18.0930 O.3    88  TYR88      -0.2866
    132  N        114.6020   71.8160   13.5700 N.am   89  GLY89      -0.1940
    133  CA       113.6940   70.7920   13.0470 C.3    89  GLY89       0.2014
    134  C        112.9380   71.2250   11.7780 C.2    89  GLY89       0.2639
    135  O        113.3720   72.1530   11.0690 O.2    89  GLY89      -0.2714
    136  N        111.8160   70.5600   11.4980 N.am   90  SER90      -0.1949
    137  CA       111.0260   70.8170   10.2770 C.3    90  SER90       0.1924
    138  C        110.1410   72.0550   10.3980 C.2    90  SER90       0.2314
    139  O        109.4410   72.2270   11.4120 O.2    90  SER90      -0.2863
    140  CB       110.1220   69.6270    9.9840 C.3    90  SER90       0.2116
    141  OG       108.9000   69.7420   10.7060 O.3    90  SER90      -0.2180
    142  N        107.3680   72.5910    9.2290 N.3    92  ARG92      -0.1231
    143  CA       106.0180   72.1820    9.5660 C.3    92  ARG92       0.1694
    144  C        105.7770   72.2340   11.1130 C.2    92  ARG92       0.2592
    145  O        104.7480   72.7570   11.5830 O.2    92  ARG92      -0.2718
    146  CB       105.7340   70.7850    9.0520 C.3    92  ARG92       0.0321
    147  CG       104.2460   70.3900    9.2150 C.3    92  ARG92       0.0489
    148  CD       103.8950   69.0180    8.6440 C.3    92  ARG92       0.2205
    149  NE       104.5970   67.9400    9.3510 N.pl3  92  ARG92      -0.0865
    150  CZ       104.5170   66.6290    9.0750 C.cat  92  ARG92       0.5346
    151  NH1      103.7480   66.1510    8.0920 N.pl3  92  ARG92       0.1354
    152  NH2      105.2330   65.7810    9.8040 N.pl3  92  ARG92       0.1354
    153  N        106.7150   71.6800   11.8800 N.am   93  ASP93      -0.1974
    154  CA       106.5730   71.6140   13.3490 C.3    93  ASP93       0.1709
    155  C        106.8840   72.9450   13.9840 C.2    93  ASP93       0.2293
    156  O        106.2130   73.3560   14.9120 O.2    93  ASP93      -0.2864
    157  CB       107.5130   70.5410   13.9350 C.3    93  ASP93       0.1436
    158  CG       107.1990   69.1530   13.3930 C.2    93  ASP93       0.3671
    159  OD1      106.0070   68.8430   13.1610 O.co2  93  ASP93      -0.2456
    160  OD2      108.1370   68.3650   13.1760 O.co2  93  ASP93      -0.2456
    161  N        106.9050   69.7020    5.4930 N.3   134  ARG134     -0.1231
    162  CA       107.5820   68.6470    6.2720 C.3   134  ARG134      0.1694
    163  C        109.0260   68.4050    5.8000 C.2   134  ARG134      0.2592
    164  O        109.8730   67.9950    6.6050 O.2   134  ARG134     -0.2718
    165  CB       106.7620   67.3330    6.2850 C.3   134  ARG134      0.0321
    166  CG       106.8610   66.5240    4.9960 C.3   134  ARG134      0.0489
    167  CD       105.9450   65.2870    4.9380 C.3   134  ARG134      0.2205
    168  NE       106.5400   64.3300    3.9970 N.pl3 134  ARG134     -0.0865
    169  CZ       106.2900   64.2380    2.6830 C.cat 134  ARG134      0.5346
    170  NH1      106.9480   63.3390    1.9610 N.pl3 134  ARG134      0.1354
    171  NH2      105.3860   64.9990    2.0790 N.pl3 134  ARG134      0.1354
    172  N        109.3250   68.7420    4.5290 N.am  135  ASN135     -0.1974
    173  CA       110.6580   68.5740    3.9640 C.3   135  ASN135      0.1688
    174  C        111.5420   69.8310    4.0040 C.2   135  ASN135      0.2292
    175  O        112.6330   69.8320    3.4570 O.2   135  ASN135     -0.2864
    176  CB       110.5210   68.0870    2.5140 C.3   135  ASN135      0.1181
    177  CG       110.0820   66.6580    2.4580 C.2   135  ASN135      0.2629
    178  OD1      110.5440   65.8540    3.2670 O.2   135  ASN135     -0.2716
    179  ND2      109.1870   66.3170    1.5220 N.am  135  ASN135     -0.0877
    180  N        113.5110   72.5030    6.5260 N.3   137  LEU137     -0.1245
    181  CA       114.1290   72.5140    7.8520 C.3   137  LEU137      0.1561
    182  C        114.4760   73.9380    8.2670 C.2   137  LEU137      0.2260
    183  O        114.7120   74.7980    7.4200 O.2   137  LEU137     -0.2867
    184  CB       115.4150   71.6630    7.8730 C.3   137  LEU137      0.0270
    185  CG       115.2540   70.1660    7.5110 C.3   137  LEU137      0.0019
    186  CD1      116.6070   69.5370    7.3420 C.3   137  LEU137      0.0001
    187  CD2      114.3950   69.4240    8.5260 C.3   137  LEU137      0.0001
    188  N        115.3790   70.3290    2.9700 N.3   147  GLY147     -0.1210
    189  CA       116.1410   69.4270    3.8120 C.3   147  GLY147      0.1956
    190  C        116.0830   67.9520    3.4760 C.2   147  GLY147      0.2611
    191  O        116.6660   67.1520    4.2030 O.2   147  GLY147     -0.2717
    192  N        115.3960   67.5880    2.3900 N.am  148  ASP148     -0.1973
    193  CA       115.3450   66.2070    1.9300 C.3   148  ASP148      0.1709
    194  C        115.1720   66.1050    0.4040 C.2   148  ASP148      0.2293
    195  O        114.4030   66.8830   -0.1950 O.2   148  ASP148     -0.2864
    196  CB       114.1970   65.4440    2.5930 C.3   148  ASP148      0.1436
    197  CG       114.3130   63.9510    2.3580 C.2   148  ASP148      0.3671
    198  OD1      115.0520   63.2930    3.1430 O.co2 148  ASP148     -0.2456
    199  OD2      113.7320   63.4540    1.3450 O.co2 148  ASP148     -0.2456
@<TRIPOS>BOND
     1   195   194    2
     2   194   193    1
     3   199   197   ar
     4   179   177   am
     5   193   192    1
     6   193   196    1
     7   170   169    1
     8    68    67    1
     9   171   169    1
    10    72    71    2
    11   197   196    1
    12   197   198   ar
    13   192   190   am
    14   177   176    1
    15   177   178    2
    16   176   173    1
    17    69    70    1
    18   169   168    2
    19   188   189    1
    20    67    66    1
    21    71    70    1
    22   175   174    2
    23    74    73    1
    24   190   189    1
    25   190   191    2
    26    44    45    1
    27    43    42    2
    28    42    41    1
    29    70    73    1
    30    66    65    1
    31   173   174    1
    32   173   172    1
    33   168   167    1
    34    45    46    1
    35    73    75    1
    36   172   163   am
    37    82    81    1
    38    82    83    1
    39    65    64    1
    40   167   166    1
    41    41    40    1
    42   166   165    1
    43    81    80    1
    44   161   162    1
    45    64    61    1
    46    46    47    2
    47   163   162    1
    48   163   164    2
    49    63    62    2
    50    40    33   am
    51   162   165    1
    52    62    61    1
    53    80    77    1
    54    92    90   ar
    55   180   181    1
    56    61    60    1
    57    77    76    1
    58    77    78    1
    59   186   185    1
    60    90    89    1
    61    90    91   ar
    62    33    34    2
    63    33    32    1
    64   183   182    2
    65   185   184    1
    66   185   187    1
    67    54    52    1
    68    89    88    1
    69   181   184    1
    70   181   182    1
    71    84    78   am
    72    84    85    1
    73   111   110    1
    74    78    79    2
    75   151   150    1
    76    32    35    1
    77    32    31    1
    78    88    85    1
    79   148   147    1
    80   148   149    1
    81    35    36    1
    82    85    86    1
    83   146   147    1
    84   146   143    1
    85   150   149    2
    86   150   152    1
    87    87    86    2
    88    58    57    2
    89    52    53    1
    90    52    49    1
    91   142   143    1
    92   110   112    1
    93   110   109    1
    94    48    49    1
    95   143   144    1
    96    49    50    1
    97    31    29   am
    98    86    93   am
    99   140   137    1
   100   140   141    1
   101    57    56    1
   102    36    37    1
   103    30    29    2
   104    59    56    1
   105   137   138    1
   106   137   136    1
   107    29    28    1
   108    37    38    1
   109   138   139    2
   110   109   106    1
   111    56    55    1
   112    93    94    1
   113   135   134    2
   114   144   145    2
   115   144   153   am
   116    50    51    2
   117    28    27    1
   118   136   134   am
   119    38    39    1
   120   105   106    1
   121   105    95   am
   122   134   133    1
   123   106   107    1
   124   153   154    1
   125    94    95    1
   126    94    97    1
   127    27    21   am
   128    95    96    2
   129    18    16   am
   130    21    22    2
   131    21    20    1
   132    23    20    1
   133    23    24    1
   134   133   132    1
   135   107   108    2
   136   107   113   am
   137    25    24    1
   138   159   158   ar
   139   160   158   ar
   140    97    98    1
   141   154   157    1
   142   154   155    1
   143   158   157    1
   144    16    17    2
   145    16    15    1
   146   132   122   am
   147    20    19    1
   148    24    26    1
   149   155   156    2
   150   119   113    1
   151   119   118    1
   152   113   114    1
   153    19    12   am
   154   122   123    2
   155   122   121    1
   156    98    99   ar
   157    98   100   ar
   158    99   101   ar
   159   124   121    1
   160   124   125    1
   161    15    14    1
   162   120   121    1
   163   120   115   am
   164   127   125   ar
   165   127   129   ar
   166   118   117    1
   167    12    11    1
   168    12    13    2
   169   100   102   ar
   170   101   103   ar
   171   114   115    1
   172   114   117    1
   173   125   126   ar
   174   115   116    2
   175    11    14    1
   176    11    10    1
   177   129   130   ar
   178     4     3    2
   179   103   102   ar
   180   103   104    1
   181   126   128   ar
   182    10     3   am
   183     3     2    1
   184   130   128   ar
   185   130   131    1
   186     6     7    1
   187     6     5    1
   188     2     1    1
   189     2     5    1
   190     9     7   am
   191     7     8    2
