@<TRIPOS>MOLECULE
tmp/3lpfB00.pdb
 186 182 0 0 0
SMALL
GASTEIGER

@<TRIPOS>ATOM
      1  N         16.2060    6.5150   25.7720 N.3   159  TYR159     -0.1227
      2  CA        16.2140    5.2190   26.4390 C.3   159  TYR159      0.1736
      3  C         16.7470    4.1720   25.4790 C.2   159  TYR159      0.2595
      4  O         17.1000    4.4920   24.3530 O.2   159  TYR159     -0.2718
      5  CB        14.7920    4.8490   26.8970 C.3   159  TYR159      0.0548
      6  CG        13.7270    5.2020   25.8830 C.ar  159  TYR159     -0.0200
      7  CD1       13.2080    4.2460   25.0270 C.ar  159  TYR159     -0.0009
      8  CD2       13.2480    6.4940   25.7820 C.ar  159  TYR159     -0.0009
      9  CE1       12.2100    4.5700   24.0980 C.ar  159  TYR159      0.0417
     10  CE2       12.2620    6.8280   24.8600 C.ar  159  TYR159      0.0417
     11  CZ        11.7490    5.8620   24.0330 C.ar  159  TYR159      0.1957
     12  OH        10.7950    6.2050   23.1260 O.3   159  TYR159     -0.2866
     13  N         16.7320    2.9110   25.8970 N.am  160  PHE160     -0.1962
     14  CA        17.4630    1.8820   25.1620 C.3   160  PHE160      0.1771
     15  C         16.6470    0.7460   24.5150 C.2   160  PHE160      0.2620
     16  O         17.2020   -0.1120   23.8220 O.2   160  PHE160     -0.2715
     17  CB        18.6010    1.3840   26.0470 C.3   160  PHE160      0.0574
     18  CG        19.3110    2.5050   26.7440 C.ar  160  PHE160     -0.0200
     19  CD1       19.9140    3.5120   25.9990 C.ar  160  PHE160     -0.0042
     20  CD2       19.3420    2.5910   28.1230 C.ar  160  PHE160     -0.0042
     21  CE1       20.5530    4.5660   26.6190 C.ar  160  PHE160     -0.0003
     22  CE2       19.9960    3.6570   28.7510 C.ar  160  PHE160     -0.0003
     23  CZ        20.5900    4.6320   28.0060 C.ar  160  PHE160     -0.0000
     24  N         15.3310    0.7710   24.6960 N.am  161  HIS161     -0.1959
     25  CA        14.4630   -0.1700   23.9920 C.3   161  HIS161      0.1787
     26  C         13.7990    0.4310   22.7570 C.2   161  HIS161      0.2620
     27  O         13.7890    1.6480   22.5330 O.2   161  HIS161     -0.2715
     28  CB        13.4000   -0.7630   24.9310 C.3   161  HIS161      0.0785
     29  CG        12.6950    0.2600   25.7500 C.ar  161  HIS161      0.0821
     30  ND1       13.2880    0.9240   26.7930 N.ar  161  HIS161     -0.2267
     31  CD2       11.4190    0.7520   25.6800 C.ar  161  HIS161      0.1154
     32  CE1       12.4390    1.7870   27.3260 C.ar  161  HIS161      0.1986
     33  NE2       11.2920    1.6790   26.6630 N.ar  161  HIS161     -0.2212
     34  N         13.2250   -0.4710   21.9790 N.am  162  ASP162     -0.1971
     35  CA        12.6390   -0.1990   20.6870 C.3   162  ASP162      0.1709
     36  C         11.3330    0.5610   20.8370 C.2   162  ASP162      0.2293
     37  O         11.1940    1.7350   20.4570 O.2   162  ASP162     -0.2864
     38  CB        12.2700   -1.5520   20.1080 C.3   162  ASP162      0.1436
     39  CG        12.4410   -1.6160   18.6340 C.2   162  ASP162      0.3671
     40  OD1       12.8780   -0.6070   18.0310 O.co2 162  ASP162     -0.2456
     41  OD2       12.1470   -2.6960   18.0880 O.co2 162  ASP162     -0.2456
     42  N         25.0720   -1.5490   23.7380 N.3   355  SER355     -0.1202
     43  CA        25.6460   -1.8480   22.4350 C.3   355  SER355      0.2020
     44  C         24.5520   -1.7550   21.3830 C.2   355  SER355      0.2619
     45  O         24.8160   -1.6690   20.1800 O.2   355  SER355     -0.2717
     46  CB        26.2370   -3.2530   22.4570 C.3   355  SER355      0.2103
     47  OG        26.8890   -3.4920   23.6910 O.3   355  SER355     -0.2182
     48  N         23.3210   -1.7490   21.8800 N.am  356  LEU356     -0.1965
     49  CA        22.1140   -1.8020   21.0830 C.3   356  LEU356      0.1728
     50  C         21.4290   -0.4470   21.1140 C.2   356  LEU356      0.2617
     51  O         20.5010   -0.2480   21.8970 O.2   356  LEU356     -0.2715
     52  CB        21.1820   -2.8230   21.7320 C.3   356  LEU356      0.0311
     53  CG        20.3000   -3.6790   20.8490 C.3   356  LEU356      0.0022
     54  CD1       21.0270   -3.9220   19.5800 C.3   356  LEU356      0.0001
     55  CD2       20.0250   -4.9780   21.5500 C.3   356  LEU356      0.0001
     56  N         21.8370    0.4770   20.2490 N.am  357  GLY357     -0.1940
     57  CA        22.7390    0.2110   19.1480 C.3   357  GLY357      0.2014
     58  C         22.4270    1.1790   18.0210 C.2   357  GLY357      0.2635
     59  O         21.6640    2.1320   18.2200 O.2   357  GLY357     -0.2714
     60  N         23.0290    0.9400   16.8540 N.am  358  ILE358     -0.2030
     61  CA        22.7840    1.7160   15.6260 C.3   358  ILE358      0.1271
     62  C         23.0350    3.2350   15.5930 C.3   358  ILE358      0.1636
     63  O         22.2390    3.9810   15.0190 O.3   358  ILE358     -0.3544
     64  CB        21.2590    1.8470   15.3860 C.3   358  ILE358      0.0497
     65  CG1       21.0450    3.2130   14.6620 C.3   358  ILE358      0.1170
     66  CG2       20.0740    1.6390   16.3980 C.3   358  ILE358      0.0044
     67  CD1       19.5310    3.3210   14.3310 C.3   358  ILE358      0.0321
     68  N         17.2870   -9.2120   26.7470 N.3   407  GLU407     -0.1245
     69  CA        18.4020   -8.6610   25.9740 C.3   407  GLU407      0.1567
     70  C         19.3570   -7.7000   26.7040 C.2   407  GLU407      0.2260
     71  O         19.7330   -6.6690   26.1570 O.2   407  GLU407     -0.2867
     72  CB        17.8700   -8.0170   24.6870 C.3   407  GLU407      0.0388
     73  CG        17.1140   -9.0070   23.8120 C.3   407  GLU407      0.1160
     74  CD        16.9550   -8.5340   22.3900 C.2   407  GLU407      0.3649
     75  OE1       16.7240   -7.3230   22.1880 O.co2 407  GLU407     -0.2457
     76  OE2       17.0570   -9.3770   21.4750 O.co2 407  GLU407     -0.2457
     77  N         20.0310  -11.6870   23.8190 N.3   440  VAL440     -0.1245
     78  CA        20.3500  -10.9530   22.5960 C.3   440  VAL440      0.1561
     79  C         21.4370  -11.6640   21.7850 C.2   440  VAL440      0.2260
     80  O         22.3770  -12.2330   22.3400 O.2   440  VAL440     -0.2867
     81  CB        20.8000   -9.5300   22.9220 C.3   440  VAL440      0.0252
     82  CG1       22.1410   -9.5470   23.6420 C.3   440  VAL440      0.0019
     83  CG2       20.8840   -8.6890   21.6630 C.3   440  VAL440      0.0019
     84  N         24.0600  -11.0700   20.1620 N.3   441  PHE441     -0.1241
     85  CA        25.5070  -10.8420   20.1950 C.3   441  PHE441      0.1605
     86  C         26.2010  -11.3160   21.4640 C.2   441  PHE441      0.2264
     87  O         27.4230  -11.2710   21.5700 O.2   441  PHE441     -0.2867
     88  CB        25.9070   -9.4170   19.8000 C.3   441  PHE441      0.0534
     89  CG        25.3010   -8.3290   20.6430 C.ar  441  PHE441     -0.0203
     90  CD1       25.6710   -8.1580   21.9670 C.ar  441  PHE441     -0.0042
     91  CD2       24.4230   -7.4160   20.0770 C.ar  441  PHE441     -0.0042
     92  CE1       25.1360   -7.1240   22.7230 C.ar  441  PHE441     -0.0003
     93  CE2       23.8900   -6.3860   20.8270 C.ar  441  PHE441     -0.0003
     94  CZ        24.2510   -6.2410   22.1520 C.ar  441  PHE441     -0.0000
     95  N         18.1230  -13.1760   14.7240 N.3   461  TYR461     -0.1241
     96  CA        17.8570  -12.4160   13.5020 C.3   461  TYR461      0.1605
     97  C         19.1590  -12.8800   12.8790 C.2   461  TYR461      0.2264
     98  O         20.2320  -12.4020   13.2590 O.2   461  TYR461     -0.2867
     99  CB        17.8150  -10.9250   13.8240 C.3   461  TYR461      0.0534
    100  CG        16.6360  -10.6020   14.6760 C.ar  461  TYR461     -0.0201
    101  CD1       15.3740  -10.5000   14.1160 C.ar  461  TYR461     -0.0009
    102  CD2       16.7680  -10.4530   16.0480 C.ar  461  TYR461     -0.0009
    103  CE1       14.2700  -10.2150   14.8960 C.ar  461  TYR461      0.0417
    104  CE2       15.6790  -10.1920   16.8370 C.ar  461  TYR461      0.0417
    105  CZ        14.4300  -10.0630   16.2540 C.ar  461  TYR461      0.1957
    106  OH        13.3440   -9.7890   17.0480 O.3   461  TYR461     -0.2866
    107  N         19.8520   -8.7750   10.5370 N.3   465  TYR465     -0.1227
    108  CA        20.6540   -7.6930   11.0990 C.3   465  TYR465      0.1736
    109  C         22.0710   -8.0650   10.6040 C.2   465  TYR465      0.2595
    110  O         22.8880   -7.2040   10.2420 O.2   465  TYR465     -0.2718
    111  CB        20.5840   -7.5380   12.6210 C.3   465  TYR465      0.0548
    112  CG        19.2850   -6.9010   13.0800 C.ar  465  TYR465     -0.0200
    113  CD1       18.4440   -7.5440   13.9900 C.ar  465  TYR465     -0.0009
    114  CD2       18.8940   -5.6530   12.5920 C.ar  465  TYR465     -0.0009
    115  CE1       17.2400   -6.9540   14.4070 C.ar  465  TYR465      0.0417
    116  CE2       17.7190   -5.0590   13.0040 C.ar  465  TYR465      0.0417
    117  CZ        16.8780   -5.7160   13.9030 C.ar  465  TYR465      0.1957
    118  OH        15.6900   -5.1030   14.2920 O.3   465  TYR465     -0.2866
    119  N         22.3400   -9.3630   10.5660 N.am  466  VAL466     -0.1980
    120  CA        23.5540   -9.8950    9.9750 C.3   466  VAL466      0.1595
    121  C         23.1710  -10.9510    8.9410 C.2   466  VAL466      0.2287
    122  O         22.1260  -11.6080    9.0620 O.2   466  VAL466     -0.2864
    123  CB        24.4540  -10.5470   11.0340 C.3   466  VAL466      0.0276
    124  CG1       25.6400   -9.6690   11.3120 C.3   466  VAL466      0.0022
    125  CG2       23.6800  -10.8040   12.3050 C.3   466  VAL466      0.0022
    126  N         12.1510  -14.6050   20.0960 N.3   497  GLU497     -0.1245
    127  CA        12.0120  -13.6210   19.0130 C.3   497  GLU497      0.1567
    128  C         12.6590  -14.1010   17.7080 C.2   497  GLU497      0.2260
    129  O         13.8870  -14.2780   17.6490 O.2   497  GLU497     -0.2867
    130  CB        12.6270  -12.2680   19.3960 C.3   497  GLU497      0.0388
    131  CG        11.9140  -11.4510   20.4790 C.3   497  GLU497      0.1160
    132  CD        12.5560  -10.0690   20.6670 C.2   497  GLU497      0.3649
    133  OE1       13.2390   -9.5740   19.7340 O.co2 497  GLU497     -0.2457
    134  OE2       12.3850   -9.4810   21.7540 O.co2 497  GLU497     -0.2457
    135  N          8.5050  -12.8660   16.2900 N.3   539  TRP539     -0.1241
    136  CA         8.6920  -11.4750   16.6490 C.3   539  TRP539      0.1605
    137  C          7.3200  -11.3480   16.0950 C.2   539  TRP539      0.2264
    138  O          6.7450  -12.2280   15.4470 O.2   539  TRP539     -0.2867
    139  CB        10.1010  -10.8730   16.6980 C.3   539  TRP539      0.0550
    140  CG        10.0610   -9.4760   17.3460 C.ar  539  TRP539      0.0003
    141  CD1       10.4960   -8.2870   16.8000 C.ar  539  TRP539      0.0946
    142  CD2        9.5380   -9.1430   18.6430 C.ar  539  TRP539      0.0152
    143  NE1       10.2920   -7.2440   17.6900 N.ar  539  TRP539     -0.2442
    144  CE2        9.6940   -7.7430   18.8210 C.ar  539  TRP539      0.0810
    145  CE3        8.9510   -9.8960   19.6800 C.ar  539  TRP539      0.0012
    146  CZ2        9.2970   -7.0920   19.9810 C.ar  539  TRP539      0.0191
    147  CZ3        8.5620   -9.2450   20.8380 C.ar  539  TRP539      0.0001
    148  CH2        8.7320   -7.8540   20.9770 C.ar  539  TRP539      0.0015
    149  N         10.3390    4.5600   19.0620 N.3   547  SER547     -0.1217
    150  CA        11.2090    5.7350   18.9960 C.3   547  SER547      0.1889
    151  C         11.4880    6.0970   17.5370 C.2   547  SER547      0.2288
    152  O         11.5460    5.2050   16.6900 O.2   547  SER547     -0.2866
    153  CB        12.5190    5.3470   19.6700 C.3   547  SER547      0.2089
    154  OG        13.3030    6.4690   19.9510 O.3   547  SER547     -0.2183
    155  N         13.5630    6.7500   14.3140 N.3   549  GLY549     -0.1225
    156  CA        14.9080    6.4130   13.8690 C.3   549  GLY549      0.1811
    157  C         15.0120    5.9730   12.4090 C.2   549  GLY549      0.2280
    158  O         14.0130    5.7440   11.7510 O.2   549  GLY549     -0.2866
    159  N         16.1800    3.1300   11.4270 N.3   551  LEU551     -0.1231
    160  CA        15.9770    1.6940   11.2840 C.3   551  LEU551      0.1693
    161  C         14.5070    1.3250   11.4770 C.2   551  LEU551      0.2591
    162  O         14.1350    0.1530   11.3800 O.2   551  LEU551     -0.2718
    163  CB        16.8210    0.9170   12.2870 C.3   551  LEU551      0.0284
    164  CG        18.3220    1.1020   12.4130 C.3   551  LEU551      0.0019
    165  CD1       18.8020    0.3250   13.6340 C.3   551  LEU551      0.0001
    166  CD2       19.0470    0.6630   11.1530 C.3   551  LEU551      0.0001
    167  N         13.6680    2.3200   11.7530 N.am  552  ARG552     -0.1980
    168  CA        12.2520    2.0590   12.0240 C.3   552  ARG552      0.1597
    169  C         11.3580    2.8560   11.0800 C.2   552  ARG552      0.2287
    170  O         11.2470    4.0750   11.1950 O.2   552  ARG552     -0.2864
    171  CB        11.9000    2.4160   13.4770 C.3   552  ARG552      0.0334
    172  CG        12.7820    1.8000   14.5450 C.3   552  ARG552      0.0492
    173  CD        12.3000    0.4200   14.9160 C.3   552  ARG552      0.2205
    174  NE        12.9230   -0.5890   14.0740 N.pl3 552  ARG552     -0.0865
    175  CZ        13.5450   -1.6660   14.5350 C.cat 552  ARG552      0.5346
    176  NH1       13.6010   -1.8970   15.8410 N.pl3 552  ARG552      0.1354
    177  NH2       14.0940   -2.5200   13.6830 N.pl3 552  ARG552      0.1354
    178  N          7.7600   -5.5280   12.0460 N.3   558  LYS558     -0.1245
    179  CA         7.9090   -6.9930   12.1430 C.3   558  LYS558      0.1561
    180  C          6.6700   -7.7750   12.5380 C.2   558  LYS558      0.2260
    181  O          6.7580   -8.9380   12.9600 O.2   558  LYS558     -0.2867
    182  CB         9.0540   -7.3690   13.0860 C.3   558  LYS558      0.0271
    183  CG        10.4640   -7.2150   12.4890 C.3   558  LYS558      0.0035
    184  CD        11.5240   -7.8040   13.4270 C.3   558  LYS558      0.0206
    185  CE        12.9670   -7.3120   13.0980 C.3   558  LYS558      0.1093
    186  NZ        13.0940   -5.8350   13.1840 N.3   558  LYS558     -0.1314
@<TRIPOS>BOND
     1   121   122    2
     2   121   120    1
     3   120   119    1
     4   120   123    1
     5   110   109    2
     6   107   108    1
     7   119   109   am
     8   109   108    1
     9   123   124    1
    10   123   125    1
    11   169   170    2
    12   169   168    1
    13   108   111    1
    14   166   164    1
    15   160   159    1
    16   160   161    1
    17   160   163    1
    18   162   161    2
    19   161   167   am
    20   158   157    2
    21   167   168    1
    22   168   171    1
    23   178   179    1
    24   179   180    1
    25   179   182    1
    26   163   164    1
    27   157   156    1
    28   164   165    1
    29   183   182    1
    30   183   184    1
    31   180   181    2
    32   114   116   ar
    33   114   112   ar
    34   111   112    1
    35    97    98    2
    36    97    96    1
    37   116   117   ar
    38   112   113   ar
    39   185   186    1
    40   185   184    1
    41   171   172    1
    42    96    99    1
    43    96    95    1
    44   177   175    1
    45    99   100    1
    46   156   155    1
    47   117   118    1
    48   117   115   ar
    49   113   115   ar
    50   174   175    2
    51   174   173    1
    52   101   100   ar
    53   101   103   ar
    54    67    65    1
    55   175   176    1
    56   172   173    1
    57    65    63    1
    58    65    64    1
    59   100   102   ar
    60   103   105   ar
    61    63    62    1
    62    64    61    1
    63    64    66    1
    64   138   137    2
    65    62    61    1
    66    61    60    1
    67   102   104   ar
    68   137   136    1
    69   105   104   ar
    70   105   106    1
    71   135   136    1
    72   136   139    1
    73   152   151    2
    74   139   140    1
    75   141   140   ar
    76   141   143   ar
    77    60    58   am
    78   140   142   ar
    79   151   150    1
    80   129   128    2
    81   143   144   ar
    82   128   127    1
    83    58    59    2
    84    58    57    1
    85    40    39   ar
    86    41    39   ar
    87    39    38    1
    88   142   144   ar
    89   142   145   ar
    90   144   146   ar
    91   150   149    1
    92   150   153    1
    93   127   130    1
    94   127   126    1
    95    57    56    1
    96   130   131    1
    97    54    53    1
    98   153   154    1
    99   145   147   ar
   100   133   132   ar
   101    88    85    1
   102    88    89    1
   103   146   148   ar
   104    91    89   ar
   105    91    93   ar
   106    38    35    1
   107    84    85    1
   108    45    44    2
   109    85    86    1
   110    56    50   am
   111    37    36    2
   112   131   132    1
   113    89    90   ar
   114   132   134   ar
   115    35    36    1
   116    35    34    1
   117    93    94   ar
   118   147   148   ar
   119    53    55    1
   120    53    52    1
   121    49    50    1
   122    49    52    1
   123    49    48    1
   124    50    51    2
   125    44    48   am
   126    44    43    1
   127    86    87    2
   128    76    74   ar
   129    83    81    1
   130    79    80    2
   131    79    78    1
   132    90    92   ar
   133    34    26   am
   134    94    92   ar
   135    75    74   ar
   136    74    73    1
   137    43    46    1
   138    43    42    1
   139    46    47    1
   140    27    26    2
   141    78    81    1
   142    78    77    1
   143    26    25    1
   144    81    82    1
   145    12    11    1
   146    73    72    1
   147    16    15    2
   148    25    24    1
   149    25    28    1
   150    11     9   ar
   151    11    10   ar
   152     9     7   ar
   153     4     3    2
   154    15    24   am
   155    15    14    1
   156    72    69    1
   157    10     8   ar
   158    28    29    1
   159     7     6   ar
   160    14    13    1
   161    14    17    1
   162     3    13   am
   163     3     2    1
   164    31    29   ar
   165    31    33   ar
   166    29    30   ar
   167     1     2    1
   168     8     6   ar
   169     6     5    1
   170    69    70    1
   171    69    68    1
   172    19    21   ar
   173    19    18   ar
   174    17    18    1
   175    71    70    2
   176     2     5    1
   177    21    23   ar
   178    33    32   ar
   179    18    20   ar
   180    30    32   ar
   181    23    22   ar
   182    20    22   ar
