@<TRIPOS>MOLECULE
tmp/3lpgB00.pdb
 159 152 0 0 0
SMALL
GASTEIGER

@<TRIPOS>ATOM
      1  N         16.6880    3.6100   25.5980 N.3   160  PHE160     -0.1227
      2  CA        17.4790    2.5970   24.9040 C.3   160  PHE160      0.1736
      3  C         16.6830    1.4290   24.3210 C.2   160  PHE160      0.2595
      4  O         17.2490    0.5430   23.6790 O.2   160  PHE160     -0.2718
      5  CB        18.5980    2.1010   25.8210 C.3   160  PHE160      0.0547
      6  CG        19.3150    3.2110   26.5270 C.ar  160  PHE160     -0.0202
      7  CD1       20.1140    4.0910   25.8160 C.ar  160  PHE160     -0.0042
      8  CD2       19.1690    3.3960   27.8910 C.ar  160  PHE160     -0.0042
      9  CE1       20.7660    5.1240   26.4550 C.ar  160  PHE160     -0.0003
     10  CE2       19.8190    4.4280   28.5350 C.ar  160  PHE160     -0.0003
     11  CZ        20.6190    5.2930   27.8180 C.ar  160  PHE160     -0.0000
     12  N         15.3730    1.4370   24.5330 N.am  161  HIS161     -0.1961
     13  CA        14.5140    0.4050   23.9680 C.3   161  HIS161      0.1787
     14  C         13.8580    0.9080   22.6850 C.2   161  HIS161      0.2620
     15  O         13.8690    2.1070   22.4010 O.2   161  HIS161     -0.2715
     16  CB        13.4660   -0.0460   24.9880 C.3   161  HIS161      0.0785
     17  CG        12.7370    1.0850   25.6440 C.ar  161  HIS161      0.0821
     18  ND1       13.3060    1.8720   26.6210 N.ar  161  HIS161     -0.2267
     19  CD2       11.4840    1.5630   25.4600 C.ar  161  HIS161      0.1154
     20  CE1       12.4360    2.7860   27.0110 C.ar  161  HIS161      0.1986
     21  NE2       11.3220    2.6190   26.3230 N.ar  161  HIS161     -0.2212
     22  N         13.2950   -0.0090   21.9050 N.am  162  ASP162     -0.1971
     23  CA        12.7400    0.3530   20.6070 C.3   162  ASP162      0.1709
     24  C         11.3950    1.0690   20.6320 C.2   162  ASP162      0.2293
     25  O         11.2310    2.1160   20.0050 O.2   162  ASP162     -0.2864
     26  CB        12.5350   -0.8860   19.7320 C.3   162  ASP162      0.1436
     27  CG        12.6460   -0.5750   18.2470 C.2   162  ASP162      0.3671
     28  OD1       13.0540    0.5540   17.8990 O.co2 162  ASP162     -0.2456
     29  OD2       12.3280   -1.4640   17.4270 O.co2 162  ASP162     -0.2456
     30  N         24.8510   -0.7030   23.4910 N.3   355  SER355     -0.1202
     31  CA        25.4280   -0.8420   22.1570 C.3   355  SER355      0.2020
     32  C         24.3260   -1.1280   21.1550 C.2   355  SER355      0.2619
     33  O         24.5790   -1.5880   20.0390 O.2   355  SER355     -0.2717
     34  CB        26.4350   -1.9880   22.1340 C.3   355  SER355      0.2103
     35  OG        27.3750   -1.8440   23.1830 O.3   355  SER355     -0.2182
     36  N         23.0960   -0.8390   21.5560 N.am  356  LEU356     -0.1965
     37  CA        21.9460   -1.2610   20.7780 C.3   356  LEU356      0.1728
     38  C         21.4920   -0.6680   19.4470 C.2   356  LEU356      0.2617
     39  O         20.5230   -1.1470   18.8610 O.2   356  LEU356     -0.2715
     40  CB        20.7570   -1.5450   21.7000 C.3   356  LEU356      0.0311
     41  CG        19.8020   -2.6500   21.2420 C.3   356  LEU356      0.0022
     42  CD1       20.5800   -3.8920   20.8400 C.3   356  LEU356      0.0001
     43  CD2       18.7930   -2.9800   22.3360 C.3   356  LEU356      0.0001
     44  N         22.1780    0.3610   18.9560 N.am  357  GLY357     -0.1940
     45  CA        22.0710    0.6750   17.5260 C.3   357  GLY357      0.2014
     46  C         23.3060    1.0940   16.7840 C.2   357  GLY357      0.2638
     47  O         24.4070    1.1290   17.3320 O.2   357  GLY357     -0.2714
     48  N         23.1020    1.4100   15.5070 N.am  358  ILE358     -0.1977
     49  CA        23.9490    2.3480   14.7220 C.3   358  ILE358      0.1596
     50  C         23.6950    3.8060   15.1270 C.2   358  ILE358      0.2287
     51  O         22.7690    4.4490   14.6240 O.2   358  ILE358     -0.2864
     52  CB        23.0250    2.0120   13.5510 C.3   358  ILE358      0.0276
     53  CG1       23.6790    2.4390   12.2300 C.3   358  ILE358      0.0022
     54  CG2       21.6470    2.6450   13.7260 C.3   358  ILE358      0.0022
     55  CD1       23.1610    1.6860   11.0280 C.3   358  ILE358      0.0001
     56  N         17.1340   -8.3090   26.5490 N.3   407  GLU407     -0.1245
     57  CA        18.3090   -7.8500   25.8170 C.3   407  GLU407      0.1567
     58  C         19.2630   -7.0020   26.6490 C.2   407  GLU407      0.2260
     59  O         19.6260   -5.8970   26.2480 O.2   407  GLU407     -0.2867
     60  CB        17.8830   -7.0920   24.5620 C.3   407  GLU407      0.0388
     61  CG        16.9050   -7.8720   23.7150 C.3   407  GLU407      0.1160
     62  CD        16.9770   -7.5070   22.2530 C.2   407  GLU407      0.3649
     63  OE1       16.9130   -6.3000   21.9340 O.co2 407  GLU407     -0.2457
     64  OE2       17.0930   -8.4350   21.4270 O.co2 407  GLU407     -0.2457
     65  N         20.1190  -10.7920   23.9630 N.3   440  VAL440     -0.1245
     66  CA        20.4390  -10.0800   22.7300 C.3   440  VAL440      0.1561
     67  C         21.4820  -10.8590   21.9260 C.2   440  VAL440      0.2260
     68  O         22.3190  -11.5680   22.4920 O.2   440  VAL440     -0.2867
     69  CB        20.9450   -8.6520   23.0110 C.3   440  VAL440      0.0252
     70  CG1       22.4080   -8.6720   23.4530 C.3   440  VAL440      0.0019
     71  CG2       20.7690   -7.7790   21.7840 C.3   440  VAL440      0.0019
     72  N         24.2110  -10.1760   20.0300 N.3   441  PHE441     -0.1241
     73  CA        25.6600   -9.9660   20.0920 C.3   441  PHE441      0.1605
     74  C         26.2720  -10.4640   21.4030 C.2   441  PHE441      0.2264
     75  O         27.4800  -10.3650   21.6200 O.2   441  PHE441     -0.2867
     76  CB        26.0750   -8.5210   19.7660 C.3   441  PHE441      0.0534
     77  CG        25.2920   -7.4650   20.4950 C.ar  441  PHE441     -0.0203
     78  CD1       25.5720   -7.1600   21.8180 C.ar  441  PHE441     -0.0042
     79  CD2       24.3040   -6.7440   19.8410 C.ar  441  PHE441     -0.0042
     80  CE1       24.8630   -6.1750   22.4830 C.ar  441  PHE441     -0.0003
     81  CE2       23.5900   -5.7580   20.5010 C.ar  441  PHE441     -0.0003
     82  CZ        23.8710   -5.4720   21.8240 C.ar  441  PHE441     -0.0000
     83  N         16.5110  -13.6760   21.1510 N.3   459  ASN459     -0.1240
     84  CA        16.0880  -12.7970   20.0740 C.3   459  ASN459      0.1653
     85  C         17.0990  -12.8820   18.9420 C.2   459  ASN459      0.2266
     86  O         18.2590  -12.5190   19.1250 O.2   459  ASN459     -0.2867
     87  CB        16.0080  -11.3550   20.5710 C.3   459  ASN459      0.1155
     88  CG        15.0640  -11.1940   21.7390 C.2   459  ASN459      0.2627
     89  OD1       14.3600  -12.1280   22.1140 O.2   459  ASN459     -0.2716
     90  ND2       15.0410  -10.0010   22.3200 N.am  459  ASN459     -0.0877
     91  N         18.0030  -12.1290   14.6800 N.3   461  TYR461     -0.1241
     92  CA        17.7060  -11.4800   13.4070 C.3   461  TYR461      0.1605
     93  C         19.0470  -11.7870   12.7520 C.2   461  TYR461      0.2264
     94  O         20.0400  -11.1000   12.9960 O.2   461  TYR461     -0.2867
     95  CB        17.6050   -9.9860   13.7030 C.3   461  TYR461      0.0534
     96  CG        16.4690   -9.6520   14.6300 C.ar  461  TYR461     -0.0201
     97  CD1       15.1830   -9.4710   14.1390 C.ar  461  TYR461     -0.0009
     98  CD2       16.6720   -9.5340   15.9980 C.ar  461  TYR461     -0.0009
     99  CE1       14.1330   -9.1730   14.9810 C.ar  461  TYR461      0.0417
    100  CE2       15.6240   -9.2360   16.8500 C.ar  461  TYR461      0.0417
    101  CZ        14.3570   -9.0570   16.3330 C.ar  461  TYR461      0.1957
    102  OH        13.3050   -8.7570   17.1680 O.3   461  TYR461     -0.2866
    103  N         19.5630   -7.8220   10.6120 N.3   465  TYR465     -0.1227
    104  CA        20.5820   -6.8670   11.0380 C.3   465  TYR465      0.1736
    105  C         21.9650   -7.2550   10.5260 C.2   465  TYR465      0.2595
    106  O         22.7560   -6.4000   10.1240 O.2   465  TYR465     -0.2718
    107  CB        20.5710   -6.7020   12.5600 C.3   465  TYR465      0.0548
    108  CG        19.2950   -6.0760   13.0870 C.ar  465  TYR465     -0.0200
    109  CD1       18.4830   -6.7560   13.9870 C.ar  465  TYR465     -0.0009
    110  CD2       18.8960   -4.8070   12.6750 C.ar  465  TYR465     -0.0009
    111  CE1       17.3160   -6.1900   14.4690 C.ar  465  TYR465      0.0417
    112  CE2       17.7280   -4.2330   13.1520 C.ar  465  TYR465      0.0417
    113  CZ        16.9410   -4.9300   14.0490 C.ar  465  TYR465      0.1957
    114  OH        15.7750   -4.3680   14.5270 O.3   465  TYR465     -0.2866
    115  N         22.2440   -8.5520   10.5340 N.am  466  VAL466     -0.1980
    116  CA        23.4780   -9.0770    9.9660 C.3   466  VAL466      0.1595
    117  C         23.1150  -10.0000    8.8070 C.2   466  VAL466      0.2287
    118  O         21.9460  -10.3510    8.6400 O.2   466  VAL466     -0.2864
    119  CB        24.3050   -9.8280   11.0250 C.3   466  VAL466      0.0276
    120  CG1       24.9560   -8.8390   11.9770 C.3   466  VAL466      0.0022
    121  CG2       23.4250  -10.7980   11.7940 C.3   466  VAL466      0.0022
    122  N         12.1420  -13.7360   20.0510 N.3   497  GLU497     -0.1245
    123  CA        12.0290  -12.7490   18.9870 C.3   497  GLU497      0.1567
    124  C         12.6600  -13.2250   17.6780 C.2   497  GLU497      0.2260
    125  O         13.8580  -13.5160   17.6190 O.2   497  GLU497     -0.2867
    126  CB        12.6820  -11.4310   19.4040 C.3   497  GLU497      0.0388
    127  CG        11.9380  -10.6230   20.4480 C.3   497  GLU497      0.1160
    128  CD        12.5500   -9.2420   20.6280 C.2   497  GLU497      0.3649
    129  OE1       13.1670   -8.7350   19.6690 O.co2 497  GLU497     -0.2457
    130  OE2       12.4200   -8.6620   21.7240 O.co2 497  GLU497     -0.2457
    131  N         10.5370    5.3290   18.8210 N.3   547  SER547     -0.1217
    132  CA        11.1150    6.6630   18.7700 C.3   547  SER547      0.1889
    133  C         11.5770    6.9620   17.3480 C.2   547  SER547      0.2288
    134  O         11.7220    6.0530   16.5390 O.2   547  SER547     -0.2866
    135  CB        12.2730    6.7690   19.7520 C.3   547  SER547      0.2089
    136  OG        12.9700    5.5490   19.8250 O.3   547  SER547     -0.2183
    137  N         13.8580    7.6450   14.1750 N.3   549  GLY549     -0.1225
    138  CA        15.1810    7.2350   13.7380 C.3   549  GLY549      0.1811
    139  C         15.2310    6.8010   12.2850 C.2   549  GLY549      0.2280
    140  O         14.2010    6.6770   11.6270 O.2   549  GLY549     -0.2866
    141  N         16.1570    3.8790   11.2280 N.3   551  LEU551     -0.1231
    142  CA        15.8570    2.4580   11.0800 C.3   551  LEU551      0.1693
    143  C         14.3730    2.1780   11.2330 C.2   551  LEU551      0.2591
    144  O         13.9180    1.0580   11.0050 O.2   551  LEU551     -0.2718
    145  CB        16.6100    1.6360   12.1200 C.3   551  LEU551      0.0284
    146  CG        18.0790    1.9190   12.3960 C.3   551  LEU551      0.0019
    147  CD1       18.4650    1.2060   13.6700 C.3   551  LEU551      0.0001
    148  CD2       18.9500    1.4580   11.2460 C.3   551  LEU551      0.0001
    149  N         13.6180    3.1900   11.6430 N.am  552  ARG552     -0.1980
    150  CA        12.2110    2.9850   11.9630 C.3   552  ARG552      0.1597
    151  C         11.3030    3.7470   11.0030 C.2   552  ARG552      0.2287
    152  O         11.1840    4.9680   11.0880 O.2   552  ARG552     -0.2864
    153  CB        11.9300    3.3880   13.4190 C.3   552  ARG552      0.0334
    154  CG        12.7310    2.6090   14.4680 C.3   552  ARG552      0.0492
    155  CD        12.1410    1.2290   14.7230 C.3   552  ARG552      0.2205
    156  NE        12.5050    0.2610   13.6920 N.pl3 552  ARG552     -0.0865
    157  CZ        13.2350   -0.8310   13.9070 C.cat 552  ARG552      0.5346
    158  NH1       13.6800   -1.1140   15.1260 N.pl3 552  ARG552      0.1354
    159  NH2       13.5140   -1.6490   12.9000 N.pl3 552  ARG552      0.1354
@<TRIPOS>BOND
     1   118   117    2
     2   117   116    1
     3   116   115    1
     4   116   119    1
     5   106   105    2
     6   105   115   am
     7   105   104    1
     8   103   104    1
     9   151   152    2
    10   151   150    1
    11   144   143    2
    12   119   121    1
    13   119   120    1
    14    55    53    1
    15   104   107    1
    16   142   141    1
    17   142   143    1
    18   142   145    1
    19   143   149   am
    20   148   146    1
    21   140   139    2
    22   149   150    1
    23   150   153    1
    24   145   146    1
    25    53    52    1
    26   139   138    1
    27   146   147    1
    28   107   108    1
    29   110   108   ar
    30   110   112   ar
    31    93    94    2
    32    93    92    1
    33   159   157    1
    34   108   109   ar
    35   112   113   ar
    36    92    95    1
    37    92    91    1
    38   153   154    1
    39    52    54    1
    40    52    49    1
    41   156   157    2
    42   156   155    1
    43    95    96    1
    44   138   137    1
    45   157   158    1
    46   109   111   ar
    47   113   111   ar
    48   113   114    1
    49    97    96   ar
    50    97    99   ar
    51   154   155    1
    52    51    50    2
    53    96    98   ar
    54    49    50    1
    55    49    48    1
    56    99   101   ar
    57    48    46   am
    58    98   100   ar
    59   101   100   ar
    60   101   102    1
    61   134   133    2
    62    46    47    2
    63    46    45    1
    64   133   132    1
    65    29    27   ar
    66    45    44    1
    67   125   124    2
    68   124   123    1
    69    28    27   ar
    70    27    26    1
    71   132   131    1
    72   132   135    1
    73    39    38    2
    74    85    86    2
    75    85    84    1
    76    44    38   am
    77   123   126    1
    78   123   122    1
    79   126   127    1
    80    38    37    1
    81   129   128   ar
    82    26    23    1
    83   135   136    1
    84    76    73    1
    85    76    77    1
    86    79    77   ar
    87    79    81   ar
    88    25    24    2
    89    72    73    1
    90    33    32    2
    91    84    87    1
    92    84    83    1
    93    73    74    1
    94   127   128    1
    95    77    78   ar
    96    81    82   ar
    97    87    88    1
    98    23    24    1
    99    23    22    1
   100   128   130   ar
   101    37    36    1
   102    37    40    1
   103    42    41    1
   104    32    36   am
   105    32    31    1
   106    41    40    1
   107    41    43    1
   108    74    75    2
   109    64    62   ar
   110    88    89    2
   111    88    90   am
   112    71    69    1
   113    78    80   ar
   114    82    80   ar
   115    22    14   am
   116    67    68    2
   117    67    66    1
   118    63    62   ar
   119    34    31    1
   120    34    35    1
   121    31    30    1
   122    62    61    1
   123    15    14    2
   124    14    13    1
   125    66    69    1
   126    66    65    1
   127    69    70    1
   128     4     3    2
   129    61    60    1
   130    13    12    1
   131    13    16    1
   132     3    12   am
   133     3     2    1
   134    60    57    1
   135     2     1    1
   136     2     5    1
   137    16    17    1
   138    19    17   ar
   139    19    21   ar
   140    17    18   ar
   141     7     9   ar
   142     7     6   ar
   143    57    56    1
   144    57    58    1
   145     5     6    1
   146    59    58    2
   147    21    20   ar
   148     9    11   ar
   149     6     8   ar
   150    18    20   ar
   151    11    10   ar
   152     8    10   ar
