@<TRIPOS>MOLECULE
tmp/3lplA01.pdb
 111 103 0 0 0
SMALL
GASTEIGER

@<TRIPOS>ATOM
      1  N         14.0090  -70.1450   -3.9990 N.3    54  SER54      -0.1217
      2  CA        13.3870  -68.8580   -3.7540 C.3    54  SER54       0.1889
      3  C         12.1920  -68.5420   -4.6640 C.2    54  SER54       0.2288
      4  O         11.1010  -68.2600   -4.1720 O.2    54  SER54      -0.2866
      5  CB        14.4250  -67.7560   -3.8710 C.3    54  SER54       0.2089
      6  OG        13.8570  -66.5610   -3.4080 O.3    54  SER54      -0.2183
      7  N         13.0300  -59.1980   -6.6530 N.3    85  GLN85      -0.1245
      8  CA        14.0370  -59.7940   -5.7870 C.3    85  GLN85       0.1566
      9  C         15.0230  -60.4640   -6.7460 C.2    85  GLN85       0.2260
     10  O         14.6440  -61.3250   -7.5480 O.2    85  GLN85      -0.2867
     11  CB        13.3710  -60.8000   -4.8620 C.3    85  GLN85       0.0367
     12  CG        14.3050  -61.5380   -3.9270 C.3    85  GLN85       0.0905
     13  CD        13.5380  -62.3990   -2.9380 C.2    85  GLN85       0.2608
     14  OE1       12.4650  -62.9130   -3.2660 O.2    85  GLN85      -0.2717
     15  NE2       14.0800  -62.5740   -1.7340 N.am   85  GLN85      -0.0878
     16  N         17.3910  -62.8260   -6.7370 N.3    87  HIS87      -0.1241
     17  CA        17.5420  -64.2730   -6.8210 C.3    87  HIS87       0.1621
     18  C         16.4190  -65.0020   -7.5680 C.2    87  HIS87       0.2264
     19  O         16.5650  -66.1790   -7.8860 O.2    87  HIS87      -0.2867
     20  CB        17.6810  -64.8790   -5.4180 C.3    87  HIS87       0.0745
     21  CG        18.9730  -64.5490   -4.7410 C.ar   87  HIS87       0.0817
     22  ND1       20.0760  -64.0880   -5.4250 N.ar   87  HIS87      -0.2268
     23  CD2       19.3530  -64.6520   -3.4450 C.ar   87  HIS87       0.1154
     24  CE1       21.0790  -63.9210   -4.5820 C.ar   87  HIS87       0.1986
     25  NE2       20.6670  -64.2570   -3.3740 N.ar   87  HIS87      -0.2212
     26  N         21.5840  -56.9370   -1.3370 N.3   139  MET139     -0.1245
     27  CA        20.5220  -56.8330   -0.3330 C.3   139  MET139      0.1570
     28  C         20.4830  -55.5050    0.4210 C.2   139  MET139      0.2261
     29  O         21.5210  -54.9370    0.7670 O.2   139  MET139     -0.2867
     30  CB        20.6520  -57.9610    0.6920 C.3   139  MET139      0.0387
     31  CG        21.0600  -59.3040    0.1150 C.3   139  MET139      0.0595
     32  SD        19.6920  -60.4670   -0.0680 S.3   139  MET139     -0.1393
     33  CE        18.9840  -59.6860   -1.5250 C.3   139  MET139      0.0692
     34  N         13.1620  -60.1100    0.8460 N.3   174  GLY174     -0.1210
     35  CA        13.2010  -61.3850    1.5390 C.3   174  GLY174      0.1956
     36  C         13.1680  -61.0700    3.0270 C.2   174  GLY174      0.2612
     37  O         13.5700  -59.9680    3.4320 O.2   174  GLY174     -0.2717
     38  N         12.6960  -61.9950    3.8610 N.am  175  ASP175     -0.1959
     39  CA        12.6690  -61.6860    5.2810 C.3   175  ASP175      0.1840
     40  C         14.0900  -61.6460    5.8570 C.2   175  ASP175      0.2623
     41  O         14.3670  -60.8650    6.7720 O.2   175  ASP175     -0.2715
     42  CB        11.7450  -62.6430    6.0630 C.3   175  ASP175      0.1450
     43  CG        12.0070  -64.1240    5.7710 C.2   175  ASP175      0.3671
     44  OD1       12.6300  -64.4550    4.7550 O.co2 175  ASP175     -0.2456
     45  OD2       11.5580  -64.9700    6.5670 O.co2 175  ASP175     -0.2456
     46  N         14.9890  -62.4580    5.2960 N.am  176  GLY176     -0.1940
     47  CA        16.3750  -62.4450    5.7360 C.3   176  GLY176      0.2014
     48  C         17.0170  -61.1040    5.3820 C.2   176  GLY176      0.2638
     49  O         17.8090  -60.5500    6.1470 O.2   176  GLY176     -0.2714
     50  N         16.6430  -60.5640    4.2230 N.am  177  GLU177     -0.1977
     51  CA        17.1660  -59.2910    3.7580 C.3   177  GLU177      0.1602
     52  C         16.7970  -58.1110    4.6840 C.2   177  GLU177      0.2287
     53  O         17.5380  -57.1160    4.7780 O.2   177  GLU177     -0.2864
     54  CB        16.6900  -59.0360    2.3210 C.3   177  GLU177      0.0415
     55  CG        16.7440  -57.5800    1.8640 C.3   177  GLU177      0.1163
     56  CD        16.5430  -57.4240    0.3560 C.2   177  GLU177      0.3649
     57  OE1       15.7570  -58.2100   -0.2400 O.co2 177  GLU177     -0.2457
     58  OE2       17.1610  -56.5020   -0.2320 O.co2 177  GLU177     -0.2457
     59  N          8.6860  -61.4980    1.4020 N.3   203  ASN203     -0.1240
     60  CA         8.4670  -62.9310    1.3190 C.3   203  ASN203      0.1653
     61  C          8.9550  -63.5290    2.6410 C.2   203  ASN203      0.2266
     62  O         10.1510  -63.5930    2.9250 O.2   203  ASN203     -0.2867
     63  CB         9.2300  -63.4970    0.1240 C.3   203  ASN203      0.1155
     64  CG         9.0310  -64.9860   -0.0330 C.2   203  ASN203      0.2627
     65  OD1        8.2300  -65.5810    0.6820 O.2   203  ASN203     -0.2716
     66  ND2        9.7540  -65.5980   -0.9750 N.am  203  ASN203     -0.0877
     67  N          9.3500  -66.5910    4.2890 N.3   205  ASN205     -0.1240
     68  CA         9.4090  -68.0410    4.2790 C.3   205  ASN205      0.1653
     69  C         10.1360  -68.4710    5.5410 C.2   205  ASN205      0.2266
     70  O         10.5420  -69.6200    5.6750 O.2   205  ASN205     -0.2867
     71  CB        10.1100  -68.5750    3.0180 C.3   205  ASN205      0.1155
     72  CG        11.2950  -67.7430    2.6050 C.2   205  ASN205      0.2627
     73  OD1       12.0610  -67.2700    3.4450 O.2   205  ASN205     -0.2716
     74  ND2       11.4670  -67.5690    1.3010 N.am  205  ASN205     -0.0877
     75  N         12.8620  -68.3520    6.4150 N.3   207  GLN207     -0.1231
     76  CA        14.2290  -68.7740    6.1540 C.3   207  GLN207      0.1698
     77  C         15.0690  -67.7150    5.4370 C.2   207  GLN207      0.2592
     78  O         14.5620  -66.8380    4.7050 O.2   207  GLN207     -0.2718
     79  CB        14.2820  -70.0250    5.2490 C.3   207  GLN207      0.0381
     80  CG        13.4440  -71.2610    5.6480 C.3   207  GLN207      0.0905
     81  CD        13.7090  -72.4970    4.7380 C.2   207  GLN207      0.2608
     82  OE1       12.7920  -73.2960    4.4510 O.2   207  GLN207     -0.2717
     83  NE2       14.9710  -72.6630    4.3000 N.am  207  GLN207     -0.0878
     84  N         16.3760  -67.7890    5.6460 N.am  208  ARG208     -0.1966
     85  CA        17.3120  -66.9750    4.8930 C.3   208  ARG208      0.1729
     86  C         18.0610  -67.9390    3.9940 C.2   208  ARG208      0.2616
     87  O         17.4650  -68.8580    3.4330 O.2   208  ARG208     -0.2715
     88  CB        18.2820  -66.2550    5.8300 C.3   208  ARG208      0.0348
     89  CG        19.2200  -67.1840    6.5840 C.3   208  ARG208      0.0492
     90  CD        20.0870  -66.4120    7.5670 C.3   208  ARG208      0.2205
     91  NE        21.0270  -67.2830    8.2670 N.pl3 208  ARG208     -0.0865
     92  CZ        20.7210  -68.0010    9.3420 C.cat 208  ARG208      0.5346
     93  NH1       19.4950  -67.9560    9.8450 N.pl3 208  ARG208      0.1354
     94  NH2       21.6400  -68.7670    9.9150 N.pl3 208  ARG208      0.1354
     95  N         19.3670  -67.7500    3.8690 N.am  209  LEU209     -0.1977
     96  CA        20.1970  -68.7660    3.2250 C.3   209  LEU209      0.1596
     97  C         20.6270  -69.9700    4.0680 C.2   209  LEU209      0.2287
     98  O         20.2200  -71.1090    3.7840 O.2   209  LEU209     -0.2864
     99  CB        21.4390  -68.1150    2.6180 C.3   209  LEU209      0.0297
    100  CG        22.0000  -68.7220    1.3210 C.3   209  LEU209      0.0022
    101  CD1       21.5100  -70.1690    1.1620 C.3   209  LEU209      0.0001
    102  CD2       21.5560  -67.8640    0.1190 C.3   209  LEU209      0.0001
    103  N          9.6040  -72.0740    1.8090 N.3   337  LYS337     -0.1245
    104  CA        10.8230  -72.0530    1.0050 C.3   337  LYS337      0.1561
    105  C         11.0630  -73.4290    0.3780 C.2   337  LYS337      0.2260
    106  O         10.9680  -74.4530    1.0520 O.2   337  LYS337     -0.2867
    107  CB        12.0260  -71.6360    1.8590 C.3   337  LYS337      0.0271
    108  CG        13.3310  -71.5210    1.0620 C.3   337  LYS337      0.0035
    109  CD        14.4980  -71.0520    1.9540 C.3   337  LYS337      0.0206
    110  CE        15.7960  -70.9650    1.1590 C.3   337  LYS337      0.1093
    111  NZ        16.9170  -70.5070    2.0440 N.3   337  LYS337     -0.1314
@<TRIPOS>BOND
     1    19    18    2
     2    18    17    1
     3    10     9    2
     4    17    16    1
     5    17    20    1
     6     9     8    1
     7     7     8    1
     8     8    11    1
     9    22    21   ar
    10    22    24   ar
    11    20    21    1
    12    11    12    1
    13    21    23   ar
    14     3     4    2
    15     3     2    1
    16    24    25   ar
    17     1     2    1
    18    12    13    1
    19     5     2    1
    20     5     6    1
    21    23    25   ar
    22    14    13    2
    23    13    15   am
    24    33    32    1
    25    26    27    1
    26    66    64   am
    27    27    28    1
    28    27    30    1
    29    57    56   ar
    30    58    56   ar
    31    32    31    1
    32    64    63    1
    33    64    65    2
    34    31    30    1
    35   102   100    1
    36    63    60    1
    37    56    55    1
    38   105   104    1
    39   105   106    2
    40    28    29    2
    41    34    35    1
    42   104   103    1
    43   104   107    1
    44   108   107    1
    45   108   109    1
    46   110   109    1
    47   110   111    1
    48   101   100    1
    49    74    72   am
    50    60    59    1
    51    60    61    1
    52   100    99    1
    53    35    36    1
    54    55    54    1
    55    54    51    1
    56    72    71    1
    57    72    73    2
    58    99    96    1
    59    61    62    2
    60    71    68    1
    61    36    37    2
    62    36    38   am
    63    96    95    1
    64    96    97    1
    65    87    86    2
    66    51    50    1
    67    51    52    1
    68    98    97    2
    69    38    39    1
    70    95    86   am
    71    86    85    1
    72    50    48   am
    73    68    67    1
    74    68    69    1
    75    83    81   am
    76    82    81    2
    77    52    53    2
    78    78    77    2
    79    81    80    1
    80    44    43   ar
    81    85    84    1
    82    85    88    1
    83    79    80    1
    84    79    76    1
    85    39    40    1
    86    39    42    1
    87    46    47    1
    88    46    40   am
    89    48    47    1
    90    48    49    2
    91    77    84   am
    92    77    76    1
    93    69    70    2
    94    43    42    1
    95    43    45   ar
    96    88    89    1
    97    40    41    2
    98    76    75    1
    99    89    90    1
   100    90    91    1
   101    91    92    2
   102    92    93    1
   103    92    94    1
