@<TRIPOS>MOLECULE
tmp/3lpnB00.pdb
 100 99 0 0 0
SMALL
GASTEIGER

@<TRIPOS>ATOM
      1  N         10.2390    8.6460   17.5650 N.3    57  HIS57      -0.1241
      2  CA         9.4860    8.0360   18.6510 C.3    57  HIS57       0.1621
      3  C          8.6540    6.7990   18.2600 C.2    57  HIS57       0.2264
      4  O          8.6370    5.8170   18.9970 O.2    57  HIS57      -0.2867
      5  CB         8.7190    9.1390   19.4020 C.3    57  HIS57       0.0745
      6  CG         7.2760    8.8530   19.6480 C.ar   57  HIS57       0.0817
      7  ND1        6.8300    8.1740   20.7610 N.ar   57  HIS57      -0.2268
      8  CD2        6.1690    9.2190   18.9590 C.ar   57  HIS57       0.1154
      9  CE1        5.5110    8.1030   20.7290 C.ar   57  HIS57       0.1986
     10  NE2        5.0860    8.7330   19.6470 N.ar   57  HIS57      -0.2212
     11  N         12.0140    7.9340   23.2030 N.3    89  TYR89      -0.1241
     12  CA        12.7160    7.0910   24.1760 C.3    89  TYR89       0.1605
     13  C         13.5300    7.8300   25.2380 C.2    89  TYR89       0.2264
     14  O         14.1950    7.1980   26.0630 O.2    89  TYR89      -0.2867
     15  CB        13.5350    5.9930   23.4600 C.3    89  TYR89       0.0534
     16  CG        12.6230    4.9890   22.8140 C.ar   89  TYR89      -0.0201
     17  CD1       12.1270    3.9060   23.5430 C.ar   89  TYR89      -0.0009
     18  CD2       12.2160    5.1370   21.4910 C.ar   89  TYR89      -0.0009
     19  CE1       11.2640    2.9970   22.9660 C.ar   89  TYR89       0.0417
     20  CE2       11.3450    4.2330   20.9090 C.ar   89  TYR89       0.0417
     21  CZ        10.8760    3.1630   21.6500 C.ar   89  TYR89       0.1957
     22  OH        10.0080    2.2490   21.0850 O.3    89  TYR89      -0.2866
     23  N         12.4530    9.1370   27.7470 N.3    91  ARG91      -0.1231
     24  CA        11.8990    8.7630   29.0510 C.3    91  ARG91       0.1694
     25  C         12.5360    7.5020   29.6330 C.2    91  ARG91       0.2592
     26  O         12.4740    7.2730   30.8420 O.2    91  ARG91      -0.2718
     27  CB        10.3870    8.5670   28.9640 C.3    91  ARG91       0.0321
     28  CG         9.5980    9.8410   28.7440 C.3    91  ARG91       0.0489
     29  CD         8.3740    9.7860   29.6170 C.3    91  ARG91       0.2205
     30  NE         7.1450   10.0050   28.8750 N.pl3  91  ARG91      -0.0865
     31  CZ         5.9370    9.9620   29.4320 C.cat  91  ARG91       0.5346
     32  NH1        4.8580   10.1740   28.6890 N.pl3  91  ARG91       0.1354
     33  NH2        5.8110    9.7210   30.7370 N.pl3  91  ARG91       0.1354
     34  N         13.1060    6.6950   28.7750 N.am   92  GLN92      -0.1966
     35  CA        13.8090    5.4940   29.2180 C.3    92  GLN92       0.1733
     36  C         15.3130    5.7220   29.0990 C.2    92  GLN92       0.2616
     37  O         15.9750    5.1600   28.2210 O.2    92  GLN92      -0.2715
     38  CB        13.3770    4.2780   28.3860 C.3    92  GLN92       0.0408
     39  CG        13.9670    2.9430   28.8410 C.3    92  GLN92       0.0908
     40  CD        13.4120    2.4500   30.1670 C.2    92  GLN92       0.2608
     41  OE1       12.4400    2.9950   30.6950 O.2    92  GLN92      -0.2717
     42  NE2       14.0310    1.4000   30.7100 N.am   92  GLN92      -0.0878
     43  N         15.8460    6.5490   29.9930 N.am   93  HIS93      -0.1959
     44  CA        17.2270    7.0110   29.8860 C.3    93  HIS93       0.1787
     45  C         18.1340    6.3730   30.9290 C.2    93  HIS93       0.2620
     46  O         19.2930    6.7640   31.0740 O.2    93  HIS93      -0.2715
     47  CB        17.2770    8.5330   30.0200 C.3    93  HIS93       0.0785
     48  CG        16.6070    9.0450   31.2550 C.ar   93  HIS93       0.0821
     49  ND1       17.2190    9.0390   32.4900 N.ar   93  HIS93      -0.2267
     50  CD2       15.3760    9.5730   31.4460 C.ar   93  HIS93       0.1154
     51  CE1       16.3930    9.5460   33.3890 C.ar   93  HIS93       0.1986
     52  NE2       15.2700    9.8820   32.7810 N.ar   93  HIS93      -0.2212
     53  N         17.5890    5.4050   31.6580 N.am   94  GLN94      -0.1977
     54  CA        18.3640    4.5580   32.5570 C.3    94  GLN94       0.1601
     55  C         17.6140    3.2460   32.6880 C.2    94  GLN94       0.2287
     56  O         16.5000    3.1180   32.1790 O.2    94  GLN94      -0.2864
     57  CB        18.5020    5.2130   33.9320 C.3    94  GLN94       0.0394
     58  CG        17.1780    5.4840   34.6090 C.3    94  GLN94       0.0908
     59  CD        17.3290    5.8520   36.0670 C.2    94  GLN94       0.2608
     60  OE1       17.6650    6.9860   36.3980 O.2    94  GLN94      -0.2717
     61  NE2       17.0650    4.8950   36.9520 N.am   94  GLN94      -0.0878
     62  N         15.5020    1.1680   35.1090 N.3    96  TYR96      -0.1241
     63  CA        14.7470    1.3630   36.3410 C.3    96  TYR96       0.1605
     64  C         14.5350    0.0420   37.0650 C.2    96  TYR96       0.2264
     65  O         14.1860    0.0170   38.2450 O.2    96  TYR96      -0.2867
     66  CB        13.4110    2.0370   36.0390 C.3    96  TYR96       0.0534
     67  CG        13.5870    3.3960   35.4020 C.ar   96  TYR96      -0.0201
     68  CD1       13.6140    4.5500   36.1770 C.ar   96  TYR96      -0.0009
     69  CD2       13.7480    3.5210   34.0290 C.ar   96  TYR96      -0.0009
     70  CE1       13.7860    5.7910   35.5970 C.ar   96  TYR96       0.0417
     71  CE2       13.9240    4.7550   33.4410 C.ar   96  TYR96       0.0417
     72  CZ        13.9370    5.8880   34.2320 C.ar   96  TYR96       0.1957
     73  OH        14.1140    7.1120   33.6470 O.3    96  TYR96      -0.2866
     74  N         16.2270   -4.1100   32.0140 N.3   100  GLU100     -0.1245
     75  CA        15.5640   -3.1740   31.1110 C.3   100  GLU100      0.1567
     76  C         16.6010   -2.6390   30.1440 C.2   100  GLU100      0.2260
     77  O         17.7900   -2.6020   30.4640 O.2   100  GLU100     -0.2867
     78  CB        14.9460   -1.9930   31.8720 C.3   100  GLU100      0.0388
     79  CG        13.7120   -2.3290   32.7000 C.3   100  GLU100      0.1160
     80  CD        13.1220   -1.0930   33.3720 C.2   100  GLU100      0.3649
     81  OE1       13.7520   -0.0150   33.2980 O.co2 100  GLU100     -0.2457
     82  OE2       12.0330   -1.1990   33.9680 O.co2 100  GLU100     -0.2457
     83  N         13.4480   15.2320   27.0920 N.3   124  HIS124     -0.1226
     84  CA        13.0280   14.9000   28.4380 C.3   124  HIS124      0.1752
     85  C         14.2170   14.3280   29.1950 C.2   124  HIS124      0.2596
     86  O         14.5450   13.1530   29.0610 O.2   124  HIS124     -0.2718
     87  CB        11.8840   13.9000   28.4330 C.3   124  HIS124      0.0759
     88  CG        11.3480   13.6200   29.7980 C.ar  124  HIS124      0.0818
     89  ND1       10.3600   14.3850   30.3770 N.ar  124  HIS124     -0.2268
     90  CD2       11.6910   12.6870   30.7170 C.ar  124  HIS124      0.1154
     91  CE1       10.1020   13.9220   31.5880 C.ar  124  HIS124      0.1986
     92  NE2       10.8980   12.8930   31.8190 N.ar  124  HIS124     -0.2212
     93  N         14.8630   15.1730   29.9820 N.am  125  ASP125     -0.1974
     94  CA        16.0430   14.7920   30.7500 C.3   125  ASP125      0.1709
     95  C         17.3190   14.7650   29.9110 C.2   125  ASP125      0.2293
     96  O         17.5090   13.8970   29.0550 O.2   125  ASP125     -0.2864
     97  CB        15.8400   13.4530   31.4610 C.3   125  ASP125      0.1436
     98  CG        16.8040   13.2620   32.6130 C.2   125  ASP125      0.3671
     99  OD1       16.3640   12.8480   33.7050 O.co2 125  ASP125     -0.2456
    100  OD2       18.0020   13.5500   32.4350 O.co2 125  ASP125     -0.2456
@<TRIPOS>BOND
     1     1     2    1
     2     3     2    1
     3     3     4    2
     4     2     5    1
     5     8    10   ar
     6     8     6   ar
     7     5     6    1
     8    10     9   ar
     9     6     7   ar
    10     9     7   ar
    11    20    18   ar
    12    20    21   ar
    13    22    21    1
    14    18    16   ar
    15    21    19   ar
    16    16    15    1
    17    16    17   ar
    18    19    17   ar
    19    11    12    1
    20    15    12    1
    21    12    13    1
    22    13    14    2
    23    83    84    1
    24    23    24    1
    25    37    36    2
    26    38    39    1
    27    38    35    1
    28    87    84    1
    29    87    88    1
    30    84    85    1
    31    32    31    1
    32    28    27    1
    33    28    29    1
    34    34    35    1
    35    34    25   am
    36    39    40    1
    37    30    31    2
    38    30    29    1
    39    27    24    1
    40    24    25    1
    41    96    95    2
    42    86    85    2
    43    36    35    1
    44    36    43   am
    45    85    93   am
    46    31    33    1
    47    25    26    2
    48    88    89   ar
    49    88    90   ar
    50    44    43    1
    51    44    47    1
    52    44    45    1
    53    95    94    1
    54    93    94    1
    55    47    48    1
    56    76    77    2
    57    76    75    1
    58    40    41    2
    59    40    42   am
    60    89    91   ar
    61    90    92   ar
    62    94    97    1
    63    45    46    2
    64    45    53   am
    65    75    78    1
    66    75    74    1
    67    48    50   ar
    68    48    49   ar
    69    50    52   ar
    70    97    98    1
    71    91    92   ar
    72    53    54    1
    73    78    79    1
    74    56    55    2
    75   100    98   ar
    76    49    51   ar
    77    54    55    1
    78    54    57    1
    79    98    99   ar
    80    79    80    1
    81    52    51   ar
    82    81    80   ar
    83    80    82   ar
    84    71    69   ar
    85    71    72   ar
    86    73    72    1
    87    57    58    1
    88    69    67   ar
    89    72    70   ar
    90    58    59    1
    91    62    63    1
    92    67    66    1
    93    67    68   ar
    94    70    68   ar
    95    66    63    1
    96    59    60    2
    97    59    61   am
    98    63    64    1
    99    64    65    2
