@<TRIPOS>MOLECULE
tmp/3lppD00.pdb
 210 204 0 0 0
SMALL
GASTEIGER

@<TRIPOS>ATOM
      1  N         51.3040   92.0450   -3.0990 N.3   198  ASP198     -0.1225
      2  CA        52.1860   92.5410   -4.1550 C.3   198  ASP198      0.1805
      3  C         52.7390   91.3590   -4.9640 C.2   198  ASP198      0.2598
      4  O         53.6120   90.6300   -4.4890 O.2   198  ASP198     -0.2718
      5  CB        53.3190   93.3890   -3.5590 C.3   198  ASP198      0.1424
      6  CG        54.2470   94.0000   -4.6190 C.2   198  ASP198      0.3668
      7  OD1       54.0300   93.8150   -5.8400 O.co2 198  ASP198     -0.2456
      8  OD2       55.2130   94.6850   -4.2190 O.co2 198  ASP198     -0.2456
      9  N         52.2080   91.1750   -6.1740 N.am  199  GLN199     -0.1965
     10  CA        52.6880   90.1600   -7.1170 C.3   199  GLN199      0.1733
     11  C         52.4650   90.6270   -8.5550 C.2   199  GLN199      0.2616
     12  O         51.4060   91.1620   -8.8760 O.2   199  GLN199     -0.2715
     13  CB        51.9820   88.8160   -6.8680 C.3   199  GLN199      0.0408
     14  CG        52.1090   87.7650   -8.0010 C.3   199  GLN199      0.0908
     15  CD        53.5420   87.2740   -8.2360 C.2   199  GLN199      0.2608
     16  OE1       54.4100   87.4070   -7.3790 O.2   199  GLN199     -0.2717
     17  NE2       53.7820   86.6830   -9.4060 N.am  199  GLN199     -0.0878
     18  N         53.4660   90.4400   -9.4150 N.am  200  LEU200     -0.1977
     19  CA        53.3030   90.7050  -10.8490 C.3   200  LEU200      0.1596
     20  C         52.1820   89.8380  -11.4080 C.2   200  LEU200      0.2287
     21  O         52.2170   88.6180  -11.2590 O.2   200  LEU200     -0.2864
     22  CB        54.5880   90.4110  -11.6340 C.3   200  LEU200      0.0297
     23  CG        55.9290   91.0280  -11.2360 C.3   200  LEU200      0.0022
     24  CD1       56.9600   90.7270  -12.3200 C.3   200  LEU200      0.0001
     25  CD2       55.8290   92.5170  -10.9910 C.3   200  LEU200      0.0001
     26  N         59.4160  104.3680  -14.6200 N.3   294  TRP294     -0.1241
     27  CA        60.2320  104.1970  -13.4410 C.3   294  TRP294      0.1605
     28  C         61.6840  104.3470  -13.8680 C.2   294  TRP294      0.2264
     29  O         62.1320  103.7210  -14.8380 O.2   294  TRP294     -0.2867
     30  CB        59.9570  102.8320  -12.8090 C.3   294  TRP294      0.0550
     31  CG        60.8160  102.4660  -11.6310 C.ar  294  TRP294      0.0003
     32  CD1       61.5220  103.3120  -10.8200 C.ar  294  TRP294      0.0946
     33  CD2       61.0240  101.1470  -11.1110 C.ar  294  TRP294      0.0152
     34  NE1       62.1760  102.5970   -9.8450 N.ar  294  TRP294     -0.2442
     35  CE2       61.8830  101.2670   -9.9980 C.ar  294  TRP294      0.0810
     36  CE3       60.5680   99.8720  -11.4820 C.ar  294  TRP294      0.0012
     37  CZ2       62.3040  100.1570   -9.2530 C.ar  294  TRP294      0.0191
     38  CZ3       60.9850   98.7670  -10.7420 C.ar  294  TRP294      0.0001
     39  CH2       61.8440   98.9180   -9.6420 C.ar  294  TRP294      0.0015
     40  N         58.2850  108.8190  -10.8680 N.3   322  ASP322     -0.1225
     41  CA        58.4120  107.6740   -9.9690 C.3   322  ASP322      0.1805
     42  C         59.4710  107.9030   -8.8670 C.2   322  ASP322      0.2597
     43  O         59.9530  109.0180   -8.6990 O.2   322  ASP322     -0.2718
     44  CB        58.7520  106.4350  -10.7980 C.3   322  ASP322      0.1424
     45  CG        58.2330  105.1590  -10.1830 C.2   322  ASP322      0.3668
     46  OD1       58.3990  104.9600   -8.9600 O.co2 322  ASP322     -0.2456
     47  OD2       57.6660  104.3410  -10.9370 O.co2 322  ASP322     -0.2456
     48  N         59.8330  106.8430   -8.1390 N.am  323  ILE323     -0.1980
     49  CA        60.6550  106.9270   -6.9160 C.3   323  ILE323      0.1595
     50  C         62.0770  107.4750   -7.0940 C.2   323  ILE323      0.2287
     51  O         62.7620  107.7570   -6.1060 O.2   323  ILE323     -0.2864
     52  CB        60.7470  105.5630   -6.1730 C.3   323  ILE323      0.0276
     53  CG1       61.2870  104.4660   -7.1000 C.3   323  ILE323      0.0022
     54  CG2       59.4030  105.1770   -5.5830 C.3   323  ILE323      0.0022
     55  CD1       61.6550  103.1650   -6.3960 C.3   323  ILE323      0.0001
     56  N         54.8700  110.0820   -7.1050 N.3   359  ILE359     -0.1245
     57  CA        54.5300  108.8340   -6.4190 C.3   359  ILE359      0.1561
     58  C         54.8240  108.9710   -4.9200 C.2   359  ILE359      0.2260
     59  O         55.7800  109.6360   -4.5220 O.2   359  ILE359     -0.2867
     60  CB        55.2850  107.6170   -7.0200 C.3   359  ILE359      0.0252
     61  CG1       54.6100  106.2970   -6.6150 C.3   359  ILE359      0.0019
     62  CG2       56.7690  107.6350   -6.6300 C.3   359  ILE359      0.0019
     63  CD1       55.1590  105.0600   -7.3250 C.3   359  ILE359      0.0001
     64  N         54.9060  106.4060   -1.3390 N.3   361  ASP361     -0.1239
     65  CA        54.8310  105.0600   -0.7890 C.3   361  ASP361      0.1674
     66  C         54.3980  105.1500    0.6710 C.2   361  ASP361      0.2266
     67  O         54.6290  106.1750    1.3060 O.2   361  ASP361     -0.2867
     68  CB        56.1860  104.3630   -0.9190 C.3   361  ASP361      0.1410
     69  CG        56.5400  104.0230   -2.3630 C.2   361  ASP361      0.3668
     70  OD1       55.7240  103.3860   -3.0670 O.co2 361  ASP361     -0.2456
     71  OD2       57.6500  104.3880   -2.7960 O.co2 361  ASP361     -0.2456
     72  N         61.6700  100.2090   -0.7250 N.3   397  TRP397     -0.1241
     73  CA        62.6390  100.9030   -1.5820 C.3   397  TRP397      0.1605
     74  C         63.8200  101.6010   -0.8790 C.2   397  TRP397      0.2264
     75  O         64.9510  101.4680   -1.3480 O.2   397  TRP397     -0.2867
     76  CB        61.9390  101.8530   -2.5690 C.3   397  TRP397      0.0550
     77  CG        60.9410  101.1620   -3.4710 C.ar  397  TRP397      0.0003
     78  CD1       59.5980  101.3880   -3.5210 C.ar  397  TRP397      0.0946
     79  CD2       61.2100  100.1260   -4.4310 C.ar  397  TRP397      0.0152
     80  NE1       59.0120  100.5680   -4.4540 N.ar  397  TRP397     -0.2442
     81  CE2       59.9750   99.7820   -5.0270 C.ar  397  TRP397      0.0810
     82  CE3       62.3730   99.4560   -4.8450 C.ar  397  TRP397      0.0012
     83  CZ2       59.8650   98.7970   -6.0200 C.ar  397  TRP397      0.0191
     84  CZ3       62.2650   98.4710   -5.8310 C.ar  397  TRP397      0.0001
     85  CH2       61.0170   98.1540   -6.4070 C.ar  397  TRP397      0.0015
     86  N         50.1560  109.5940   -6.5710 N.3   432  TRP432     -0.1241
     87  CA        50.0480  108.2010   -6.9790 C.3   432  TRP432      0.1605
     88  C         50.5490  107.3740   -5.8010 C.2   432  TRP432      0.2264
     89  O         51.7320  107.4140   -5.4770 O.2   432  TRP432     -0.2867
     90  CB        50.8690  107.9810   -8.2570 C.3   432  TRP432      0.0550
     91  CG        51.1990  106.5620   -8.6430 C.ar  432  TRP432      0.0003
     92  CD1       50.4830  105.4270   -8.3560 C.ar  432  TRP432      0.0946
     93  CD2       52.3070  106.1380   -9.4470 C.ar  432  TRP432      0.0152
     94  NE1       51.0990  104.3290   -8.9000 N.ar  432  TRP432     -0.2442
     95  CE2       52.2140  104.7340   -9.5830 C.ar  432  TRP432      0.0810
     96  CE3       53.3800  106.8080  -10.0560 C.ar  432  TRP432      0.0012
     97  CZ2       53.1560  103.9840  -10.2970 C.ar  432  TRP432      0.0191
     98  CZ3       54.3210  106.0610  -10.7700 C.ar  432  TRP432      0.0001
     99  CH2       54.1970  104.6610  -10.8850 C.ar  432  TRP432      0.0015
    100  N         51.3780  103.9360   -4.0400 N.3   434  ASP434     -0.1225
    101  CA        51.7650  102.6220   -4.5030 C.3   434  ASP434      0.1805
    102  C         52.2150  101.7570   -3.3300 C.2   434  ASP434      0.2597
    103  O         52.4190  102.2720   -2.2250 O.2   434  ASP434     -0.2718
    104  CB        52.8830  102.7790   -5.5340 C.3   434  ASP434      0.1424
    105  CG        53.2040  101.4900   -6.2490 C.2   434  ASP434      0.3668
    106  OD1       52.2670  100.8290   -6.7420 O.co2 434  ASP434     -0.2456
    107  OD2       54.3970  101.1400   -6.3070 O.co2 434  ASP434     -0.2456
    108  N         52.3470  100.4460   -3.5790 N.am  435  MET435     -0.1979
    109  CA        52.8920   99.4750   -2.6090 C.3   435  MET435      0.1605
    110  C         52.0690   99.3870   -1.3240 C.2   435  MET435      0.2287
    111  O         52.6040   99.0740   -0.2520 O.2   435  MET435     -0.2864
    112  CB        54.3620   99.7930   -2.2550 C.3   435  MET435      0.0413
    113  CG        55.3010   99.9790   -3.4320 C.3   435  MET435      0.0598
    114  SD        55.7570   98.4420   -4.2620 S.3   435  MET435     -0.1393
    115  CE        56.8000   97.6550   -3.0370 C.3   435  MET435      0.0692
    116  N         59.6300   93.8170    1.4790 N.3   441  PHE441     -0.1241
    117  CA        60.6560   92.9810    0.8290 C.3   441  PHE441      0.1605
    118  C         61.2670   91.9240    1.7630 C.2   441  PHE441      0.2264
    119  O         62.0710   91.1020    1.3310 O.2   441  PHE441     -0.2867
    120  CB        61.7870   93.8260    0.2170 C.3   441  PHE441      0.0534
    121  CG        61.3480   94.7680   -0.8740 C.ar  441  PHE441     -0.0203
    122  CD1       60.2420   94.4930   -1.6680 C.ar  441  PHE441     -0.0042
    123  CD2       62.0840   95.9220   -1.1330 C.ar  441  PHE441     -0.0042
    124  CE1       59.8540   95.3690   -2.6780 C.ar  441  PHE441     -0.0003
    125  CE2       61.7050   96.8070   -2.1430 C.ar  441  PHE441     -0.0003
    126  CZ        60.5890   96.5290   -2.9180 C.ar  441  PHE441     -0.0000
    127  N         55.4900   88.5170    1.7270 N.3   471  LYS471     -0.1245
    128  CA        55.4900   89.8280    1.0570 C.3   471  LYS471      0.1561
    129  C         54.7850   90.9440    1.8570 C.2   471  LYS471      0.2260
    130  O         54.4840   92.0220    1.3230 O.2   471  LYS471     -0.2867
    131  CB        54.8800   89.7070   -0.3480 C.3   471  LYS471      0.0271
    132  CG        55.4460   90.6580   -1.3800 C.3   471  LYS471      0.0035
    133  CD        56.9610   90.6540   -1.3320 C.3   471  LYS471      0.0206
    134  CE        57.5560   90.5010   -2.7090 C.3   471  LYS471      0.1093
    135  NZ        56.8050   91.3080   -3.7080 N.3   471  LYS471     -0.1314
    136  N         47.0340  101.5080   -5.7090 N.3   517  ARG517     -0.1245
    137  CA        47.1880  100.1300   -6.1380 C.3   517  ARG517      0.1563
    138  C         46.1930   99.2480   -5.3950 C.2   517  ARG517      0.2260
    139  O         45.1760   98.8400   -5.9590 O.2   517  ARG517     -0.2867
    140  CB        48.6320   99.6380   -5.9710 C.3   517  ARG517      0.0307
    141  CG        48.9180   98.3920   -6.8120 C.3   517  ARG517      0.0489
    142  CD        50.3960   98.1450   -7.0040 C.3   517  ARG517      0.2205
    143  NE        51.0030   97.5490   -5.8190 N.pl3 517  ARG517     -0.0865
    144  CZ        52.2820   97.2110   -5.7240 C.cat 517  ARG517      0.5346
    145  NH1       53.1060   97.4150   -6.7460 N.pl3 517  ARG517      0.1354
    146  NH2       52.7410   96.6680   -4.6070 N.pl3 517  ARG517      0.1354
    147  N         44.8350  101.4950  -11.1770 N.3   530  TRP530     -0.1241
    148  CA        45.3710  100.9220  -12.4080 C.3   530  TRP530      0.1605
    149  C         45.7480   99.4640  -12.1510 C.2   530  TRP530      0.2264
    150  O         46.0430   99.0910  -11.0160 O.2   530  TRP530     -0.2867
    151  CB        46.5420  101.7590  -12.9460 C.3   530  TRP530      0.0550
    152  CG        47.9020  101.3180  -12.4900 C.ar  530  TRP530      0.0003
    153  CD1       48.8690  100.7580  -13.2620 C.ar  530  TRP530      0.0946
    154  CD2       48.4430  101.4010  -11.1620 C.ar  530  TRP530      0.0152
    155  NE1       49.9830  100.4840  -12.5040 N.ar  530  TRP530     -0.2442
    156  CE2       49.7470  100.8630  -11.2100 C.ar  530  TRP530      0.0810
    157  CE3       47.9490  101.8720   -9.9370 C.ar  530  TRP530      0.0012
    158  CZ2       50.5630  100.7750  -10.0840 C.ar  530  TRP530      0.0191
    159  CZ3       48.7650  101.7960   -8.8170 C.ar  530  TRP530      0.0001
    160  CH2       50.0570  101.2490   -8.8980 C.ar  530  TRP530      0.0015
    161  N         51.4830   95.8850  -12.2490 N.3   533  ASP533     -0.1239
    162  CA        52.7280   95.5760  -12.9530 C.3   533  ASP533      0.1674
    163  C         52.6040   94.5700  -14.0910 C.2   533  ASP533      0.2266
    164  O         53.2100   93.5090  -14.0450 O.2   533  ASP533     -0.2867
    165  CB        53.7920   95.1040  -11.9600 C.3   533  ASP533      0.1410
    166  CG        54.0620   96.1120  -10.8640 C.2   533  ASP533      0.3668
    167  OD1       53.7130   97.3100  -11.0240 O.co2 533  ASP533     -0.2456
    168  OD2       54.6350   95.6990   -9.8360 O.co2 533  ASP533     -0.2456
    169  N         48.9960   99.9920  -17.6520 N.3   562  ASP562     -0.1239
    170  CA        50.2360  100.6090  -18.1300 C.3   562  ASP562      0.1674
    171  C         50.4350  100.3770  -19.6260 C.2   562  ASP562      0.2266
    172  O         50.8880   99.3180  -20.0370 O.2   562  ASP562     -0.2867
    173  CB        51.4280  100.0560  -17.3460 C.3   562  ASP562      0.1410
    174  CG        51.3920  100.4440  -15.8740 C.2   562  ASP562      0.3668
    175  OD1       50.8500  101.5210  -15.5440 O.co2 562  ASP562     -0.2456
    176  OD2       51.9190   99.6760  -15.0440 O.co2 562  ASP562     -0.2456
    177  N         54.4770   97.5020  -18.7520 N.3   566  PHE566     -0.1227
    178  CA        55.4260   97.9120  -17.7100 C.3   566  PHE566      0.1736
    179  C         56.7170   97.0970  -17.8100 C.2   566  PHE566      0.2595
    180  O         57.7490   97.6070  -18.2660 O.2   566  PHE566     -0.2718
    181  CB        54.7400   97.7780  -16.3350 C.3   566  PHE566      0.0547
    182  CG        55.6230   98.0760  -15.1470 C.ar  566  PHE566     -0.0202
    183  CD1       55.9840   99.3820  -14.8330 C.ar  566  PHE566     -0.0042
    184  CD2       56.0420   97.0450  -14.3060 C.ar  566  PHE566     -0.0042
    185  CE1       56.7850   99.6600  -13.7160 C.ar  566  PHE566     -0.0003
    186  CE2       56.8430   97.3030  -13.1960 C.ar  566  PHE566     -0.0003
    187  CZ        57.2190   98.6220  -12.8980 C.ar  566  PHE566     -0.0000
    188  N         56.6520   95.8280  -17.4180 N.am  567  VAL567     -0.1980
    189  CA        57.7970   94.9080  -17.5180 C.3   567  VAL567      0.1595
    190  C         58.1500   94.5980  -18.9800 C.2   567  VAL567      0.2287
    191  O         57.2650   94.5190  -19.8410 O.2   567  VAL567     -0.2864
    192  CB        57.5340   93.5870  -16.7460 C.3   567  VAL567      0.0276
    193  CG1       58.7140   92.6380  -16.8580 C.3   567  VAL567      0.0022
    194  CG2       57.2490   93.8690  -15.2860 C.3   567  VAL567      0.0022
    195  N         53.3790  103.8670  -19.0790 N.3   591  HIS591     -0.1241
    196  CA        54.2920  103.6130  -17.9630 C.3   591  HIS591      0.1621
    197  C         55.1880  102.3970  -18.2460 C.2   591  HIS591      0.2264
    198  O         54.7580  101.4340  -18.8880 O.2   591  HIS591     -0.2867
    199  CB        53.4940  103.4150  -16.6690 C.3   591  HIS591      0.0745
    200  CG        54.3410  103.3220  -15.4370 C.ar  591  HIS591      0.0817
    201  ND1       55.2110  104.3200  -15.0490 N.ar  591  HIS591     -0.2268
    202  CD2       54.4330  102.3550  -14.4940 C.ar  591  HIS591      0.1154
    203  CE1       55.8130  103.9640  -13.9290 C.ar  591  HIS591      0.1986
    204  NE2       55.3560  102.7770  -13.5690 N.ar  591  HIS591     -0.2212
    205  N         58.9700  100.0740  -16.8070 N.3   593  SER593     -0.1217
    206  CA        59.7400   99.6360  -15.6370 C.3   593  SER593      0.1889
    207  C         61.2110  100.0340  -15.7150 C.2   593  SER593      0.2288
    208  O         61.7100  100.3980  -16.7800 O.2   593  SER593     -0.2866
    209  CB        59.6260   98.1120  -15.4700 C.3   593  SER593      0.2089
    210  OG        60.2160   97.6630  -14.2560 O.3   593  SER593     -0.2183
@<TRIPOS>BOND
     1   172   171    2
     2   191   190    2
     3   171   170    1
     4   195   196    1
     5   190   189    1
     6   198   197    2
     7   177   178    1
     8   180   179    2
     9   197   196    1
    10   170   169    1
    11   170   173    1
    12   196   199    1
    13   179   178    1
    14   179   188   am
    15   178   181    1
    16   189   188    1
    17   189   192    1
    18   173   174    1
    19   193   192    1
    20   205   206    1
    21   208   207    2
    22   192   194    1
    23   199   200    1
    24   181   182    1
    25   174   175   ar
    26   174   176   ar
    27   207   206    1
    28   206   209    1
    29   209   210    1
    30   200   201   ar
    31   200   202   ar
    32   182   183   ar
    33   182   184   ar
    34   201   203   ar
    35    29    28    2
    36   183   185   ar
    37    26    27    1
    38   202   204   ar
    39   184   186   ar
    40   163   164    2
    41   163   162    1
    42   203   204   ar
    43    28    27    1
    44   185   187   ar
    45    27    30    1
    46   153   155   ar
    47   153   152   ar
    48   186   187   ar
    49   162   161    1
    50   162   165    1
    51   151   152    1
    52   151   148    1
    53    30    31    1
    54   155   156   ar
    55   152   154   ar
    56   148   149    1
    57   148   147    1
    58    24    23    1
    59   149   150    2
    60   165   166    1
    61    22    23    1
    62    22    19    1
    63    31    33   ar
    64    31    32   ar
    65    36    33   ar
    66    36    38   ar
    67    20    21    2
    68    20    19    1
    69    23    25    1
    70   156   154   ar
    71   156   158   ar
    72   154   157   ar
    73    33    35   ar
    74   167   166   ar
    75    47    45   ar
    76    99    98   ar
    77    99    97   ar
    78    40    41    1
    79   166   168   ar
    80    19    18    1
    81    32    34   ar
    82    44    45    1
    83    44    41    1
    84    98    96   ar
    85    38    39   ar
    86    97    95   ar
    87    45    46   ar
    88   158   160   ar
    89    96    93   ar
    90    35    34   ar
    91    35    37   ar
    92    41    42    1
    93   157   159   ar
    94    39    37   ar
    95    95    93   ar
    96    95    94   ar
    97    93    91   ar
    98    18    11   am
    99    17    15   am
   100    94    92   ar
   101   160   159   ar
   102    12    11    2
   103    42    43    2
   104    42    48   am
   105    91    92   ar
   106    91    90    1
   107    11    10    1
   108    90    87    1
   109    15    14    1
   110    15    16    2
   111    48    49    1
   112    14    13    1
   113    63    61    1
   114    10    13    1
   115    10     9    1
   116    56    57    1
   117    53    55    1
   118    53    52    1
   119    50    49    1
   120    50    51    2
   121    60    62    1
   122    60    61    1
   123    60    57    1
   124   142   141    1
   125   142   143    1
   126    87    86    1
   127    87    88    1
   128    49    52    1
   129   141   140    1
   130   145   144    1
   131   106   105   ar
   132    57    58    1
   133    85    83   ar
   134    85    84   ar
   135   107   105   ar
   136   105   104    1
   137     9     3   am
   138    52    54    1
   139   137   140    1
   140   137   136    1
   141   137   138    1
   142    83    81   ar
   143   139   138    2
   144     7     6   ar
   145    84    82   ar
   146   143   144    2
   147    88    89    2
   148   144   146    1
   149   104   101    1
   150    81    80   ar
   151    81    79   ar
   152     3     4    2
   153     3     2    1
   154    58    59    2
   155    82    79   ar
   156     6     8   ar
   157     6     5    1
   158   101   100    1
   159   101   102    1
   160    80    78   ar
   161    79    77   ar
   162   114   113    1
   163   114   115    1
   164     2     5    1
   165     2     1    1
   166   135   134    1
   167   108   102   am
   168   108   109    1
   169    78    77   ar
   170    77    76    1
   171   113   112    1
   172   102   103    2
   173    70    69   ar
   174   126   124   ar
   175   126   125   ar
   176    71    69   ar
   177   134   133    1
   178   124   122   ar
   179   109   112    1
   180   109   110    1
   181    76    73    1
   182    69    68    1
   183   125   123   ar
   184   122   121   ar
   185    73    74    1
   186    73    72    1
   187   132   133    1
   188   132   131    1
   189    75    74    2
   190    64    65    1
   191   110   111    2
   192   123   121   ar
   193    68    65    1
   194   121   120    1
   195    65    66    1
   196   131   128    1
   197   120   117    1
   198    66    67    2
   199   117   116    1
   200   117   118    1
   201   128   127    1
   202   128   129    1
   203   130   129    2
   204   119   118    2
