@<TRIPOS>MOLECULE
tmp/3lppC00.pdb
 89 85 0 0 0
SMALL
GASTEIGER

@<TRIPOS>ATOM
      1  N         27.4480  103.1940   30.5560 N.3   391  HIS391     -0.1241
      2  CA        27.3030  101.7260   30.4500 C.3   391  HIS391      0.1621
      3  C         28.3760  100.9610   31.2340 C.2   391  HIS391      0.2264
      4  O         29.0290  100.0560   30.7070 O.2   391  HIS391     -0.2867
      5  CB        27.2780  101.2820   28.9750 C.3   391  HIS391      0.0745
      6  CG        26.1410  101.8610   28.1840 C.ar  391  HIS391      0.0817
      7  ND1       26.2360  103.0630   27.5150 N.ar  391  HIS391     -0.2268
      8  CD2       24.8860  101.4040   27.9530 C.ar  391  HIS391      0.1154
      9  CE1       25.0900  103.3230   26.9050 C.ar  391  HIS391      0.1986
     10  NE2       24.2570  102.3270   27.1450 N.ar  391  HIS391     -0.2212
     11  N         28.1840   99.0200   34.0250 N.3   393  TRP393     -0.1241
     12  CA        27.7520   97.9330   34.9230 C.3   393  TRP393      0.1605
     13  C         28.1040   96.5260   34.4430 C.2   393  TRP393      0.2264
     14  O         28.1710   96.2660   33.2450 O.2   393  TRP393     -0.2867
     15  CB        26.2370   98.0060   35.1920 C.3   393  TRP393      0.0550
     16  CG        25.6730   99.3860   35.4850 C.ar  393  TRP393      0.0003
     17  CD1       24.6690  100.0160   34.7990 C.ar  393  TRP393      0.0946
     18  CD2       26.0640  100.2890   36.5350 C.ar  393  TRP393      0.0152
     19  NE1       24.4200  101.2480   35.3480 N.ar  393  TRP393     -0.2442
     20  CE2       25.2520  101.4370   36.4210 C.ar  393  TRP393      0.0810
     21  CE3       27.0170  100.2330   37.5710 C.ar  393  TRP393      0.0012
     22  CZ2       25.3660  102.5280   37.2910 C.ar  393  TRP393      0.0191
     23  CZ3       27.1310  101.3160   38.4350 C.ar  393  TRP393      0.0001
     24  CH2       26.3030  102.4480   38.2930 C.ar  393  TRP393      0.0015
     25  N         26.9680   92.9200   33.5040 N.3   395  ASN395     -0.1240
     26  CA        25.7180   92.4380   32.9050 C.3   395  ASN395      0.1653
     27  C         25.4500   90.9730   33.1980 C.2   395  ASN395      0.2266
     28  O         26.3850   90.2050   33.4420 O.2   395  ASN395     -0.2867
     29  CB        25.7120   92.6250   31.3730 C.3   395  ASN395      0.1155
     30  CG        25.9080   94.0670   30.9410 C.2   395  ASN395      0.2627
     31  OD1       25.4460   94.9930   31.5990 O.2   395  ASN395     -0.2716
     32  ND2       26.5810   94.2540   29.7980 N.am  395  ASN395     -0.0877
     33  N         24.6840   89.6800   28.0990 N.3   399  GLY399     -0.1210
     34  CA        25.6020   90.7490   27.7240 C.3   399  GLY399      0.1956
     35  C         25.0350   92.1550   27.6240 C.2   399  GLY399      0.2612
     36  O         25.7220   93.0430   27.1260 O.2   399  GLY399     -0.2717
     37  N         23.7990   92.3760   28.0830 N.am  400  SER400     -0.1952
     38  CA        23.1920   93.7170   28.0010 C.3   400  SER400      0.1924
     39  C         22.3740   94.1980   29.2140 C.2   400  SER400      0.2314
     40  O         22.2850   95.4050   29.4540 O.2   400  SER400     -0.2863
     41  CB        22.3690   93.8730   26.7120 C.3   400  SER400      0.2116
     42  OG        21.3430   92.8990   26.6310 O.3   400  SER400     -0.2180
     43  N         21.9130   94.9420   33.0090 N.3   402  PRO402     -0.2116
     44  CA        22.7300   95.0100   34.2440 C.3   402  PRO402      0.1372
     45  C         22.1810   94.0920   35.3410 C.2   402  PRO402      0.2244
     46  O         20.9870   94.0980   35.6360 O.2   402  PRO402     -0.2868
     47  CB        22.6620   96.4850   34.6640 C.3   402  PRO402      0.0268
     48  CG        22.0920   97.2310   33.4700 C.3   402  PRO402      0.0207
     49  CD        21.2880   96.2370   32.6680 C.3   402  PRO402      0.0892
     50  N         31.7220   97.5150   36.6870 N.3   416  ASP416     -0.1239
     51  CA        32.7220   96.6440   36.1140 C.3   416  ASP416      0.1674
     52  C         34.0540   97.3920   36.1020 C.2   416  ASP416      0.2266
     53  O         34.3590   98.1050   35.1570 O.2   416  ASP416     -0.2867
     54  CB        32.3120   96.2270   34.6960 C.3   416  ASP416      0.1410
     55  CG        33.3650   95.3770   34.0150 C.2   416  ASP416      0.3668
     56  OD1       34.3270   94.9480   34.7060 O.co2 416  ASP416     -0.2456
     57  OD2       33.2340   95.1310   32.7960 O.co2 416  ASP416     -0.2456
     58  N         36.6120   97.5360   33.1030 N.3   419  ASN419     -0.1240
     59  CA        36.2650   98.3470   31.9370 C.3   419  ASN419      0.1653
     60  C         36.7660   99.7820   32.1340 C.2   419  ASN419      0.2266
     61  O         36.3540  100.4420   33.0820 O.2   419  ASN419     -0.2867
     62  CB        34.7420   98.3280   31.7640 C.3   419  ASN419      0.1155
     63  CG        34.2660   99.0710   30.5260 C.2   419  ASN419      0.2627
     64  OD1       34.4420  100.2810   30.4070 O.2   419  ASN419     -0.2716
     65  ND2       33.6200   98.3510   29.6150 N.am  419  ASN419     -0.0877
     66  N         28.8170   88.8690   33.2920 N.3   489  VAL489     -0.1231
     67  CA        29.9040   89.2180   32.3800 C.3   489  VAL489      0.1692
     68  C         30.5210   90.5860   32.6380 C.2   489  VAL489      0.2592
     69  O         29.8260   91.5680   32.8830 O.2   489  VAL489     -0.2718
     70  CB        29.4760   89.1410   30.8740 C.3   489  VAL489      0.0266
     71  CG1       29.1050   87.7050   30.4740 C.3   489  VAL489      0.0020
     72  CG2       28.3390   90.1030   30.5710 C.3   489  VAL489      0.0020
     73  N         31.8420   90.6210   32.5340 N.am  490  GLN490     -0.1966
     74  CA        32.6390   91.8340   32.6680 C.3   490  GLN490      0.1733
     75  C         33.5670   91.9090   31.4700 C.2   490  GLN490      0.2616
     76  O         33.6400   90.9670   30.6820 O.2   490  GLN490     -0.2715
     77  CB        33.4690   91.7850   33.9650 C.3   490  GLN490      0.0408
     78  CG        32.6490   91.8970   35.2380 C.3   490  GLN490      0.0908
     79  CD        33.5160   91.8450   36.5130 C.2   490  GLN490      0.2608
     80  OE1       34.2690   92.7720   36.8120 O.2   490  GLN490     -0.2717
     81  NE2       33.3940   90.7670   37.2620 N.am  490  GLN490     -0.0878
     82  N         34.2750   93.0260   31.3410 N.am  491  ASN491     -0.1972
     83  CA        35.2920   93.2060   30.3010 C.3   491  ASN491      0.1688
     84  C         36.3720   92.1020   30.3290 C.2   491  ASN491      0.2292
     85  O         36.7500   91.5910   29.2730 O.2   491  ASN491     -0.2864
     86  CB        35.9200   94.6070   30.4170 C.3   491  ASN491      0.1181
     87  CG        36.8930   94.9160   29.3000 C.2   491  ASN491      0.2629
     88  OD1       38.0150   95.4000   29.5390 O.2   491  ASN491     -0.2716
     89  ND2       36.4660   94.6600   28.0620 N.am  491  ASN491     -0.0877
@<TRIPOS>BOND
     1    42    41    1
     2    41    38    1
     3     9    10   ar
     4     9     7   ar
     5    36    35    2
     6    10     8   ar
     7     7     6   ar
     8    35    34    1
     9    35    37   am
    10    34    33    1
    11     8     6   ar
    12    38    37    1
    13    38    39    1
    14    89    87   am
    15     6     5    1
    16     5     2    1
    17    39    40    2
    18    85    84    2
    19    87    88    2
    20    87    86    1
    21    65    63   am
    22    32    30   am
    23    83    84    1
    24    83    86    1
    25    83    82    1
    26    64    63    2
    27     2     1    1
    28     2     3    1
    29    71    70    1
    30    63    62    1
    31    72    70    1
    32    76    75    2
    33     4     3    2
    34    70    67    1
    35    30    29    1
    36    30    31    2
    37    82    75   am
    38    29    26    1
    39    75    74    1
    40    62    59    1
    41    59    60    1
    42    59    58    1
    43    60    61    2
    44    67    68    1
    45    67    66    1
    46    73    68   am
    47    73    74    1
    48    68    69    2
    49    74    77    1
    50    49    43    1
    51    49    48    1
    52    57    55   ar
    53    26    27    1
    54    26    25    1
    55    43    44    1
    56    27    28    2
    57    14    13    2
    58    48    47    1
    59    77    78    1
    60    55    54    1
    61    55    56   ar
    62    11    12    1
    63    44    47    1
    64    44    45    1
    65    13    12    1
    66    54    51    1
    67    17    19   ar
    68    17    16   ar
    69    12    15    1
    70    53    52    2
    71    15    16    1
    72    78    79    1
    73    45    46    2
    74    19    20   ar
    75    16    18   ar
    76    52    51    1
    77    51    50    1
    78    20    18   ar
    79    20    22   ar
    80    79    80    2
    81    79    81   am
    82    18    21   ar
    83    22    24   ar
    84    21    23   ar
    85    24    23   ar
