@<TRIPOS>MOLECULE
tmp/3lppC02.pdb
 136 135 0 0 0
SMALL
GASTEIGER

@<TRIPOS>ATOM
      1  N         31.7350  101.1650   62.9790 N.3   300  TRP300     -0.1241
      2  CA        30.4810  101.0800   62.2390 C.3   300  TRP300      0.1605
      3  C         29.3970  101.6890   63.1140 C.2   300  TRP300      0.2264
      4  O         29.1750  101.2480   64.2510 O.2   300  TRP300     -0.2867
      5  CB        30.1630   99.6280   61.9030 C.3   300  TRP300      0.0550
      6  CG        28.9170   99.3900   61.0450 C.ar  300  TRP300      0.0003
      7  CD1       28.1940  100.3190   60.3250 C.ar  300  TRP300      0.0946
      8  CD2       28.2850   98.1270   60.8140 C.ar  300  TRP300      0.0152
      9  NE1       27.1400   99.7050   59.6900 N.ar  300  TRP300     -0.2442
     10  CE2       27.1750   98.3600   59.9700 C.ar  300  TRP300      0.0810
     11  CE3       28.5350   96.8210   61.2670 C.ar  300  TRP300      0.0012
     12  CZ2       26.3290   97.3210   59.5390 C.ar  300  TRP300      0.0191
     13  CZ3       27.6960   95.7910   60.8500 C.ar  300  TRP300      0.0001
     14  CH2       26.6050   96.0490   59.9870 C.ar  300  TRP300      0.0015
     15  N         32.3570  105.1340   58.7790 N.3   328  ASP328     -0.1225
     16  CA        31.7290  104.0080   58.0820 C.3   328  ASP328      0.1805
     17  C         30.4380  104.4570   57.3670 C.2   328  ASP328      0.2597
     18  O         30.1900  105.6530   57.2580 O.2   328  ASP328     -0.2718
     19  CB        31.4300  102.8950   59.0860 C.3   328  ASP328      0.1424
     20  CG        31.5120  101.5170   58.4730 C.2   328  ASP328      0.3668
     21  OD1       31.0740  101.3270   57.3090 O.co2 328  ASP328     -0.2456
     22  OD2       32.0190  100.6110   59.1630 O.co2 328  ASP328     -0.2456
     23  N         29.6140  103.5060   56.9170 N.am  329  ILE329     -0.1980
     24  CA        28.4960  103.7740   55.9850 C.3   329  ILE329      0.1595
     25  C         27.4160  104.7420   56.5040 C.2   329  ILE329      0.2287
     26  O         26.5700  105.1990   55.7390 O.2   329  ILE329     -0.2864
     27  CB        27.8330  102.4560   55.4510 C.3   329  ILE329      0.0276
     28  CG1       27.4090  101.5530   56.6200 C.3   329  ILE329      0.0022
     29  CG2       28.7830  101.7340   54.4900 C.3   329  ILE329      0.0022
     30  CD1       26.8160  100.2150   56.2330 C.3   329  ILE329      0.0001
     31  N         34.5970  105.4570   53.7960 N.3   365  ILE365     -0.1245
     32  CA        34.3530  104.1650   53.1700 C.3   365  ILE365      0.1561
     33  C         33.5640  104.3860   51.8570 C.2   365  ILE365      0.2260
     34  O         32.7670  105.3260   51.7460 O.2   365  ILE365     -0.2867
     35  CB        33.6180  103.1920   54.1460 C.3   365  ILE365      0.0252
     36  CG1       33.7340  101.7370   53.6880 C.3   365  ILE365      0.0019
     37  CG2       32.1510  103.5630   54.3120 C.3   365  ILE365      0.0019
     38  CD1       33.0160  100.7380   54.6190 C.3   365  ILE365      0.0001
     39  N         24.0660   97.4470   51.1590 N.3   408  TRP408     -0.1241
     40  CA        23.5940   98.3510   52.2220 C.3   408  TRP408      0.1605
     41  C         22.4700   99.3160   51.8350 C.2   408  TRP408      0.2264
     42  O         21.5370   99.4950   52.6180 O.2   408  TRP408     -0.2867
     43  CB        24.7570   99.1200   52.8400 C.3   408  TRP408      0.0550
     44  CG        25.8680   98.2660   53.3540 C.ar  408  TRP408      0.0003
     45  CD1       27.1510   98.2280   52.8870 C.ar  408  TRP408      0.0946
     46  CD2       25.8130   97.3410   54.4540 C.ar  408  TRP408      0.0152
     47  NE1       27.8920   97.3300   53.6120 N.ar  408  TRP408     -0.2442
     48  CE2       27.0970   96.7700   54.5800 C.ar  408  TRP408      0.0810
     49  CE3       24.7990   96.9330   55.3360 C.ar  408  TRP408      0.0012
     50  CZ2       27.4040   95.8110   55.5600 C.ar  408  TRP408      0.0191
     51  CZ3       25.1060   95.9690   56.3130 C.ar  408  TRP408      0.0001
     52  CH2       26.3940   95.4260   56.4130 C.ar  408  TRP408      0.0015
     53  N         38.5560  103.9290   51.8690 N.3   443  TRP443     -0.1241
     54  CA        38.5030  102.5830   52.3560 C.3   443  TRP443      0.1605
     55  C         37.4850  101.8830   51.4740 C.2   443  TRP443      0.2264
     56  O         36.3180  102.2510   51.4620 O.2   443  TRP443     -0.2867
     57  CB        38.0720  102.6240   53.8210 C.3   443  TRP443      0.0550
     58  CG        37.6120  101.3410   54.4300 C.ar  443  TRP443      0.0003
     59  CD1       37.8640  100.0720   53.9910 C.ar  443  TRP443      0.0946
     60  CD2       36.8560  101.2050   55.6460 C.ar  443  TRP443      0.0152
     61  NE1       37.2890   99.1590   54.8380 N.ar  443  TRP443     -0.2442
     62  CE2       36.6650   99.8220   55.8630 C.ar  443  TRP443      0.0810
     63  CE3       36.3080  102.1220   56.5610 C.ar  443  TRP443      0.0012
     64  CZ2       35.9430   99.3240   56.9550 C.ar  443  TRP443      0.0191
     65  CZ3       35.6020  101.6280   57.6630 C.ar  443  TRP443      0.0001
     66  CH2       35.4280  100.2350   57.8450 C.ar  443  TRP443      0.0015
     67  N         35.4470   98.5890   50.4570 N.3   445  ASP445     -0.1225
     68  CA        34.9780   97.4660   51.2280 C.3   445  ASP445      0.1805
     69  C         33.9360   96.7050   50.4020 C.2   445  ASP445      0.2597
     70  O         33.5280   97.1910   49.3450 O.2   445  ASP445     -0.2718
     71  CB        34.3900   98.0130   52.5320 C.3   445  ASP445      0.1424
     72  CG        33.9410   96.9220   53.4750 C.2   445  ASP445      0.3668
     73  OD1       34.5410   95.8340   53.4450 O.co2 445  ASP445     -0.2456
     74  OD2       32.9650   97.1450   54.2230 O.co2 445  ASP445     -0.2456
     75  N         33.5230   95.5180   50.8660 N.am  446  MET446     -0.1979
     76  CA        32.4550   94.7080   50.2160 C.3   446  MET446      0.1605
     77  C         32.7770   94.3430   48.7530 C.2   446  MET446      0.2287
     78  O         31.8770   94.1360   47.9440 O.2   446  MET446     -0.2864
     79  CB        31.0720   95.3950   50.2820 C.3   446  MET446      0.0413
     80  CG        30.6490   95.9760   51.6530 C.3   446  MET446      0.0598
     81  SD        30.4370   94.7350   52.9630 S.3   446  MET446     -0.1393
     82  CE        28.9650   93.8880   52.4070 C.3   446  MET446      0.0692
     83  N         39.3560   95.4080   51.2880 N.3   528  ARG528     -0.1245
     84  CA        39.0640   94.1320   51.9350 C.3   528  ARG528      0.1563
     85  C         39.5270   92.9710   51.0670 C.2   528  ARG528      0.2260
     86  O         40.3290   92.1450   51.5020 O.2   528  ARG528     -0.2867
     87  CB        37.5850   93.9990   52.2940 C.3   528  ARG528      0.0307
     88  CG        37.3340   92.9300   53.3600 C.3   528  ARG528      0.0489
     89  CD        35.9640   93.0880   54.0260 C.3   528  ARG528      0.2205
     90  NE        34.8880   92.6680   53.1240 N.pl3 528  ARG528     -0.0865
     91  CZ        33.5960   92.6580   53.4380 C.cat 528  ARG528      0.5346
     92  NH1       33.1880   93.0400   54.6470 N.pl3 528  ARG528      0.1354
     93  NH2       32.7130   92.2450   52.5410 N.pl3 528  ARG528      0.1354
     94  N         43.2530   95.1000   55.6320 N.3   541  TRP541     -0.1241
     95  CA        43.0950   94.7230   57.0420 C.3   541  TRP541      0.1605
     96  C         42.4200   93.3690   57.1240 C.2   541  TRP541      0.2264
     97  O         41.7640   92.9340   56.1680 O.2   541  TRP541     -0.2867
     98  CB        42.3590   95.7940   57.8590 C.3   541  TRP541      0.0550
     99  CG        40.8770   95.6740   57.9150 C.ar  541  TRP541      0.0003
    100  CD1       40.1250   95.3940   59.0220 C.ar  541  TRP541      0.0946
    101  CD2       39.9400   95.8610   56.8320 C.ar  541  TRP541      0.0152
    102  NE1       38.7860   95.3780   58.6990 N.ar  541  TRP541     -0.2442
    103  CE2       38.6410   95.6670   57.3680 C.ar  541  TRP541      0.0810
    104  CE3       40.0740   96.1770   55.4740 C.ar  541  TRP541      0.0012
    105  CZ2       37.4870   95.7580   56.5920 C.ar  541  TRP541      0.0191
    106  CZ3       38.9320   96.2650   54.7000 C.ar  541  TRP541      0.0001
    107  CH2       37.6500   96.0590   55.2620 C.ar  541  TRP541      0.0015
    108  N         36.3380   91.4210   59.4760 N.3   544  ASP544     -0.1239
    109  CA        35.3460   91.5060   60.5590 C.3   544  ASP544      0.1674
    110  C         35.6660   90.4910   61.6570 C.2   544  ASP544      0.2266
    111  O         34.9830   89.4760   61.8060 O.2   544  ASP544     -0.2867
    112  CB        33.9250   91.3050   60.0010 C.3   544  ASP544      0.1410
    113  CG        33.5130   92.4020   58.9930 C.2   544  ASP544      0.3668
    114  OD1       34.2080   93.4540   58.9350 O.co2 544  ASP544     -0.2456
    115  OD2       32.5020   92.2210   58.2470 O.co2 544  ASP544     -0.2456
    116  N         36.2170   93.6830   66.2420 N.3   577  PHE577     -0.1241
    117  CA        35.0550   94.2350   65.5470 C.3   577  PHE577      0.1605
    118  C         33.7480   93.6980   66.1410 C.2   577  PHE577      0.2264
    119  O         33.0400   94.4390   66.7910 O.2   577  PHE577     -0.2867
    120  CB        35.1980   93.9230   64.0450 C.3   577  PHE577      0.0534
    121  CG        33.9750   94.2290   63.2170 C.ar  577  PHE577     -0.0203
    122  CD1       33.6620   95.5450   62.8600 C.ar  577  PHE577     -0.0042
    123  CD2       33.1530   93.1920   62.7730 C.ar  577  PHE577     -0.0042
    124  CE1       32.5300   95.8230   62.0430 C.ar  577  PHE577     -0.0003
    125  CE2       32.0080   93.4500   61.9780 C.ar  577  PHE577     -0.0003
    126  CZ        31.7030   94.7710   61.6200 C.ar  577  PHE577     -0.0000
    127  N         38.7240   99.4990   65.4020 N.3   602  HIS602     -0.1241
    128  CA        37.4630   99.5020   64.6580 C.3   602  HIS602      0.1621
    129  C         36.4490   98.5620   65.3260 C.2   602  HIS602      0.2264
    130  O         36.8110   97.4930   65.8140 O.2   602  HIS602     -0.2867
    131  CB        37.6990   99.1080   63.1900 C.3   602  HIS602      0.0745
    132  CG        36.4540   99.1010   62.3450 C.ar  602  HIS602      0.0817
    133  ND1       35.6960  100.2330   62.1170 N.ar  602  HIS602     -0.2268
    134  CD2       35.8570   98.1050   61.6450 C.ar  602  HIS602      0.1154
    135  CE1       34.6800   99.9340   61.3290 C.ar  602  HIS602      0.1986
    136  NE2       34.7530   98.6490   61.0290 N.ar  602  HIS602     -0.2212
@<TRIPOS>BOND
     1    78    77    2
     2    77    76    1
     3    70    69    2
     4    76    79    1
     5    76    75    1
     6    79    80    1
     7    69    75   am
     8    69    68    1
     9    67    68    1
    10    85    86    2
    11    85    84    1
    12    39    40    1
    13    68    71    1
    14    83    84    1
    15    56    55    2
    16    55    54    1
    17    80    81    1
    18    34    33    2
    19    41    40    1
    20    41    42    2
    21    33    32    1
    22    53    54    1
    23    84    87    1
    24    40    43    1
    25    87    88    1
    26    54    57    1
    27    82    81    1
    28    71    72    1
    29    93    91    1
    30    43    44    1
    31    45    44   ar
    32    45    47   ar
    33    90    91    2
    34    90    89    1
    35    32    31    1
    36    32    35    1
    37    44    46   ar
    38    88    89    1
    39    91    92    1
    40    73    72   ar
    41    72    74   ar
    42    47    48   ar
    43    36    35    1
    44    36    38    1
    45    57    58    1
    46    59    58   ar
    47    59    61   ar
    48    35    37    1
    49    58    60   ar
    50    46    48   ar
    51    46    49   ar
    52    29    27    1
    53    48    50   ar
    54   106   107   ar
    55   106   104   ar
    56    61    62   ar
    57   107   105   ar
    58    49    51   ar
    59    27    24    1
    60    27    28    1
    61   104   101   ar
    62    50    52   ar
    63    94    95    1
    64    60    62   ar
    65    60    63   ar
    66    26    25    2
    67    62    64   ar
    68    24    25    1
    69    24    23    1
    70    97    96    2
    71    30    28    1
    72    51    52   ar
    73    63    65   ar
    74   105   103   ar
    75   101   103   ar
    76   101    99   ar
    77    23    17   am
    78    64    66   ar
    79    95    96    1
    80    95    98    1
    81    18    17    2
    82    21    20   ar
    83    17    16    1
    84   103   102   ar
    85    65    66   ar
    86    98    99    1
    87    99   100   ar
    88    16    15    1
    89    16    19    1
    90   115   113   ar
    91    20    19    1
    92    20    22   ar
    93   102   100   ar
    94   114   113   ar
    95   113   112    1
    96   108   109    1
    97    12    10   ar
    98    12    14   ar
    99     9    10   ar
   100     9     7   ar
   101    10     8   ar
   102    14    13   ar
   103   112   109    1
   104     7     6   ar
   105   109   110    1
   106     8     6   ar
   107     8    11   ar
   108    13    11   ar
   109   136   135   ar
   110   136   134   ar
   111     6     5    1
   112   135   133   ar
   113   126   125   ar
   114   126   124   ar
   115   134   132   ar
   116   110   111    2
   117     5     2    1
   118   125   123   ar
   119   124   122   ar
   120   133   132   ar
   121     2     1    1
   122     2     3    1
   123   132   131    1
   124   123   121   ar
   125   122   121   ar
   126     3     4    2
   127   131   128    1
   128   121   120    1
   129   120   117    1
   130   128   129    1
   131   128   127    1
   132   129   130    2
   133   117   118    1
   134   117   116    1
   135   118   119    2
