@<TRIPOS>MOLECULE
tmp/3lppB00.pdb
 106 101 0 0 0
SMALL
GASTEIGER

@<TRIPOS>ATOM
      1  N         36.1800   29.4920   81.1530 N.3   388  GLN388     -0.1231
      2  CA        34.7330   29.6130   81.0870 C.3   388  GLN388      0.1698
      3  C         34.2200   30.0640   79.7190 C.2   388  GLN388      0.2592
      4  O         33.0130   30.0890   79.5030 O.2   388  GLN388     -0.2718
      5  CB        34.2220   30.5090   82.2280 C.3   388  GLN388      0.0381
      6  CG        34.2250   29.7870   83.5930 C.3   388  GLN388      0.0905
      7  CD        34.1000   30.7310   84.7880 C.2   388  GLN388      0.2608
      8  OE1       33.0480   31.3400   85.0090 O.2   388  GLN388     -0.2717
      9  NE2       35.1750   30.8430   85.5740 N.am  388  GLN388     -0.0878
     10  N         35.1460   30.3780   78.8060 N.am  389  HIS389     -0.1976
     11  CA        34.8490   30.8080   77.4180 C.3   389  HIS389      0.1656
     12  C         33.9280   32.0260   77.3030 C.2   389  HIS389      0.2291
     13  O         32.9290   31.9980   76.5890 O.2   389  HIS389     -0.2864
     14  CB        34.3350   29.6340   76.5840 C.3   389  HIS389      0.0771
     15  CG        35.2170   28.4280   76.6670 C.ar  389  HIS389      0.0820
     16  ND1       34.8350   27.2670   77.3070 N.ar  389  HIS389     -0.2267
     17  CD2       36.4840   28.2200   76.2340 C.ar  389  HIS389      0.1154
     18  CE1       35.8170   26.3860   77.2410 C.ar  389  HIS389      0.1986
     19  NE2       36.8310   26.9400   76.5970 N.ar  389  HIS389     -0.2212
     20  N         34.6260   35.2290   76.2250 N.3   391  TRP391     -0.1241
     21  CA        35.0840   36.3390   75.3880 C.3   391  TRP391      0.1605
     22  C         34.2660   36.5340   74.1180 C.2   391  TRP391      0.2264
     23  O         33.7210   35.5830   73.5570 O.2   391  TRP391     -0.2867
     24  CB        36.5700   36.2090   75.0140 C.3   391  TRP391      0.0550
     25  CG        37.5050   35.7530   76.1210 C.ar  391  TRP391      0.0003
     26  CD1       38.2850   34.6390   76.1070 C.ar  391  TRP391      0.0946
     27  CD2       37.7480   36.4020   77.3910 C.ar  391  TRP391      0.0152
     28  NE1       39.0040   34.5480   77.2840 N.ar  391  TRP391     -0.2442
     29  CE2       38.6940   35.6150   78.0870 C.ar  391  TRP391      0.0810
     30  CE3       37.2490   37.5600   78.0080 C.ar  391  TRP391      0.0012
     31  CZ2       39.1580   35.9480   79.3640 C.ar  391  TRP391      0.0191
     32  CZ3       37.7180   37.8980   79.2830 C.ar  391  TRP391      0.0001
     33  CH2       38.6690   37.0900   79.9420 C.ar  391  TRP391      0.0015
     34  N         34.2280   36.7970   70.3220 N.3   393  ASN393     -0.1240
     35  CA        35.0650   36.1950   69.2810 C.3   393  ASN393      0.1653
     36  C         35.0900   36.9840   67.9690 C.2   393  ASN393      0.2266
     37  O         34.1970   37.7780   67.6970 O.2   393  ASN393     -0.2867
     38  CB        34.5950   34.7620   68.9810 C.3   393  ASN393      0.1155
     39  CG        34.6590   33.8530   70.1940 C.2   393  ASN393      0.2627
     40  OD1       35.5730   33.9470   71.0230 O.2   393  ASN393     -0.2716
     41  ND2       33.6880   32.9430   70.2860 N.am  393  ASN393     -0.0877
     42  N         33.9310   32.7030   64.9540 N.3   397  GLY397     -0.1210
     43  CA        33.1330   32.2270   66.0910 C.3   397  GLY397      0.1956
     44  C         33.8850   31.3880   67.1110 C.2   397  GLY397      0.2612
     45  O         33.2700   30.7680   67.9810 O.2   397  GLY397     -0.2717
     46  N         35.2130   31.3590   67.0190 N.am  398  SER398     -0.1952
     47  CA        36.0080   30.6130   67.9970 C.3   398  SER398      0.1924
     48  C         37.1980   31.3710   68.5930 C.2   398  SER398      0.2314
     49  O         37.5980   31.1110   69.7300 O.2   398  SER398     -0.2863
     50  CB        36.4540   29.2680   67.4180 C.3   398  SER398      0.2116
     51  OG        36.9380   29.4100   66.0910 O.3   398  SER398     -0.2180
     52  N         39.0820   34.4870   70.1920 N.3   400  PRO400     -0.2116
     53  CA        38.8130   35.7250   70.8970 C.3   400  PRO400      0.1372
     54  C         39.4340   36.9070   70.1660 C.2   400  PRO400      0.2244
     55  O         40.5780   36.8340   69.7130 O.2   400  PRO400     -0.2868
     56  CB        39.4970   35.5220   72.2520 C.3   400  PRO400      0.0268
     57  CG        39.6420   34.0710   72.4030 C.3   400  PRO400      0.0207
     58  CD        39.8670   33.5500   71.0140 C.3   400  PRO400      0.0892
     59  N         31.9220   38.9810   76.8290 N.3   414  ASP414     -0.1239
     60  CA        30.6240   39.0180   76.1950 C.3   414  ASP414      0.1674
     61  C         29.6000   38.9640   77.3220 C.2   414  ASP414      0.2266
     62  O         29.2460   37.8950   77.7870 O.2   414  ASP414     -0.2867
     63  CB        30.4450   37.8320   75.2440 C.3   414  ASP414      0.1410
     64  CG        29.0480   37.7690   74.6510 C.2   414  ASP414      0.3668
     65  OD1       28.3350   38.7900   74.7140 O.co2 414  ASP414     -0.2456
     66  OD2       28.6470   36.7040   74.1380 O.co2 414  ASP414     -0.2456
     67  N         26.2890   36.8510   77.4330 N.3   417  ASN417     -0.1240
     68  CA        26.4480   35.4200   77.6670 C.3   417  ASN417      0.1653
     69  C         26.3050   35.1440   79.1840 C.2   417  ASN417      0.2266
     70  O         27.0690   35.6820   79.9830 O.2   417  ASN417     -0.2867
     71  CB        27.8360   35.0250   77.1380 C.3   417  ASN417      0.1155
     72  CG        28.1590   33.5520   77.2950 C.2   417  ASN417      0.2627
     73  OD1       27.4260   32.7820   77.9110 O.2   417  ASN417     -0.2716
     74  ND2       29.2880   33.1560   76.7360 N.am  417  ASN417     -0.0877
     75  N         27.2530   32.7210   80.8580 N.3   419  ASN419     -0.1240
     76  CA        28.5250   32.2100   81.3690 C.3   419  ASN419      0.1653
     77  C         29.4880   33.3220   81.7590 C.2   419  ASN419      0.2266
     78  O         30.2060   33.2160   82.7610 O.2   419  ASN419     -0.2867
     79  CB        29.1920   31.2850   80.3580 C.3   419  ASN419      0.1155
     80  CG        28.4770   29.9520   80.2260 C.2   419  ASN419      0.2627
     81  OD1       28.5490   29.3030   79.1800 O.2   419  ASN419     -0.2716
     82  ND2       27.7830   29.5350   81.2880 N.am  419  ASN419     -0.0877
     83  N         31.5280   38.4550   67.1130 N.3   487  VAL487     -0.1231
     84  CA        30.3130   37.7800   67.5930 C.3   487  VAL487      0.1692
     85  C         30.1390   37.6840   69.1150 C.2   487  VAL487      0.2592
     86  O         31.0910   37.4060   69.8580 O.2   487  VAL487     -0.2718
     87  CB        30.1470   36.3540   66.9740 C.3   487  VAL487      0.0266
     88  CG1       29.8270   36.4430   65.4530 C.3   487  VAL487      0.0020
     89  CG2       31.3790   35.5020   67.2380 C.3   487  VAL487      0.0020
     90  N         28.8870   37.8820   69.5330 N.am  488  GLN488     -0.1966
     91  CA        28.4280   37.7170   70.9040 C.3   488  GLN488      0.1733
     92  C         27.1960   36.8070   70.9390 C.2   488  GLN488      0.2616
     93  O         26.6020   36.5290   69.8970 O.2   488  GLN488     -0.2715
     94  CB        28.0800   39.0780   71.4970 C.3   488  GLN488      0.0408
     95  CG        29.2980   39.9490   71.7990 C.3   488  GLN488      0.0908
     96  CD        28.9290   41.3250   72.3450 C.2   488  GLN488      0.2608
     97  OE1       28.4820   41.4610   73.4860 O.2   488  GLN488     -0.2717
     98  NE2       29.1280   42.3460   71.5390 N.am  488  GLN488     -0.0878
     99  N         26.8080   36.3630   72.1340 N.am  489  ASN489     -0.1972
    100  CA        25.5840   35.5860   72.3300 C.3   489  ASN489      0.1688
    101  C         24.3550   36.2480   71.6760 C.2   489  ASN489      0.2292
    102  O         23.5770   35.5710   70.9900 O.2   489  ASN489     -0.2864
    103  CB        25.3540   35.3150   73.8340 C.3   489  ASN489      0.1181
    104  CG        24.0800   34.5030   74.1180 C.2   489  ASN489      0.2629
    105  OD1       23.2270   34.9150   74.9150 O.2   489  ASN489     -0.2716
    106  ND2       23.9560   33.3490   73.4810 N.am  489  ASN489     -0.0877
@<TRIPOS>BOND
     1    42    43    1
     2    88    87    1
     3    51    50    1
     4    43    44    1
     5    87    89    1
     6    87    84    1
     7    46    44   am
     8    46    47    1
     9    44    45    2
    10    83    84    1
    11    50    47    1
    12    84    85    1
    13    37    36    2
    14    36    35    1
    15    47    48    1
    16    48    49    2
    17    38    35    1
    18    38    39    1
    19    85    90   am
    20    85    86    2
    21    35    34    1
    22    90    91    1
    23    55    54    2
    24    93    92    2
    25    54    53    1
    26    52    53    1
    27    52    58    1
    28    39    41   am
    29    39    40    2
    30    53    56    1
    31    91    92    1
    32    91    94    1
    33    92    99   am
    34   102   101    2
    35    58    57    1
    36    94    95    1
    37    98    96   am
    38   101   100    1
    39    95    96    1
    40    99   100    1
    41    56    57    1
    42   100   103    1
    43    96    97    2
    44   106   104   am
    45    23    22    2
    46   103   104    1
    47    22    21    1
    48   104   105    2
    49    66    64   ar
    50    64    65   ar
    51    64    63    1
    52    24    21    1
    53    24    25    1
    54    63    60    1
    55    21    20    1
    56    26    25   ar
    57    26    28   ar
    58    25    27   ar
    59    60    59    1
    60    60    61    1
    61    17    19   ar
    62    17    15   ar
    63    14    15    1
    64    14    11    1
    65    13    12    2
    66    19    18   ar
    67    15    16   ar
    68    74    72   am
    69    71    72    1
    70    71    68    1
    71    18    16   ar
    72    28    29   ar
    73    72    73    2
    74    12    11    1
    75    61    62    2
    76    27    30   ar
    77    27    29   ar
    78    11    10    1
    79    67    68    1
    80    68    69    1
    81    30    32   ar
    82    29    31   ar
    83    10     3   am
    84    81    80    2
    85    69    70    2
    86    32    33   ar
    87    31    33   ar
    88     4     3    2
    89     3     2    1
    90    80    79    1
    91    80    82   am
    92    79    76    1
    93    75    76    1
    94     2     1    1
    95     2     5    1
    96    76    77    1
    97    77    78    2
    98     5     6    1
    99     6     7    1
   100     7     8    2
   101     7     9   am
