@<TRIPOS>MOLECULE
tmp/3lppC03.pdb
 86 79 0 0 0
SMALL
GASTEIGER

@<TRIPOS>ATOM
      1  N         57.2640  107.5000   67.9000 N.3   634  THR634     -0.1218
      2  CA        58.7020  107.7470   68.0280 C.3   634  THR634      0.1862
      3  C         59.4650  106.9160   66.9880 C.2   634  THR634      0.2287
      4  O         60.4350  107.3760   66.3850 O.2   634  THR634     -0.2866
      5  CB        59.1980  107.3630   69.4470 C.3   634  THR634      0.1770
      6  OG1       58.5180  108.1580   70.4200 O.3   634  THR634     -0.2211
      7  CG2       60.7130  107.5510   69.5890 C.3   634  THR634      0.0375
      8  N         63.5400   97.7000   75.3030 N.3   705  TYR705     -0.1227
      9  CA        63.3710   99.0060   74.6640 C.3   705  TYR705      0.1736
     10  C         63.2450  100.1650   75.6790 C.2   705  TYR705      0.2595
     11  O         63.9130  101.1930   75.5380 O.2   705  TYR705     -0.2718
     12  CB        62.1460   99.0150   73.7330 C.3   705  TYR705      0.0548
     13  CG        61.8860  100.3720   73.1240 C.ar  705  TYR705     -0.0200
     14  CD1       62.4470  100.7110   71.9040 C.ar  705  TYR705     -0.0009
     15  CD2       61.0970  101.3200   73.7760 C.ar  705  TYR705     -0.0009
     16  CE1       62.2420  101.9650   71.3400 C.ar  705  TYR705      0.0417
     17  CE2       60.8810  102.5790   73.2180 C.ar  705  TYR705      0.0417
     18  CZ        61.4590  102.8820   71.9950 C.ar  705  TYR705      0.1957
     19  OH        61.2680  104.1050   71.4090 O.3   705  TYR705     -0.2866
     20  N         62.3850   99.9930   76.6800 N.am  706  GLU706     -0.1965
     21  CA        62.0720  101.0800   77.6200 C.3   706  GLU706      0.1733
     22  C         63.2620  101.5330   78.4570 C.2   706  GLU706      0.2617
     23  O         63.5950  102.7200   78.4610 O.2   706  GLU706     -0.2715
     24  CB        60.9140  100.7110   78.5430 C.3   706  GLU706      0.0429
     25  CG        59.6110  100.4450   77.8120 C.3   706  GLU706      0.1163
     26  CD        58.4380  101.1900   78.4190 C.2   706  GLU706      0.3649
     27  OE1       58.5740  101.7300   79.5490 O.co2 706  GLU706     -0.2457
     28  OE2       57.3790  101.2520   77.7520 O.co2 706  GLU706     -0.2457
     29  N         63.8970  100.6010   79.1600 N.am  707  SER707     -0.1936
     30  CA        65.0230  100.9360   80.0440 C.3   707  SER707      0.2055
     31  C         66.3620  100.9450   79.3150 C.2   707  SER707      0.2643
     32  O         67.3080  101.5980   79.7590 O.2   707  SER707     -0.2714
     33  CB        65.1150   99.9410   81.1930 C.3   707  SER707      0.2130
     34  OG        65.5190   98.6760   80.6950 O.3   707  SER707     -0.2179
     35  N         66.4530  100.2030   78.2140 N.am  708  GLY708     -0.1954
     36  CA        67.7060  100.1030   77.4650 C.3   708  GLY708      0.1869
     37  C         68.6200   98.9820   77.9420 C.2   708  GLY708      0.2309
     38  O         69.6440   98.7110   77.3180 O.2   708  GLY708     -0.2863
     39  N         65.1790   95.4410   71.4450 N.3   731  LEU731     -0.1245
     40  CA        66.0220   95.8830   70.3530 C.3   731  LEU731      0.1561
     41  C         67.1720   94.9030   70.2080 C.2   731  LEU731      0.2260
     42  O         67.8300   94.5600   71.1950 O.2   731  LEU731     -0.2867
     43  CB        66.5540   97.2930   70.6160 C.3   731  LEU731      0.0270
     44  CG        65.5330   98.4370   70.5000 C.3   731  LEU731      0.0019
     45  CD1       66.0460   99.6690   71.2380 C.3   731  LEU731      0.0001
     46  CD2       65.1660   98.7620   69.0320 C.3   731  LEU731      0.0001
     47  N         64.8270  107.4970   64.9530 N.3   739  ILE739     -0.1245
     48  CA        63.6050  107.8580   65.6610 C.3   739  ILE739      0.1561
     49  C         63.3260  109.3450   65.4850 C.2   739  ILE739      0.2260
     50  O         64.1570  110.0750   64.9550 O.2   739  ILE739     -0.2867
     51  CB        63.6790  107.4930   67.1680 C.3   739  ILE739      0.0252
     52  CG1       64.8920  108.1460   67.8470 C.3   739  ILE739      0.0019
     53  CG2       63.6840  105.9730   67.3550 C.3   739  ILE739      0.0019
     54  CD1       64.6530  108.4780   69.2920 C.3   739  ILE739      0.0001
     55  N         69.0880  105.3790   67.7950 N.3   757  ILE757     -0.1245
     56  CA        69.3440  104.4040   68.8460 C.3   757  ILE757      0.1561
     57  C         70.3130  103.3560   68.3270 C.2   757  ILE757      0.2260
     58  O         69.9930  102.6220   67.3830 O.2   757  ILE757     -0.2867
     59  CB        68.0810  103.6980   69.3450 C.3   757  ILE757      0.0252
     60  CG1       67.0290  104.7270   69.7950 C.3   757  ILE757      0.0019
     61  CG2       68.4530  102.7600   70.4970 C.3   757  ILE757      0.0019
     62  CD1       65.6270  104.1130   70.0440 C.3   757  ILE757      0.0001
     63  N         71.5240  107.5150   71.3270 N.3   819  LYS819     -0.1245
     64  CA        71.5990  106.6060   72.4530 C.3   819  LYS819      0.1561
     65  C         72.4210  105.3780   72.1010 C.2   819  LYS819      0.2260
     66  O         72.1970  104.7430   71.0750 O.2   819  LYS819     -0.2867
     67  CB        70.2060  106.1810   72.8850 C.3   819  LYS819      0.0271
     68  CG        69.4200  107.2610   73.5410 C.3   819  LYS819      0.0035
     69  CD        68.1940  106.6780   74.1820 C.3   819  LYS819      0.0206
     70  CE        67.3380  107.7770   74.7540 C.3   819  LYS819      0.1093
     71  NZ        66.1160  107.2720   75.4370 N.3   819  LYS819     -0.1314
     72  N         73.3660  101.7140   73.5550 N.3   821  LEU821     -0.1245
     73  CA        72.9920  100.6620   74.4950 C.3   821  LEU821      0.1561
     74  C         74.0430   99.5490   74.5470 C.2   821  LEU821      0.2260
     75  O         74.6000   99.1580   73.5120 O.2   821  LEU821     -0.2867
     76  CB        71.6370  100.0500   74.0930 C.3   821  LEU821      0.0270
     77  CG        70.5140  100.9710   73.6140 C.3   821  LEU821      0.0019
     78  CD1       69.2680  100.1760   73.2690 C.3   821  LEU821      0.0001
     79  CD2       70.2090  102.0460   74.6320 C.3   821  LEU821      0.0001
     80  N         73.8320  102.7120   79.4070 N.3   853  VAL853     -0.1245
     81  CA        73.3420  103.5440   78.3010 C.3   853  VAL853      0.1561
     82  C         74.0460  104.9070   78.2910 C.2   853  VAL853      0.2260
     83  O         74.0910  105.6170   79.3110 O.2   853  VAL853     -0.2867
     84  CB        71.7830  103.7410   78.3410 C.3   853  VAL853      0.0252
     85  CG1       71.2830  104.5260   77.1240 C.3   853  VAL853      0.0019
     86  CG2       71.0500  102.4000   78.4290 C.3   853  VAL853      0.0019
@<TRIPOS>BOND
     1    47    48    1
     2    50    49    2
     3    49    48    1
     4    48    51    1
     5     4     3    2
     6     3     2    1
     7    51    53    1
     8    51    52    1
     9    58    57    2
    10    55    56    1
    11    52    54    1
    12     1     2    1
    13     2     5    1
    14    57    56    1
    15    56    59    1
    16    46    44    1
    17    59    60    1
    18    59    61    1
    19     5     7    1
    20     5     6    1
    21    60    62    1
    22    41    40    1
    23    41    42    2
    24    40    43    1
    25    40    39    1
    26    44    43    1
    27    44    45    1
    28    66    65    2
    29    63    64    1
    30    16    14   ar
    31    16    18   ar
    32    19    18    1
    33    14    13   ar
    34    18    17   ar
    35    65    64    1
    36    64    67    1
    37    67    68    1
    38    13    12    1
    39    13    15   ar
    40    17    15   ar
    41    78    77    1
    42    75    74    2
    43    68    69    1
    44    72    73    1
    45    77    76    1
    46    77    79    1
    47    12     9    1
    48    76    73    1
    49    69    70    1
    50    73    74    1
    51     9     8    1
    52     9    10    1
    53    70    71    1
    54    11    10    2
    55    10    20   am
    56    20    21    1
    57    85    84    1
    58    38    37    2
    59    36    37    1
    60    36    35    1
    61    21    22    1
    62    21    24    1
    63    28    26   ar
    64    25    26    1
    65    25    24    1
    66    35    31   am
    67    82    81    1
    68    82    83    2
    69    81    84    1
    70    81    80    1
    71    84    86    1
    72    26    27   ar
    73    22    23    2
    74    22    29   am
    75    29    30    1
    76    31    32    2
    77    31    30    1
    78    30    33    1
    79    34    33    1
