@<TRIPOS>MOLECULE
tmp/3lpsA00.pdb
 125 115 0 0 0
SMALL
GASTEIGER

@<TRIPOS>ATOM
      1  N         -9.9330   36.6410   52.9140 N.3    25  VAL25      -0.1245
      2  CA       -10.5040   35.3200   53.1060 C.3    25  VAL25       0.1561
      3  C         -9.7360   34.3090   52.2730 C.2    25  VAL25       0.2260
      4  O         -9.4400   33.2100   52.7300 O.2    25  VAL25      -0.2867
      5  CB       -11.9860   35.2720   52.7010 C.3    25  VAL25       0.0252
      6  CG1      -12.5350   33.8650   52.9670 C.3    25  VAL25       0.0019
      7  CG2      -12.7870   36.3070   53.5040 C.3    25  VAL25       0.0019
      8  N         -6.3610   33.3020   53.8730 N.3    28  ASN28      -0.1225
      9  CA        -6.4760   32.3280   54.9480 C.3    28  ASN28       0.1785
     10  C         -6.6160   30.9120   54.3910 C.2    28  ASN28       0.2597
     11  O         -6.1110   29.9610   54.9820 O.2    28  ASN28      -0.2718
     12  CB        -7.6410   32.6930   55.8740 C.3    28  ASN28       0.1169
     13  CG        -7.3210   33.8980   56.7520 C.2    28  ASN28       0.2627
     14  OD1       -6.3800   33.8650   57.5330 O.2    28  ASN28      -0.2716
     15  ND2       -8.0960   34.9660   56.6170 N.am   28  ASN28      -0.0877
     16  N         -7.2770   30.7510   53.2510 N.am   29  SER29      -0.1952
     17  CA        -7.3940   29.4050   52.6970 C.3    29  SER29       0.1924
     18  C         -6.0520   29.0020   52.0740 C.2    29  SER29       0.2314
     19  O         -5.6290   27.8480   52.1870 O.2    29  SER29      -0.2863
     20  CB        -8.5150   29.3380   51.6520 C.3    29  SER29       0.2116
     21  OG        -9.7630   29.6220   52.2580 O.3    29  SER29      -0.2180
     22  N         -3.1270   29.8300   53.0710 N.3    31  ASP31      -0.1225
     23  CA        -2.1840   29.3990   54.1040 C.3    31  ASP31       0.1805
     24  C         -2.3230   27.8990   54.3360 C.2    31  ASP31       0.2597
     25  O         -1.3220   27.1950   54.4910 O.2    31  ASP31      -0.2718
     26  CB        -2.3930   30.1510   55.4270 C.3    31  ASP31       0.1424
     27  CG        -1.9560   31.6100   55.3490 C.2    31  ASP31       0.3668
     28  OD1       -1.0810   31.9320   54.5170 O.co2  31  ASP31      -0.2456
     29  OD2       -2.4780   32.4290   56.1280 O.co2  31  ASP31      -0.2456
     30  N         -3.5600   27.4010   54.3430 N.am   32  GLU32      -0.1979
     31  CA        -3.7690   25.9670   54.5380 C.3    32  GLU32       0.1602
     32  C         -3.1190   25.1730   53.3990 C.2    32  GLU32       0.2287
     33  O         -2.6080   24.0790   53.6190 O.2    32  GLU32      -0.2864
     34  CB        -5.2690   25.6310   54.6250 C.3    32  GLU32       0.0415
     35  CG        -5.8910   25.9380   55.9800 C.3    32  GLU32       0.1163
     36  CD        -5.2310   25.1500   57.1170 C.2    32  GLU32       0.3649
     37  OE1       -5.5690   23.9610   57.3080 O.co2  32  GLU32      -0.2457
     38  OE2       -4.3630   25.7250   57.8020 O.co2  32  GLU32      -0.2457
     39  N        -12.5690   25.8980   51.1180 N.3    55  ASP55      -0.1239
     40  CA       -11.3270   25.1360   51.0120 C.3    55  ASP55       0.1674
     41  C        -11.4740   23.7700   51.6840 C.2    55  ASP55       0.2266
     42  O        -12.4060   23.5400   52.4530 O.2    55  ASP55      -0.2867
     43  CB       -10.1590   25.9030   51.6600 C.3    55  ASP55       0.1410
     44  CG       -10.3320   26.0800   53.1620 C.2    55  ASP55       0.3668
     45  OD1      -10.4260   25.0640   53.8800 O.co2  55  ASP55      -0.2456
     46  OD2      -10.3740   27.2420   53.6270 O.co2  55  ASP55      -0.2456
     47  N         -7.7800   22.0280   57.0520 N.3    58  ARG58      -0.1231
     48  CA        -8.1070   21.3530   58.3060 C.3    58  ARG58       0.1694
     49  C         -9.4140   21.8550   58.8980 C.2    58  ARG58       0.2593
     50  O        -10.0640   21.1570   59.6800 O.2    58  ARG58      -0.2718
     51  CB        -6.9930   21.5490   59.3290 C.3    58  ARG58       0.0321
     52  CG        -5.7020   20.8160   58.9920 C.3    58  ARG58       0.0489
     53  CD        -4.5630   21.3090   59.8760 C.3    58  ARG58       0.2205
     54  NE        -4.2030   22.7000   59.6100 N.pl3  58  ARG58      -0.0865
     55  CZ        -3.2450   23.3580   60.2570 C.cat  58  ARG58       0.5346
     56  NH1       -2.5600   22.7450   61.2090 N.pl3  58  ARG58       0.1354
     57  NH2       -2.9670   24.6220   59.9490 N.pl3  58  ARG58       0.1354
     58  N         -9.7910   23.0680   58.5160 N.am   59  GLY59      -0.1942
     59  CA       -11.0020   23.6530   59.0380 C.3    59  GLY59       0.2014
     60  C        -10.6640   24.3650   60.3310 C.2    59  GLY59       0.2639
     61  O         -9.8460   23.8810   61.1150 O.2    59  GLY59      -0.2714
     62  N        -11.2740   25.5220   60.5460 N.am   60  MET60      -0.1963
     63  CA       -11.0390   26.2970   61.7540 C.3    60  MET60       0.1722
     64  C        -11.3880   25.4760   62.9880 C.2    60  MET60       0.2458
     65  O        -12.4160   24.7900   63.0140 O.2    60  MET60      -0.2730
     66  CB       -11.8940   27.5640   61.7300 C.3    60  MET60       0.0427
     67  CG       -11.5600   28.5080   60.5940 C.3    60  MET60       0.0599
     68  SD       -12.6390   29.9400   60.5990 S.3    60  MET60      -0.1393
     69  CE       -11.9170   30.9180   61.9600 C.3    60  MET60       0.0692
     70  N        -10.5330   25.5290   64.0240 N.am   61  PRO61      -0.2727
     71  CA       -10.7720   24.7840   65.2630 C.3    61  PRO61       0.1402
     72  C        -12.1600   25.0990   65.7980 C.2    61  PRO61       0.2269
     73  O        -12.5600   26.2670   65.8720 O.2    61  PRO61      -0.2865
     74  CB        -9.6610   25.2840   66.1830 C.3    61  PRO61       0.0296
     75  CG        -8.5350   25.4870   65.2190 C.3    61  PRO61       0.0237
     76  CD        -9.2370   26.2270   64.0780 C.3    61  PRO61       0.0939
     77  N        -13.3050   24.3910   68.8910 N.3    63  ASP63      -0.1239
     78  CA       -13.2750   24.2570   70.3420 C.3    63  ASP63       0.1674
     79  C        -13.6330   25.5860   71.0150 C.2    63  ASP63       0.2266
     80  O        -13.7950   26.6050   70.3370 O.2    63  ASP63      -0.2867
     81  CB       -11.8930   23.7770   70.7910 C.3    63  ASP63       0.1410
     82  CG       -10.7840   24.7410   70.4090 C.2    63  ASP63       0.3668
     83  OD1      -11.0120   25.6140   69.5430 O.co2  63  ASP63      -0.2456
     84  OD2       -9.6790   24.6190   70.9810 O.co2  63  ASP63      -0.2456
     85  N        -11.7300   34.8820   66.6460 N.3    76  ILE76      -0.1245
     86  CA       -11.0140   35.2030   65.4230 C.3    76  ILE76       0.1561
     87  C        -11.7800   36.1970   64.5550 C.2    76  ILE76       0.2260
     88  O        -11.1850   37.1140   63.9980 O.2    76  ILE76      -0.2867
     89  CB       -10.7230   33.9160   64.6140 C.3    76  ILE76       0.0252
     90  CG1       -9.7550   33.0340   65.3990 C.3    76  ILE76       0.0019
     91  CG2      -10.1260   34.2560   63.2540 C.3    76  ILE76       0.0019
     92  CD1       -9.5210   31.6920   64.7640 C.3    76  ILE76       0.0001
     93  N         -9.3460   38.1540   59.0930 N.3    85  VAL85      -0.1245
     94  CA       -10.7130   37.9360   58.6640 C.3    85  VAL85       0.1561
     95  C        -11.7080   38.7600   59.4860 C.2    85  VAL85       0.2260
     96  O        -12.8370   38.9800   59.0540 O.2    85  VAL85      -0.2867
     97  CB       -11.0570   36.4340   58.7610 C.3    85  VAL85       0.0252
     98  CG1      -10.9390   35.9780   60.1980 C.3    85  VAL85       0.0019
     99  CG2      -12.4400   36.1640   58.2110 C.3    85  VAL85       0.0019
    100  N        -14.8860   19.4160   60.4430 N.3   101  ARG101     -0.1245
    101  CA       -13.7200   19.0330   61.2260 C.3   101  ARG101      0.1563
    102  C        -14.1010   18.0070   62.2830 C.2   101  ARG101      0.2260
    103  O        -15.1650   18.1000   62.8960 O.2   101  ARG101     -0.2867
    104  CB       -13.1220   20.2890   61.8780 C.3   101  ARG101      0.0307
    105  CG       -11.9120   20.0680   62.7740 C.3   101  ARG101      0.0489
    106  CD       -11.2990   21.4080   63.2140 C.3   101  ARG101      0.2205
    107  NE       -10.2700   21.2260   64.2370 N.pl3 101  ARG101     -0.0865
    108  CZ        -8.9700   21.4550   64.0630 C.cat 101  ARG101      0.5346
    109  NH1       -8.5080   21.8890   62.8950 N.pl3 101  ARG101      0.1354
    110  NH2       -8.1280   21.2340   65.0650 N.pl3 101  ARG101      0.1354
    111  N        -13.0700   24.5910   55.3940 N.3   132  THR132     -0.1218
    112  CA       -13.7540   25.7930   55.8190 C.3   132  THR132      0.1862
    113  C        -14.3290   26.5090   54.6080 C.2   132  THR132      0.2287
    114  O        -13.7390   26.5020   53.5270 O.2   132  THR132     -0.2866
    115  CB       -12.7900   26.7990   56.5030 C.3   132  THR132      0.1770
    116  OG1      -12.1950   26.1940   57.6580 O.3   132  THR132     -0.2211
    117  CG2      -13.5500   28.0610   56.9340 C.3   132  THR132      0.0375
    118  N        -16.4530   30.2790   54.0170 N.3   134  LEU134     -0.1245
    119  CA       -16.8950   31.5200   54.6230 C.3   134  LEU134      0.1561
    120  C        -17.5010   32.3970   53.5420 C.2   134  LEU134      0.2260
    121  O        -16.8630   32.6880   52.5250 O.2   134  LEU134     -0.2867
    122  CB       -15.6980   32.2220   55.2790 C.3   134  LEU134      0.0270
    123  CG       -15.9440   33.5020   56.0840 C.3   134  LEU134      0.0019
    124  CD1      -14.7710   33.7370   57.0370 C.3   134  LEU134      0.0001
    125  CD2      -16.1320   34.6880   55.1530 C.3   134  LEU134      0.0001
@<TRIPOS>BOND
     1    40    39    1
     2    40    43    1
     3    40    41    1
     4    20    21    1
     5    20    17    1
     6    43    44    1
     7    41    42    2
     8    18    19    2
     9    18    17    1
    10     3     4    2
    11     3     2    1
    12   121   120    2
    13    17    16    1
    14     5     6    1
    15     5     2    1
    16     5     7    1
    17     1     2    1
    18    22    23    1
    19    44    46   ar
    20    44    45   ar
    21    16    10   am
    22    32    33    2
    23    32    31    1
    24   114   113    2
    25   120   119    1
    26     8     9    1
    27   118   119    1
    28    23    24    1
    29    23    26    1
    30    24    30   am
    31    24    25    2
    32    30    31    1
    33    10     9    1
    34    10    11    2
    35    28    27   ar
    36    31    34    1
    37   113   112    1
    38   119   122    1
    39    34    35    1
    40     9    12    1
    41   125   123    1
    42   122   123    1
    43    27    26    1
    44    27    29   ar
    45   111   112    1
    46   112   115    1
    47    12    13    1
    48    35    36    1
    49   123   124    1
    50   115   117    1
    51   115   116    1
    52    15    13   am
    53    13    14    2
    54    47    48    1
    55    36    37   ar
    56    36    38   ar
    57    99    97    1
    58    48    49    1
    59    48    51    1
    60    58    49   am
    61    58    59    1
    62    94    97    1
    63    94    93    1
    64    94    95    1
    65    97    98    1
    66    49    50    2
    67    52    51    1
    68    52    53    1
    69    59    60    1
    70    96    95    2
    71    54    53    1
    72    54    55    2
    73    57    55    1
    74    55    56    1
    75    60    62   am
    76    60    61    2
    77   100   101    1
    78    62    63    1
    79    67    68    1
    80    67    66    1
    81    68    69    1
    82   101   104    1
    83   101   102    1
    84    66    63    1
    85    63    64    1
    86   104   105    1
    87   102   103    2
    88   105   106    1
    89   109   108    1
    90    64    65    2
    91    64    70   am
    92   106   107    1
    93    91    89    1
    94    88    87    2
    95    70    76    1
    96    70    71    1
    97   108   107    2
    98   108   110    1
    99    76    75    1
   100    87    86    1
   101    89    90    1
   102    89    86    1
   103    92    90    1
   104    75    74    1
   105    71    72    1
   106    71    74    1
   107    86    85    1
   108    72    73    2
   109    77    78    1
   110    83    82   ar
   111    80    79    2
   112    78    81    1
   113    78    79    1
   114    82    81    1
   115    82    84   ar
