@<TRIPOS>MOLECULE
tmp/3lpuA00.pdb
 86 85 0 0 0
SMALL
GASTEIGER

@<TRIPOS>ATOM
      1  N         34.7300   33.8290   -1.4400 N.3    40  GLN40      -0.1245
      2  CA        33.9160   34.1040   -0.2660 C.3    40  GLN40       0.1566
      3  C         32.4250   34.1120   -0.5960 C.2    40  GLN40       0.2260
      4  O         31.6100   33.6600    0.2040 O.2    40  GLN40      -0.2867
      5  CB        34.3280   35.4180    0.3970 C.3    40  GLN40       0.0367
      6  CG        35.7660   35.3950    0.8880 C.3    40  GLN40       0.0905
      7  CD        36.1000   36.5240    1.8660 C.2    40  GLN40       0.2608
      8  OE1       35.3030   37.4340    2.0850 O.2    40  GLN40      -0.2717
      9  NE2       37.2950   36.4600    2.4540 N.am   40  GLN40      -0.0878
     10  N         31.4560   30.4620   -1.0660 N.3    43  ALA43      -0.1231
     11  CA        31.4640   29.7480    0.2090 C.3    43  ALA43       0.1694
     12  C         30.2030   30.0470    1.0090 C.2    43  ALA43       0.2592
     13  O         29.5730   29.1430    1.5820 O.2    43  ALA43      -0.2718
     14  CB        32.7170   30.1380    1.0320 C.3    43  ALA43       0.0304
     15  N         29.8710   31.3300    1.0870 N.am   44  TYR44      -0.1976
     16  CA        28.6930   31.7710    1.8090 C.3    44  TYR44       0.1639
     17  C         27.4380   31.1760    1.1600 C.2    44  TYR44       0.2290
     18  O         26.5260   30.7090    1.8430 O.2    44  TYR44      -0.2864
     19  CB        28.6290   33.3010    1.8210 C.3    44  TYR44       0.0560
     20  CG        27.4130   33.8310    2.5340 C.ar   44  TYR44      -0.0198
     21  CD1       27.3870   33.9270    3.9260 C.ar   44  TYR44      -0.0009
     22  CD2       26.2890   34.2210    1.8260 C.ar   44  TYR44      -0.0009
     23  CE1       26.2740   34.4060    4.5870 C.ar   44  TYR44       0.0417
     24  CE2       25.1640   34.7050    2.4820 C.ar   44  TYR44       0.0417
     25  CZ        25.1690   34.7960    3.8620 C.ar   44  TYR44       0.1957
     26  OH        24.0580   35.2610    4.5210 O.3    44  TYR44      -0.2866
     27  N         27.0680   27.4640    2.1000 N.3    47  LEU47      -0.1245
     28  CA        26.6050   27.2700    3.4750 C.3    47  LEU47       0.1561
     29  C         25.0840   27.4930    3.5620 C.2    47  LEU47       0.2260
     30  O         24.3600   26.7500    4.2410 O.2    47  LEU47      -0.2867
     31  CB        27.3330   28.2410    4.4010 C.3    47  LEU47       0.0270
     32  CG        28.4480   27.8480    5.3900 C.3    47  LEU47       0.0019
     33  CD1       29.1140   26.4680    5.2060 C.3    47  LEU47       0.0001
     34  CD2       29.4870   28.9540    5.5260 C.3    47  LEU47       0.0001
     35  N         40.6730   28.6610   -0.4410 N.3    69  THR69      -0.1203
     36  CA        40.6400   28.1640    0.9240 C.3    69  THR69       0.1994
     37  C         39.2690   28.3750    1.5770 C.2    69  THR69       0.2618
     38  O         38.7990   27.5200    2.3230 O.2    69  THR69      -0.2717
     39  CB        41.7440   28.8200    1.7790 C.3    69  THR69       0.1784
     40  OG1       43.0200   28.3660    1.3150 O.3    69  THR69      -0.2211
     41  CG2       41.5980   28.4100    3.2290 C.3    69  THR69       0.0376
     42  N         38.6140   29.4990    1.2930 N.am   70  THR70      -0.1952
     43  CA        37.3230   29.7620    1.9310 C.3    70  THR70       0.1897
     44  C         36.2510   28.7820    1.4620 C.2    70  THR70       0.2313
     45  O         35.4430   28.3120    2.2680 O.2    70  THR70      -0.2863
     46  CB        36.8300   31.2330    1.7520 C.3    70  THR70       0.1794
     47  OG1       36.5530   31.4860    0.3710 O.3    70  THR70      -0.2208
     48  CG2       37.8920   32.2050    2.2240 C.3    70  THR70       0.0378
     49  N         36.7940   25.4580    3.0320 N.3    73  ALA73      -0.1231
     50  CA        36.3950   25.4550    4.4470 C.3    73  ALA73       0.1694
     51  C         34.8870   25.3130    4.5710 C.2    73  ALA73       0.2591
     52  O         34.3830   24.6690    5.4990 O.2    73  ALA73      -0.2718
     53  CB        36.8720   26.7130    5.1450 C.3    73  ALA73       0.0304
     54  N         34.1570   25.9150    3.6360 N.am   74  ALA74      -0.1980
     55  CA        32.7010   25.7810    3.6400 C.3    74  ALA74       0.1597
     56  C         32.2450   24.3460    3.3260 C.2    74  ALA74       0.2287
     57  O         31.3260   23.8290    3.9580 O.2    74  ALA74      -0.2864
     58  CB        32.0430   26.8000    2.6760 C.3    74  ALA74       0.0319
     59  N         34.0450   21.7680    3.8220 N.3    75  TRP75      -0.1227
     60  CA        34.4730   20.9820    4.9890 C.3    75  TRP75       0.1737
     61  C         33.4610   21.0760    6.1310 C.2    75  TRP75       0.2595
     62  O         33.0250   20.0670    6.6960 O.2    75  TRP75      -0.2718
     63  CB        35.8480   21.4380    5.4830 C.3    75  TRP75       0.0564
     64  CG        36.2120   20.8760    6.8470 C.ar   75  TRP75       0.0003
     65  CD1       36.7070   19.6260    7.1220 C.ar   75  TRP75       0.0946
     66  CD2       36.1000   21.5470    8.1070 C.ar   75  TRP75       0.0152
     67  NE1       36.9030   19.4830    8.4730 N.ar   75  TRP75      -0.2442
     68  CE2       36.5390   20.6440    9.1010 C.ar   75  TRP75       0.0810
     69  CE3       35.6640   22.8200    8.4930 C.ar   75  TRP75       0.0012
     70  CZ2       36.5690   20.9790   10.4480 C.ar   75  TRP75       0.0191
     71  CZ3       35.6880   23.1480    9.8300 C.ar   75  TRP75       0.0001
     72  CH2       36.1330   22.2290   10.7960 C.ar   75  TRP75       0.0015
     73  N         33.0820   22.2970    6.4750 N.am   76  TRP76      -0.1976
     74  CA        32.1940   22.4790    7.6140 C.3    76  TRP76       0.1640
     75  C         30.8480   21.7900    7.3660 C.2    76  TRP76       0.2290
     76  O         30.3050   21.1230    8.2560 O.2    76  TRP76      -0.2864
     77  CB        32.0290   23.9720    7.9410 C.3    76  TRP76       0.0576
     78  CG        31.3310   24.1980    9.2490 C.ar   76  TRP76       0.0006
     79  CD1       31.9100   24.3330   10.4710 C.ar   76  TRP76       0.0946
     80  CD2       29.9180   24.2720    9.4620 C.ar   76  TRP76       0.0152
     81  NE1       30.9410   24.5050   11.4410 N.ar   76  TRP76      -0.2442
     82  CE2       29.7100   24.4680   10.8430 C.ar   76  TRP76       0.0810
     83  CE3       28.8080   24.2000    8.6170 C.ar   76  TRP76       0.0012
     84  CZ2       28.4400   24.5950   11.3950 C.ar   76  TRP76       0.0191
     85  CZ3       27.5560   24.3170    9.1630 C.ar   76  TRP76       0.0001
     86  CH2       27.3780   24.5140   10.5400 C.ar   76  TRP76       0.0015
@<TRIPOS>BOND
     1     1     2    1
     2    10    11    1
     3     3     2    1
     4     3     4    2
     5    35    36    1
     6     2     5    1
     7    11    12    1
     8    11    14    1
     9    47    46    1
    10     5     6    1
    11     6     7    1
    12    36    37    1
    13    36    39    1
    14    12    15   am
    15    12    13    2
    16    15    16    1
    17    17    16    1
    18    17    18    2
    19    42    37   am
    20    42    43    1
    21    40    39    1
    22    44    43    1
    23    44    45    2
    24    37    38    2
    25    46    43    1
    26    46    48    1
    27    39    41    1
    28    16    19    1
    29    19    20    1
    30    22    24   ar
    31    22    20   ar
    32     7     8    2
    33     7     9   am
    34    27    28    1
    35    24    25   ar
    36    20    21   ar
    37    58    55    1
    38    49    50    1
    39    56    55    1
    40    56    57    2
    41    28    29    1
    42    28    31    1
    43    29    30    2
    44    54    55    1
    45    54    51   am
    46    59    60    1
    47    25    26    1
    48    25    23   ar
    49    21    23   ar
    50    31    32    1
    51    50    51    1
    52    50    53    1
    53    51    52    2
    54    60    63    1
    55    60    61    1
    56    33    32    1
    57    32    34    1
    58    63    64    1
    59    61    73   am
    60    61    62    2
    61    73    74    1
    62    64    65   ar
    63    64    66   ar
    64    65    67   ar
    65    75    74    1
    66    75    76    2
    67    74    77    1
    68    77    78    1
    69    66    69   ar
    70    66    68   ar
    71    67    68   ar
    72    69    71   ar
    73    83    85   ar
    74    83    80   ar
    75    68    70   ar
    76    85    86   ar
    77    78    80   ar
    78    78    79   ar
    79    80    82   ar
    80    71    72   ar
    81    70    72   ar
    82    79    81   ar
    83    86    84   ar
    84    82    84   ar
    85    82    81   ar
