@<TRIPOS>MOLECULE
tmp/3lq3A02.pdb
 143 135 0 0 0
SMALL
GASTEIGER

@<TRIPOS>ATOM
      1  N         38.0450   55.5740    2.9270 N.3    33  VAL33      -0.1245
      2  CA        36.8860   54.7410    2.6730 C.3    33  VAL33       0.1561
      3  C         35.5910   55.4670    3.0770 C.2    33  VAL33       0.2260
      4  O         34.5040   54.8660    3.0470 O.2    33  VAL33      -0.2867
      5  CB        36.9770   53.3910    3.3710 C.3    33  VAL33       0.0252
      6  CG1       38.1220   52.5960    2.7900 C.3    33  VAL33       0.0019
      7  CG2       37.1290   53.5420    4.8890 C.3    33  VAL33       0.0019
      8  N         35.0840   62.8640    3.7700 N.3    34  ASN34      -0.1225
      9  CA        35.4340   61.5800    4.3470 C.3    34  ASN34       0.1785
     10  C         36.2640   61.6940    5.6520 C.2    34  ASN34       0.2597
     11  O         37.2420   62.4690    5.7830 O.2    34  ASN34      -0.2718
     12  CB        36.1140   60.6710    3.2940 C.3    34  ASN34       0.1169
     13  CG        36.6200   59.3310    3.8860 C.2    34  ASN34       0.2627
     14  OD1       35.8470   58.4320    4.1660 O.2    34  ASN34      -0.2716
     15  ND2       37.8890   59.2250    4.0420 N.am   34  ASN34      -0.0877
     16  N         35.8390   60.8930    6.6140 N.am   35  LEU35      -0.1966
     17  CA        36.4370   60.8400    7.9300 C.3    35  LEU35       0.1728
     18  C         37.0140   59.4600    8.2790 C.2    35  LEU35       0.2616
     19  O         37.5750   59.3080    9.3740 O.2    35  LEU35      -0.2715
     20  CB        35.4070   61.2350    8.9640 C.3    35  LEU35       0.0311
     21  CG        34.8900   62.6730    8.8550 C.3    35  LEU35       0.0022
     22  CD1       33.7170   62.8350    9.8140 C.3    35  LEU35       0.0001
     23  CD2       35.9670   63.6930    9.1330 C.3    35  LEU35       0.0001
     24  N         36.8890   58.4790    7.3940 N.am   36  LEU36      -0.1977
     25  CA        37.3290   57.1040    7.6760 C.3    36  LEU36       0.1596
     26  C         38.4840   56.7000    6.7340 C.2    36  LEU36       0.2287
     27  O         38.4200   56.9400    5.5140 O.2    36  LEU36      -0.2864
     28  CB        36.2030   56.0740    7.5090 C.3    36  LEU36       0.0297
     29  CG        35.1330   55.8150    8.5990 C.3    36  LEU36       0.0022
     30  CD1       34.1860   54.7180    8.1150 C.3    36  LEU36       0.0001
     31  CD2       35.7350   55.4100    9.9430 C.3    36  LEU36       0.0001
     32  N         41.0670   50.8710   10.9790 N.3    56  LEU56      -0.1245
     33  CA        40.3890   52.0260   10.4350 C.3    56  LEU56       0.1561
     34  C         40.6240   53.1750   11.3690 C.2    56  LEU56       0.2260
     35  O         40.3390   53.0650   12.5600 O.2    56  LEU56      -0.2867
     36  CB        38.8760   51.8140   10.3130 C.3    56  LEU56       0.0270
     37  CG        38.3440   51.1190    9.0830 C.3    56  LEU56       0.0019
     38  CD1       36.8340   51.2450    9.0960 C.3    56  LEU56       0.0001
     39  CD2       38.9050   51.7150    7.8290 C.3    56  LEU56       0.0001
     40  N         39.1890   56.6210   12.3530 N.3    58  ARG58      -0.1245
     41  CA        37.9500   57.4010   12.2850 C.3    58  ARG58       0.1563
     42  C         38.2380   58.7470   12.8970 C.2    58  ARG58       0.2260
     43  O         38.5210   58.8480   14.0860 O.2    58  ARG58      -0.2867
     44  CB        36.8130   56.7010   13.0350 C.3    58  ARG58       0.0307
     45  CG        35.5320   57.4530   12.9830 C.3    58  ARG58       0.0489
     46  CD        34.3840   56.7050   13.7090 C.3    58  ARG58       0.2205
     47  NE        34.0850   55.4080   13.1410 N.pl3  58  ARG58      -0.0865
     48  CZ        33.1130   55.1350   12.2750 C.cat  58  ARG58       0.5346
     49  NH1       32.3040   56.1000   11.8160 N.pl3  58  ARG58       0.1354
     50  NH2       32.9840   53.8910   11.8230 N.pl3  58  ARG58       0.1354
     51  N         33.3430   46.3720   16.1520 N.3    87  PRO87      -0.2116
     52  CA        34.7810   46.2880   15.8740 C.3    87  PRO87       0.1372
     53  C         35.5940   46.5440   17.1270 C.2    87  PRO87       0.2244
     54  O         35.2010   47.3450   17.9750 O.2    87  PRO87      -0.2868
     55  CB        35.0070   47.4190   14.8510 C.3    87  PRO87       0.0268
     56  CG        33.6490   47.6750   14.2510 C.3    87  PRO87       0.0207
     57  CD        32.6850   47.4290   15.3810 C.3    87  PRO87       0.0892
     58  N         40.0740   51.7240   15.0680 N.3    99  GLU99      -0.1231
     59  CA        39.1760   50.5740   15.1890 C.3    99  GLU99       0.1699
     60  C         39.7220   49.4420   14.3710 C.2    99  GLU99       0.2592
     61  O         40.4960   49.6280   13.4200 O.2    99  GLU99      -0.2718
     62  CB        37.7570   50.8590   14.6160 C.3    99  GLU99       0.0402
     63  CG        37.0790   52.0470   15.0540 C.3    99  GLU99       0.1161
     64  CD        35.7630   52.3280   14.2570 C.2    99  GLU99       0.3649
     65  OE1       35.3250   51.4790   13.4400 O.co2  99  GLU99      -0.2457
     66  OE2       35.2330   53.3500   14.5640 O.co2  99  GLU99      -0.2457
     67  N         39.2960   48.2520   14.6820 N.am  100  GLN100     -0.1966
     68  CA        39.5420   47.1010   13.8290 C.3   100  GLN100      0.1733
     69  C         38.9070   47.3210   12.4770 C.2   100  GLN100      0.2616
     70  O         37.7200   47.6430   12.3850 O.2   100  GLN100     -0.2715
     71  CB        38.8670   45.9010   14.4870 C.3   100  GLN100      0.0408
     72  CG        39.0240   44.5800   13.7800 C.3   100  GLN100      0.0908
     73  CD        38.1700   43.4970   14.4350 C.2   100  GLN100      0.2608
     74  OE1       37.3590   43.7650   15.3530 O.2   100  GLN100     -0.2717
     75  NE2       38.3440   42.2440   13.9620 N.am  100  GLN100     -0.0878
     76  N         39.6980   47.1160   11.4040 N.am  101  TYR101     -0.1960
     77  CA        39.1240   47.0010   10.0790 C.3   101  TYR101      0.1771
     78  C         38.5370   45.5800    9.9690 C.2   101  TYR101      0.2619
     79  O         39.2570   44.5770   10.1200 O.2   101  TYR101     -0.2715
     80  CB        40.1570   47.2510    8.9530 C.3   101  TYR101      0.0574
     81  CG        39.5730   46.8290    7.6530 C.ar  101  TYR101     -0.0198
     82  CD1       38.5070   47.5170    7.1240 C.ar  101  TYR101     -0.0009
     83  CD2       40.0090   45.6740    7.0100 C.ar  101  TYR101     -0.0009
     84  CE1       37.9070   47.0910    5.9620 C.ar  101  TYR101      0.0417
     85  CE2       39.4170   45.2490    5.8610 C.ar  101  TYR101      0.0417
     86  CZ        38.3680   45.9570    5.3450 C.ar  101  TYR101      0.1957
     87  OH        37.7580   45.5290    4.1490 O.3   101  TYR101     -0.2866
     88  N         37.2340   45.4860    9.7250 N.am  102  ILE102     -0.1977
     89  CA        36.5580   44.1810    9.6210 C.3   102  ILE102      0.1596
     90  C         36.5900   43.7790    8.1590 C.2   102  ILE102      0.2287
     91  O         36.0100   44.4410    7.3260 O.2   102  ILE102     -0.2864
     92  CB        35.0930   44.2640   10.0870 C.3   102  ILE102      0.0276
     93  CG1       34.9580   44.8230   11.4920 C.3   102  ILE102      0.0022
     94  CG2       34.3960   42.8770    9.9890 C.3   102  ILE102      0.0022
     95  CD1       35.6790   44.0450   12.5020 C.3   102  ILE102      0.0001
     96  N         35.2850   42.4870    5.0680 N.3   104  SER104     -0.1217
     97  CA        33.8250   42.4770    4.8750 C.3   104  SER104      0.1889
     98  C         33.4080   43.3470    3.7290 C.2   104  SER104      0.2288
     99  O         34.2020   44.0750    3.1660 O.2   104  SER104     -0.2866
    100  CB        33.1050   43.0270    6.1650 C.3   104  SER104      0.2089
    101  OG        33.4580   44.3780    6.4040 O.3   104  SER104     -0.2183
    102  N         29.5370   45.7940    2.9930 N.3   106  PRO106     -0.2116
    103  CA        28.1770   46.0530    3.4680 C.3   106  PRO106      0.1372
    104  C         27.1440   45.3300    2.6210 C.2   106  PRO106      0.2244
    105  O         27.3690   45.0920    1.4280 O.2   106  PRO106     -0.2868
    106  CB        28.0110   47.5570    3.3440 C.3   106  PRO106      0.0268
    107  CG        29.1220   47.9990    2.4060 C.3   106  PRO106      0.0207
    108  CD        30.1810   46.9810    2.4130 C.3   106  PRO106      0.0892
    109  N         23.6690   49.3920    4.9200 N.3   200  GLY200     -0.1210
    110  CA        24.9960   49.9530    4.9800 C.3   200  GLY200      0.1956
    111  C         25.7330   49.7820    6.2650 C.2   200  GLY200      0.2611
    112  O         26.9370   50.0140    6.3150 O.2   200  GLY200     -0.2717
    113  N         24.9970   49.4330    7.3150 N.am  201  ASN201     -0.1974
    114  CA        25.5470   49.1550    8.6200 C.3   201  ASN201      0.1688
    115  C         25.6000   47.6880    8.9950 C.2   201  ASN201      0.2292
    116  O         25.9170   47.3450   10.1450 O.2   201  ASN201     -0.2864
    117  CB        24.7730   49.9510    9.7030 C.3   201  ASN201      0.1181
    118  CG        24.9560   51.4640    9.5580 C.2   201  ASN201      0.2629
    119  OD1       25.9860   51.9420    9.0340 O.2   201  ASN201     -0.2716
    120  ND2       23.9480   52.2690   10.0760 N.am  201  ASN201     -0.0877
    121  N         27.6150   44.4260    8.0650 N.3   203  LEU203     -0.1245
    122  CA        28.8020   43.9290    7.3420 C.3   203  LEU203      0.1561
    123  C         28.7570   42.4360    7.2220 C.2   203  LEU203      0.2260
    124  O         28.5890   41.6960    8.2030 O.2   203  LEU203     -0.2867
    125  CB        30.0960   44.3400    8.0690 C.3   203  LEU203      0.0270
    126  CG        30.2610   45.8240    8.3300 C.3   203  LEU203      0.0019
    127  CD1       31.6460   46.1200    8.8450 C.3   203  LEU203      0.0001
    128  CD2       29.9530   46.6550    7.1040 C.3   203  LEU203      0.0001
    129  N         27.6870   47.7130   12.5070 N.3   214  VAL214     -0.1231
    130  CA        28.5060   48.8590   12.8160 C.3   214  VAL214      0.1692
    131  C         27.6000   50.0740   12.9010 C.2   214  VAL214      0.2592
    132  O         26.3840   49.9690   12.6390 O.2   214  VAL214     -0.2718
    133  CB        29.6330   49.0700   11.8090 C.3   214  VAL214      0.0266
    134  CG1       30.6410   47.8530   11.8760 C.3   214  VAL214      0.0020
    135  CG2       29.0800   49.2560   10.4090 C.3   214  VAL214      0.0020
    136  N         28.2000   51.2210   13.2470 N.am  215  ASP215     -0.1974
    137  CA        27.5460   52.5240   13.2940 C.3   215  ASP215      0.1709
    138  C         26.5650   52.6380   14.4430 C.2   215  ASP215      0.2293
    139  O         25.3870   52.4460   14.2750 O.2   215  ASP215     -0.2864
    140  CB        26.8370   52.8850   11.9680 C.3   215  ASP215      0.1436
    141  CG        26.3960   54.3130   11.9030 C.2   215  ASP215      0.3671
    142  OD1       26.5770   55.0440   12.9110 O.co2 215  ASP215     -0.2456
    143  OD2       25.8830   54.6960   10.8110 O.co2 215  ASP215     -0.2456
@<TRIPOS>BOND
     1   105   104    2
     2   107   108    1
     3   107   106    1
     4   108   102    1
     5   104   103    1
     6     2     1    1
     7     2     3    1
     8     2     5    1
     9     6     5    1
    10   102   103    1
    11     4     3    2
    12    99    98    2
    13    12    13    1
    14    12     9    1
    15   106   103    1
    16     5     7    1
    17    98    97    1
    18     8     9    1
    19    13    15   am
    20    13    14    2
    21    87    86    1
    22     9    10    1
    23    97    96    1
    24    97   100    1
    25   109   110    1
    26   110   111    1
    27    86    85   ar
    28    86    84   ar
    29    27    26    2
    30    10    11    2
    31    10    16   am
    32    85    83   ar
    33    84    82   ar
    34   100   101    1
    35   111   112    2
    36   111   113   am
    37    16    17    1
    38    26    25    1
    39    83    81   ar
    40   128   126    1
    41    82    81   ar
    42   123   122    1
    43   123   124    2
    44   113   114    1
    45    91    90    2
    46   122   121    1
    47   122   125    1
    48    24    25    1
    49    24    18   am
    50    28    25    1
    51    28    29    1
    52    81    80    1
    53    39    37    1
    54    17    18    1
    55    17    20    1
    56   125   126    1
    57    30    29    1
    58    90    89    1
    59    18    19    2
    60   126   127    1
    61    29    31    1
    62   114   115    1
    63   114   117    1
    64    21    20    1
    65    21    23    1
    66    21    22    1
    67    80    77    1
    68   115   116    2
    69   119   118    2
    70    37    38    1
    71    37    36    1
    72   118   117    1
    73   118   120   am
    74    89    88    1
    75    89    92    1
    76    88    78   am
    77    78    77    1
    78    78    79    2
    79    94    92    1
    80    77    76    1
    81    92    93    1
    82    36    33    1
    83   135   133    1
    84    33    32    1
    85    33    34    1
    86   143   141   ar
    87    34    35    2
    88    76    69   am
    89    93    95    1
    90   133   134    1
    91   133   130    1
    92    49    48    1
    93    50    48    1
    94   141   140    1
    95   141   142   ar
    96   140   137    1
    97    48    47    2
    98    41    40    1
    99    41    42    1
   100    41    44    1
   101    70    69    2
   102    69    68    1
   103   129   130    1
   104   132   131    2
   105   130   131    1
   106    42    43    2
   107   131   136   am
   108    45    44    1
   109    45    46    1
   110    47    46    1
   111   136   137    1
   112   137   138    1
   113    61    60    2
   114    65    64   ar
   115    72    73    1
   116    72    71    1
   117    68    71    1
   118    68    67    1
   119    75    73   am
   120    56    55    1
   121    56    57    1
   122    64    66   ar
   123    64    63    1
   124   139   138    2
   125    60    67   am
   126    60    59    1
   127    73    74    2
   128    62    63    1
   129    62    59    1
   130    55    52    1
   131    58    59    1
   132    57    51    1
   133    52    51    1
   134    52    53    1
   135    53    54    2
