@<TRIPOS>MOLECULE
tmp/3lq3A01.pdb
 145 135 0 0 0
SMALL
GASTEIGER

@<TRIPOS>ATOM
      1  N         38.0450   55.5740    2.9270 N.3    33  VAL33      -0.1245
      2  CA        36.8860   54.7410    2.6730 C.3    33  VAL33       0.1561
      3  C         35.5910   55.4670    3.0770 C.2    33  VAL33       0.2260
      4  O         34.5040   54.8660    3.0470 O.2    33  VAL33      -0.2867
      5  CB        36.9770   53.3910    3.3710 C.3    33  VAL33       0.0252
      6  CG1       38.1220   52.5960    2.7900 C.3    33  VAL33       0.0019
      7  CG2       37.1290   53.5420    4.8890 C.3    33  VAL33       0.0019
      8  N         36.8890   58.4790    7.3940 N.3    36  LEU36      -0.1245
      9  CA        37.3290   57.1040    7.6760 C.3    36  LEU36       0.1561
     10  C         38.4840   56.7000    6.7340 C.2    36  LEU36       0.2260
     11  O         38.4200   56.9400    5.5140 O.2    36  LEU36      -0.2867
     12  CB        36.2030   56.0740    7.5090 C.3    36  LEU36       0.0270
     13  CG        35.1330   55.8150    8.5990 C.3    36  LEU36       0.0019
     14  CD1       34.1860   54.7180    8.1150 C.3    36  LEU36       0.0001
     15  CD2       35.7350   55.4100    9.9430 C.3    36  LEU36       0.0001
     16  N         41.0670   50.8710   10.9790 N.3    56  LEU56      -0.1245
     17  CA        40.3890   52.0260   10.4350 C.3    56  LEU56       0.1561
     18  C         40.6240   53.1750   11.3690 C.2    56  LEU56       0.2260
     19  O         40.3390   53.0650   12.5600 O.2    56  LEU56      -0.2867
     20  CB        38.8760   51.8140   10.3130 C.3    56  LEU56       0.0270
     21  CG        38.3440   51.1190    9.0830 C.3    56  LEU56       0.0019
     22  CD1       36.8340   51.2450    9.0960 C.3    56  LEU56       0.0001
     23  CD2       38.9050   51.7150    7.8290 C.3    56  LEU56       0.0001
     24  N         39.1890   56.6210   12.3530 N.3    58  ARG58      -0.1245
     25  CA        37.9500   57.4010   12.2850 C.3    58  ARG58       0.1563
     26  C         38.2380   58.7470   12.8970 C.2    58  ARG58       0.2260
     27  O         38.5210   58.8480   14.0860 O.2    58  ARG58      -0.2867
     28  CB        36.8130   56.7010   13.0350 C.3    58  ARG58       0.0307
     29  CG        35.5320   57.4530   12.9830 C.3    58  ARG58       0.0489
     30  CD        34.3840   56.7050   13.7090 C.3    58  ARG58       0.2205
     31  NE        34.0850   55.4080   13.1410 N.pl3  58  ARG58      -0.0865
     32  CZ        33.1130   55.1350   12.2750 C.cat  58  ARG58       0.5346
     33  NH1       32.3040   56.1000   11.8160 N.pl3  58  ARG58       0.1354
     34  NH2       32.9840   53.8910   11.8230 N.pl3  58  ARG58       0.1354
     35  N         33.3430   46.3720   16.1520 N.3    87  PRO87      -0.2116
     36  CA        34.7810   46.2880   15.8740 C.3    87  PRO87       0.1372
     37  C         35.5940   46.5440   17.1270 C.2    87  PRO87       0.2244
     38  O         35.2010   47.3450   17.9750 O.2    87  PRO87      -0.2868
     39  CB        35.0070   47.4190   14.8510 C.3    87  PRO87       0.0268
     40  CG        33.6490   47.6750   14.2510 C.3    87  PRO87       0.0207
     41  CD        32.6850   47.4290   15.3810 C.3    87  PRO87       0.0892
     42  N         40.0740   51.7240   15.0680 N.3    99  GLU99      -0.1231
     43  CA        39.1760   50.5740   15.1890 C.3    99  GLU99       0.1699
     44  C         39.7220   49.4420   14.3710 C.2    99  GLU99       0.2592
     45  O         40.4960   49.6280   13.4200 O.2    99  GLU99      -0.2718
     46  CB        37.7570   50.8590   14.6160 C.3    99  GLU99       0.0402
     47  CG        37.0790   52.0470   15.0540 C.3    99  GLU99       0.1161
     48  CD        35.7630   52.3280   14.2570 C.2    99  GLU99       0.3649
     49  OE1       35.3250   51.4790   13.4400 O.co2  99  GLU99      -0.2457
     50  OE2       35.2330   53.3500   14.5640 O.co2  99  GLU99      -0.2457
     51  N         39.2960   48.2520   14.6820 N.am  100  GLN100     -0.1966
     52  CA        39.5420   47.1010   13.8290 C.3   100  GLN100      0.1733
     53  C         38.9070   47.3210   12.4770 C.2   100  GLN100      0.2616
     54  O         37.7200   47.6430   12.3850 O.2   100  GLN100     -0.2715
     55  CB        38.8670   45.9010   14.4870 C.3   100  GLN100      0.0408
     56  CG        39.0240   44.5800   13.7800 C.3   100  GLN100      0.0908
     57  CD        38.1700   43.4970   14.4350 C.2   100  GLN100      0.2608
     58  OE1       37.3590   43.7650   15.3530 O.2   100  GLN100     -0.2717
     59  NE2       38.3440   42.2440   13.9620 N.am  100  GLN100     -0.0878
     60  N         39.6980   47.1160   11.4040 N.am  101  TYR101     -0.1960
     61  CA        39.1240   47.0010   10.0790 C.3   101  TYR101      0.1771
     62  C         38.5370   45.5800    9.9690 C.2   101  TYR101      0.2619
     63  O         39.2570   44.5770   10.1200 O.2   101  TYR101     -0.2715
     64  CB        40.1570   47.2510    8.9530 C.3   101  TYR101      0.0574
     65  CG        39.5730   46.8290    7.6530 C.ar  101  TYR101     -0.0198
     66  CD1       38.5070   47.5170    7.1240 C.ar  101  TYR101     -0.0009
     67  CD2       40.0090   45.6740    7.0100 C.ar  101  TYR101     -0.0009
     68  CE1       37.9070   47.0910    5.9620 C.ar  101  TYR101      0.0417
     69  CE2       39.4170   45.2490    5.8610 C.ar  101  TYR101      0.0417
     70  CZ        38.3680   45.9570    5.3450 C.ar  101  TYR101      0.1957
     71  OH        37.7580   45.5290    4.1490 O.3   101  TYR101     -0.2866
     72  N         37.2340   45.4860    9.7250 N.am  102  ILE102     -0.1977
     73  CA        36.5580   44.1810    9.6210 C.3   102  ILE102      0.1596
     74  C         36.5900   43.7790    8.1590 C.2   102  ILE102      0.2287
     75  O         36.0100   44.4410    7.3260 O.2   102  ILE102     -0.2864
     76  CB        35.0930   44.2640   10.0870 C.3   102  ILE102      0.0276
     77  CG1       34.9580   44.8230   11.4920 C.3   102  ILE102      0.0022
     78  CG2       34.3960   42.8770    9.9890 C.3   102  ILE102      0.0022
     79  CD1       35.6790   44.0450   12.5020 C.3   102  ILE102      0.0001
     80  N         35.2850   42.4870    5.0680 N.3   104  SER104     -0.1217
     81  CA        33.8250   42.4770    4.8750 C.3   104  SER104      0.1889
     82  C         33.4080   43.3470    3.7290 C.2   104  SER104      0.2288
     83  O         34.2020   44.0750    3.1660 O.2   104  SER104     -0.2866
     84  CB        33.1050   43.0270    6.1650 C.3   104  SER104      0.2089
     85  OG        33.4580   44.3780    6.4040 O.3   104  SER104     -0.2183
     86  N         29.5370   45.7940    2.9930 N.3   106  PRO106     -0.2116
     87  CA        28.1770   46.0530    3.4680 C.3   106  PRO106      0.1372
     88  C         27.1440   45.3300    2.6210 C.2   106  PRO106      0.2244
     89  O         27.3690   45.0920    1.4280 O.2   106  PRO106     -0.2868
     90  CB        28.0110   47.5570    3.3440 C.3   106  PRO106      0.0268
     91  CG        29.1220   47.9990    2.4060 C.3   106  PRO106      0.0207
     92  CD        30.1810   46.9810    2.4130 C.3   106  PRO106      0.0892
     93  N         20.2640   49.5510    8.9180 N.3   198  GLN198     -0.1245
     94  CA        20.1320   49.6270    7.4650 C.3   198  GLN198      0.1566
     95  C         21.2600   48.7520    6.8690 C.2   198  GLN198      0.2260
     96  O         22.2470   48.4510    7.5040 O.2   198  GLN198     -0.2867
     97  CB        20.2550   51.0380    7.0050 C.3   198  GLN198      0.0367
     98  CG        21.5680   51.7320    7.3510 C.3   198  GLN198      0.0905
     99  CD        22.1220   52.5310    6.1720 C.2   198  GLN198      0.2608
    100  OE1       22.2770   51.9990    5.0580 O.2   198  GLN198     -0.2717
    101  NE2       22.4690   53.8090    6.4280 N.am  198  GLN198     -0.0878
    102  N         23.6690   49.3920    4.9200 N.3   200  GLY200     -0.1210
    103  CA        24.9960   49.9530    4.9800 C.3   200  GLY200      0.1956
    104  C         25.7330   49.7820    6.2650 C.2   200  GLY200      0.2611
    105  O         26.9370   50.0140    6.3150 O.2   200  GLY200     -0.2717
    106  N         24.9970   49.4330    7.3150 N.am  201  ASN201     -0.1974
    107  CA        25.5470   49.1550    8.6200 C.3   201  ASN201      0.1688
    108  C         25.6000   47.6880    8.9950 C.2   201  ASN201      0.2292
    109  O         25.9170   47.3450   10.1450 O.2   201  ASN201     -0.2864
    110  CB        24.7730   49.9510    9.7030 C.3   201  ASN201      0.1181
    111  CG        24.9560   51.4640    9.5580 C.2   201  ASN201      0.2629
    112  OD1       25.9860   51.9420    9.0340 O.2   201  ASN201     -0.2716
    113  ND2       23.9480   52.2690   10.0760 N.am  201  ASN201     -0.0877
    114  N         27.6150   44.4260    8.0650 N.3   203  LEU203     -0.1245
    115  CA        28.8020   43.9290    7.3420 C.3   203  LEU203      0.1561
    116  C         28.7570   42.4360    7.2220 C.2   203  LEU203      0.2260
    117  O         28.5890   41.6960    8.2030 O.2   203  LEU203     -0.2867
    118  CB        30.0960   44.3400    8.0690 C.3   203  LEU203      0.0270
    119  CG        30.2610   45.8240    8.3300 C.3   203  LEU203      0.0019
    120  CD1       31.6460   46.1200    8.8450 C.3   203  LEU203      0.0001
    121  CD2       29.9530   46.6550    7.1040 C.3   203  LEU203      0.0001
    122  N         27.6870   47.7130   12.5070 N.3   214  VAL214     -0.1231
    123  CA        28.5060   48.8590   12.8160 C.3   214  VAL214      0.1692
    124  C         27.6000   50.0740   12.9010 C.2   214  VAL214      0.2592
    125  O         26.3840   49.9690   12.6390 O.2   214  VAL214     -0.2718
    126  CB        29.6330   49.0700   11.8090 C.3   214  VAL214      0.0266
    127  CG1       30.6410   47.8530   11.8760 C.3   214  VAL214      0.0020
    128  CG2       29.0800   49.2560   10.4090 C.3   214  VAL214      0.0020
    129  N         28.2000   51.2210   13.2470 N.am  215  ASP215     -0.1974
    130  CA        27.5460   52.5240   13.2940 C.3   215  ASP215      0.1709
    131  C         26.5650   52.6380   14.4430 C.2   215  ASP215      0.2293
    132  O         25.3870   52.4460   14.2750 O.2   215  ASP215     -0.2864
    133  CB        26.8370   52.8850   11.9680 C.3   215  ASP215      0.1436
    134  CG        26.3960   54.3130   11.9030 C.2   215  ASP215      0.3671
    135  OD1       26.5770   55.0440   12.9110 O.co2 215  ASP215     -0.2456
    136  OD2       25.8830   54.6960   10.8110 O.co2 215  ASP215     -0.2456
    137  N         25.9890   55.3920   16.2130 N.3   217  GLU217     -0.1245
    138  CA        25.7010   56.8050   16.4420 C.3   217  GLU217      0.1567
    139  C         24.3810   57.0420   17.1590 C.2   217  GLU217      0.2260
    140  O         24.2520   57.9890   17.9820 O.2   217  GLU217     -0.2867
    141  CB        25.6650   57.5590   15.1080 C.3   217  GLU217      0.0388
    142  CG        25.2550   59.0330   15.2600 C.3   217  GLU217      0.1160
    143  CD        25.3670   59.8740   14.0030 C.2   217  GLU217      0.3649
    144  OE1       25.9090   59.4290   12.9720 O.co2 217  GLU217     -0.2457
    145  OE2       24.9110   61.0370   14.0930 O.co2 217  GLU217     -0.2457
@<TRIPOS>BOND
     1    89    88    2
     2    91    92    1
     3    91    90    1
     4    92    86    1
     5    88    87    1
     6     2     1    1
     7     2     3    1
     8     2     5    1
     9     6     5    1
    10    86    87    1
    11     4     3    2
    12    83    82    2
    13    90    87    1
    14     5     7    1
    15    82    81    1
    16    71    70    1
    17    81    80    1
    18    81    84    1
    19   102   103    1
    20   103   104    1
    21   100    99    2
    22    70    69   ar
    23    70    68   ar
    24    11    10    2
    25    69    67   ar
    26    68    66   ar
    27    84    85    1
    28    99   101   am
    29    99    98    1
    30   104   105    2
    31   104   106   am
    32    10     9    1
    33    95    94    1
    34    95    96    2
    35    97    98    1
    36    97    94    1
    37    67    65   ar
    38   121   119    1
    39    66    65   ar
    40   116   115    1
    41   116   117    2
    42   106   107    1
    43    75    74    2
    44   115   114    1
    45   115   118    1
    46     8     9    1
    47    94    93    1
    48    12     9    1
    49    12    13    1
    50    65    64    1
    51    23    21    1
    52   118   119    1
    53    14    13    1
    54    74    73    1
    55   119   120    1
    56    13    15    1
    57   107   108    1
    58   107   110    1
    59    64    61    1
    60   108   109    2
    61   112   111    2
    62    21    22    1
    63    21    20    1
    64   111   110    1
    65   111   113   am
    66    73    72    1
    67    73    76    1
    68    72    62   am
    69    62    61    1
    70    62    63    2
    71    78    76    1
    72    61    60    1
    73    76    77    1
    74    20    17    1
    75   128   126    1
    76    17    16    1
    77    17    18    1
    78   136   134   ar
    79    18    19    2
    80    60    53   am
    81    77    79    1
    82   126   127    1
    83   126   123    1
    84    33    32    1
    85    34    32    1
    86   134   133    1
    87   134   135   ar
    88   133   130    1
    89    32    31    2
    90    25    24    1
    91    25    26    1
    92    25    28    1
    93    54    53    2
    94    53    52    1
    95   122   123    1
    96   125   124    2
    97   123   124    1
    98    26    27    2
    99   124   129   am
   100   144   143   ar
   101    29    28    1
   102    29    30    1
   103    31    30    1
   104   129   130    1
   105   130   131    1
   106    45    44    2
   107    49    48   ar
   108    56    57    1
   109    56    55    1
   110    52    55    1
   111    52    51    1
   112    59    57   am
   113   143   145   ar
   114   143   142    1
   115    40    39    1
   116    40    41    1
   117    48    50   ar
   118    48    47    1
   119   132   131    2
   120    44    51   am
   121    44    43    1
   122    57    58    2
   123    46    47    1
   124    46    43    1
   125    39    36    1
   126    42    43    1
   127   141   142    1
   128   141   138    1
   129    41    35    1
   130    36    35    1
   131    36    37    1
   132   137   138    1
   133   138   139    1
   134    37    38    2
   135   139   140    2
