@<TRIPOS>MOLECULE
tmp/3lq3A00.pdb
 196 191 0 0 0
SMALL
GASTEIGER

@<TRIPOS>ATOM
      1  N         19.6020   51.9710   13.8280 N.3   196  ASP196     -0.1239
      2  CA        19.9200   52.2990   12.4240 C.3   196  ASP196      0.1674
      3  C         20.4070   51.0400   11.7010 C.2   196  ASP196      0.2266
      4  O         21.4700   51.0280   11.0550 O.2   196  ASP196     -0.2867
      5  CB        20.9190   53.4520   12.4270 C.3   196  ASP196      0.1410
      6  CG        21.2740   54.0010   11.0500 C.2   196  ASP196      0.3668
      7  OD1       20.5340   53.8260   10.0960 O.co2 196  ASP196     -0.2456
      8  OD2       22.3740   54.6470   10.9900 O.co2 196  ASP196     -0.2456
      9  N         20.2640   49.5510    8.9180 N.3   198  GLN198     -0.1245
     10  CA        20.1320   49.6270    7.4650 C.3   198  GLN198      0.1566
     11  C         21.2600   48.7520    6.8690 C.2   198  GLN198      0.2260
     12  O         22.2470   48.4510    7.5040 O.2   198  GLN198     -0.2867
     13  CB        20.2550   51.0380    7.0050 C.3   198  GLN198      0.0367
     14  CG        21.5680   51.7320    7.3510 C.3   198  GLN198      0.0905
     15  CD        22.1220   52.5310    6.1720 C.2   198  GLN198      0.2608
     16  OE1       22.2770   51.9990    5.0580 O.2   198  GLN198     -0.2717
     17  NE2       22.4690   53.8090    6.4280 N.am  198  GLN198     -0.0878
     18  N         24.9970   49.4330    7.3150 N.3   201  ASN201     -0.1240
     19  CA        25.5470   49.1550    8.6200 C.3   201  ASN201      0.1653
     20  C         25.6000   47.6880    8.9950 C.2   201  ASN201      0.2266
     21  O         25.9170   47.3450   10.1450 O.2   201  ASN201     -0.2867
     22  CB        24.7730   49.9510    9.7030 C.3   201  ASN201      0.1155
     23  CG        24.9560   51.4640    9.5580 C.2   201  ASN201      0.2627
     24  OD1       25.9860   51.9420    9.0340 O.2   201  ASN201     -0.2716
     25  ND2       23.9480   52.2690   10.0760 N.am  201  ASN201     -0.0877
     26  N         28.2000   51.2210   13.2470 N.3   215  ASP215     -0.1239
     27  CA        27.5460   52.5240   13.2940 C.3   215  ASP215      0.1674
     28  C         26.5650   52.6380   14.4430 C.2   215  ASP215      0.2266
     29  O         25.3870   52.4460   14.2750 O.2   215  ASP215     -0.2867
     30  CB        26.8370   52.8850   11.9680 C.3   215  ASP215      0.1410
     31  CG        26.3960   54.3130   11.9030 C.2   215  ASP215      0.3668
     32  OD1       26.5770   55.0440   12.9110 O.co2 215  ASP215     -0.2456
     33  OD2       25.8830   54.6960   10.8110 O.co2 215  ASP215     -0.2456
     34  N         25.9890   55.3920   16.2130 N.3   217  GLU217     -0.1231
     35  CA        25.7010   56.8050   16.4420 C.3   217  GLU217      0.1699
     36  C         24.3810   57.0420   17.1590 C.2   217  GLU217      0.2592
     37  O         24.2520   57.9890   17.9820 O.2   217  GLU217     -0.2718
     38  CB        25.6650   57.5590   15.1080 C.3   217  GLU217      0.0402
     39  CG        25.2550   59.0330   15.2600 C.3   217  GLU217      0.1161
     40  CD        25.3670   59.8740   14.0030 C.2   217  GLU217      0.3649
     41  OE1       25.9090   59.4290   12.9720 O.co2 217  GLU217     -0.2457
     42  OE2       24.9110   61.0370   14.0930 O.co2 217  GLU217     -0.2457
     43  N         23.3890   56.2600   16.8110 N.am  218  TYR218     -0.1976
     44  CA        22.0310   56.4860   17.2890 C.3   218  TYR218      0.1639
     45  C         21.6110   55.5070   18.3700 C.2   218  TYR218      0.2290
     46  O         20.4580   55.5450   18.8350 O.2   218  TYR218     -0.2864
     47  CB        21.0560   56.3570   16.1200 C.3   218  TYR218      0.0560
     48  CG        21.4130   57.2400   14.9470 C.ar  218  TYR218     -0.0198
     49  CD1       21.0420   58.5800   14.9260 C.ar  218  TYR218     -0.0009
     50  CD2       22.1160   56.7500   13.8620 C.ar  218  TYR218     -0.0009
     51  CE1       21.3870   59.3860   13.8610 C.ar  218  TYR218      0.0417
     52  CE2       22.4390   57.5620   12.7740 C.ar  218  TYR218      0.0417
     53  CZ        22.0770   58.8670   12.7910 C.ar  218  TYR218      0.1957
     54  OH        22.4140   59.6220   11.6820 O.3   218  TYR218     -0.2866
     55  N         12.0370   49.8860   12.0900 N.3   230  ASN230     -0.1240
     56  CA        12.9910   50.6730   11.3230 C.3   230  ASN230      0.1653
     57  C         13.7170   49.8130   10.2990 C.2   230  ASN230      0.2266
     58  O         13.9010   50.2110    9.1430 O.2   230  ASN230     -0.2867
     59  CB        14.0100   51.3650   12.2350 C.3   230  ASN230      0.1155
     60  CG        14.9860   52.1710   11.4630 C.2   230  ASN230      0.2627
     61  OD1       14.6320   53.2100   10.8680 O.2   230  ASN230     -0.2716
     62  ND2       16.2490   51.7180   11.4240 N.am  230  ASN230     -0.0877
     63  N         13.7000   49.9890    6.0580 N.3   234  GLU234     -0.1245
     64  CA        14.8840   50.0790    5.2550 C.3   234  GLU234      0.1567
     65  C         14.8780   49.1580    4.0240 C.2   234  GLU234      0.2260
     66  O         15.7070   49.3940    3.0880 O.2   234  GLU234     -0.2867
     67  CB        16.1600   49.7920    6.0890 C.3   234  GLU234      0.0388
     68  CG        16.5190   50.9650    6.9740 C.3   234  GLU234      0.1160
     69  CD        16.9700   52.2230    6.2100 C.2   234  GLU234      0.3649
     70  OE1       17.1290   52.1230    4.9400 O.co2 234  GLU234     -0.2457
     71  OE2       17.1610   53.3240    6.8620 O.co2 234  GLU234     -0.2457
     72  N         20.1370   53.9300   -0.7650 N.3   239  TYR239     -0.1241
     73  CA        20.8470   55.1880   -0.7020 C.3   239  TYR239      0.1605
     74  C         22.0380   55.1920   -1.6570 C.2   239  TYR239      0.2264
     75  O         22.9090   56.0220   -1.5440 O.2   239  TYR239     -0.2867
     76  CB        21.3080   55.4690    0.7280 C.3   239  TYR239      0.0534
     77  CG        20.1670   55.3410    1.7050 C.ar  239  TYR239     -0.0201
     78  CD1       19.1310   56.2690    1.7130 C.ar  239  TYR239     -0.0009
     79  CD2       20.1100   54.2840    2.6100 C.ar  239  TYR239     -0.0009
     80  CE1       18.0610   56.1460    2.5900 C.ar  239  TYR239      0.0417
     81  CE2       19.0300   54.1670    3.4980 C.ar  239  TYR239      0.0417
     82  CZ        18.0170   55.0780    3.4580 C.ar  239  TYR239      0.1957
     83  OH        16.9490   55.0070    4.3210 O.3   239  TYR239     -0.2866
     84  N         21.4670   55.1140   -5.0840 N.3   241  HIS241     -0.1226
     85  CA        20.8760   55.5250   -6.3500 C.3   241  HIS241      0.1752
     86  C         21.7610   56.6210   -6.9430 C.2   241  HIS241      0.2595
     87  O         22.2230   57.5060   -6.2220 O.2   241  HIS241     -0.2718
     88  CB        19.4640   56.0450   -6.1000 C.3   241  HIS241      0.0759
     89  CG        18.6970   56.3320   -7.3450 C.ar  241  HIS241      0.0818
     90  ND1       18.3710   55.3490   -8.2590 N.ar  241  HIS241     -0.2268
     91  CD2       18.1570   57.4790   -7.8140 C.ar  241  HIS241      0.1154
     92  CE1       17.6820   55.8900   -9.2490 C.ar  241  HIS241      0.1986
     93  NE2       17.5370   57.1780   -9.0040 N.ar  241  HIS241     -0.2212
     94  N         22.0190   56.5520   -8.2560 N.am  242  GLU242     -0.1979
     95  CA        23.1090   57.3730   -8.8320 C.3   242  GLU242      0.1602
     96  C         22.6930   58.7340   -9.4280 C.2   242  GLU242      0.2287
     97  O         23.5620   59.4770   -9.9060 O.2   242  GLU242     -0.2864
     98  CB        23.8840   56.5550   -9.8660 C.3   242  GLU242      0.0415
     99  CG        24.5470   55.2740   -9.3540 C.3   242  GLU242      0.1163
    100  CD        25.8170   55.5210   -8.5510 C.2   242  GLU242      0.3649
    101  OE1       26.7130   56.2600   -9.0400 O.co2 242  GLU242     -0.2457
    102  OE2       25.9380   54.9570   -7.4380 O.co2 242  GLU242     -0.2457
    103  N         19.4110   60.9230   -5.1310 N.3   246  PHE246     -0.1241
    104  CA        20.4650   60.0110   -4.6730 C.3   246  PHE246      0.1605
    105  C         19.9610   58.9800   -3.6450 C.2   246  PHE246      0.2264
    106  O         20.7430   58.3350   -2.9760 O.2   246  PHE246     -0.2867
    107  CB        21.7010   60.7640   -4.1900 C.3   246  PHE246      0.0534
    108  CG        22.3020   61.6470   -5.2510 C.ar  246  PHE246     -0.0203
    109  CD1       22.8310   61.0910   -6.3940 C.ar  246  PHE246     -0.0042
    110  CD2       22.2890   63.0140   -5.1200 C.ar  246  PHE246     -0.0042
    111  CE1       23.3620   61.9010   -7.3970 C.ar  246  PHE246     -0.0003
    112  CE2       22.8480   63.8220   -6.1110 C.ar  246  PHE246     -0.0003
    113  CZ        23.3670   63.2510   -7.2390 C.ar  246  PHE246     -0.0000
    114  N         12.9970   59.7280   11.0890 N.3   304  TRP304     -0.1241
    115  CA        13.9500   60.0320   10.0150 C.3   304  TRP304      0.1605
    116  C         13.4720   61.1660    9.1530 C.2   304  TRP304      0.2264
    117  O         14.2910   61.8790    8.6050 O.2   304  TRP304     -0.2867
    118  CB        14.3060   58.7920    9.1990 C.3   304  TRP304      0.0550
    119  CG        15.1020   57.7650   10.0170 C.ar  304  TRP304      0.0003
    120  CD1       14.7350   56.4950   10.2920 C.ar  304  TRP304      0.0946
    121  CD2       16.3550   57.9640   10.6960 C.ar  304  TRP304      0.0152
    122  NE1       15.6710   55.8660   11.0510 N.ar  304  TRP304     -0.2442
    123  CE2       16.6970   56.7360   11.3060 C.ar  304  TRP304      0.0810
    124  CE3       17.2340   59.0440   10.8170 C.ar  304  TRP304      0.0012
    125  CZ2       17.8450   56.5750   12.0480 C.ar  304  TRP304      0.0191
    126  CZ3       18.4160   58.8640   11.5280 C.ar  304  TRP304      0.0001
    127  CH2       18.6990   57.6540   12.1410 C.ar  304  TRP304      0.0015
    128  N         14.6280   64.1310   11.1570 N.3   307  TRP307     -0.1241
    129  CA        16.0820   64.1730   11.0710 C.3   307  TRP307      0.1605
    130  C         16.5090   64.6990    9.7210 C.2   307  TRP307      0.2264
    131  O         17.4450   65.5050    9.6320 O.2   307  TRP307     -0.2867
    132  CB        16.6200   62.7530   11.2700 C.3   307  TRP307      0.0550
    133  CG        18.1020   62.5540   11.0340 C.ar  307  TRP307      0.0003
    134  CD1       19.0910   62.6300   11.9740 C.ar  307  TRP307      0.0946
    135  CD2       18.7270   62.1720    9.8080 C.ar  307  TRP307      0.0152
    136  NE1       20.3110   62.3570   11.3920 N.ar  307  TRP307     -0.2442
    137  CE2       20.1150   62.0730   10.0680 C.ar  307  TRP307      0.0810
    138  CE3       18.2540   61.9210    8.5070 C.ar  307  TRP307      0.0012
    139  CZ2       21.0490   61.7140    9.0560 C.ar  307  TRP307      0.0191
    140  CZ3       19.2000   61.5370    7.5110 C.ar  307  TRP307      0.0001
    141  CH2       20.5500   61.4330    7.8220 C.ar  307  TRP307      0.0015
    142  N         24.1250   67.5260   -2.6830 N.3   318  GLU318     -0.1231
    143  CA        24.7450   66.2000   -2.5320 C.3   318  GLU318      0.1699
    144  C         23.7400   65.0520   -2.2800 C.2   318  GLU318      0.2592
    145  O         24.0370   63.8870   -2.5560 O.2   318  GLU318     -0.2718
    146  CB        25.7790   66.2580   -1.4290 C.3   318  GLU318      0.0402
    147  CG        25.2330   66.3680   -0.0290 C.3   318  GLU318      0.1161
    148  CD        25.1040   67.8010    0.4890 C.2   318  GLU318      0.3649
    149  OE1       24.9300   68.7890   -0.3000 O.co2 318  GLU318     -0.2457
    150  OE2       25.1960   67.9340    1.7270 O.co2 318  GLU318     -0.2457
    151  N         22.5660   65.4120   -1.7440 N.am  319  PHE319     -0.1976
    152  CA        21.4840   64.4410   -1.4470 C.3   319  PHE319      0.1639
    153  C         20.2210   65.2230   -1.2380 C.2   319  PHE319      0.2290
    154  O         20.2420   66.3060   -0.6300 O.2   319  PHE319     -0.2864
    155  CB        21.8150   63.6220   -0.1880 C.3   319  PHE319      0.0560
    156  CG        20.8330   62.5100    0.0930 C.ar  319  PHE319     -0.0200
    157  CD1       21.0180   61.2500   -0.4370 C.ar  319  PHE319     -0.0042
    158  CD2       19.7430   62.7240    0.9400 C.ar  319  PHE319     -0.0042
    159  CE1       20.0930   60.2060   -0.1810 C.ar  319  PHE319     -0.0003
    160  CE2       18.8200   61.6940    1.2030 C.ar  319  PHE319     -0.0003
    161  CZ        19.0080   60.4420    0.6450 C.ar  319  PHE319     -0.0000
    162  N         17.6850   65.7000    0.8150 N.3   321  TYR321     -0.1241
    163  CA        17.1680   65.5020    2.1740 C.3   321  TYR321      0.1605
    164  C         15.7240   65.8940    2.3140 C.2   321  TYR321      0.2264
    165  O         14.9340   65.1990    2.9760 O.2   321  TYR321     -0.2867
    166  CB        18.0360   66.1800    3.2040 C.3   321  TYR321      0.0534
    167  CG        19.3390   65.4770    3.4310 C.ar  321  TYR321     -0.0201
    168  CD1       19.4000   64.2760    4.1610 C.ar  321  TYR321     -0.0009
    169  CD2       20.5420   66.0170    2.9470 C.ar  321  TYR321     -0.0009
    170  CE1       20.5950   63.6340    4.3770 C.ar  321  TYR321      0.0417
    171  CE2       21.7460   65.3700    3.1580 C.ar  321  TYR321      0.0417
    172  CZ        21.7700   64.1780    3.8600 C.ar  321  TYR321      0.1957
    173  OH        22.9600   63.5250    4.1020 O.3   321  TYR321     -0.2866
    174  N         13.5780   63.3300    0.5040 N.3   324  TYR324     -0.1241
    175  CA        13.5530   62.1440    1.3470 C.3   324  TYR324      0.1605
    176  C         12.5970   62.3070    2.5260 C.2   324  TYR324      0.2264
    177  O         11.8300   61.3840    2.8100 O.2   324  TYR324     -0.2867
    178  CB        14.9570   61.8140    1.8110 C.3   324  TYR324      0.0534
    179  CG        15.0480   60.5470    2.6520 C.ar  324  TYR324     -0.0201
    180  CD1       14.9380   59.3150    2.0880 C.ar  324  TYR324     -0.0009
    181  CD2       15.2330   60.6140    4.0060 C.ar  324  TYR324     -0.0009
    182  CE1       15.0310   58.1780    2.8670 C.ar  324  TYR324      0.0417
    183  CE2       15.2880   59.4950    4.7980 C.ar  324  TYR324      0.0417
    184  CZ        15.2200   58.2950    4.2270 C.ar  324  TYR324      0.1957
    185  OH        15.2880   57.1080    4.9670 O.3   324  TYR324     -0.2866
    186  N          9.3100   59.9300    3.4370 N.3   328  ARG328     -0.1245
    187  CA         9.0420   59.2570    4.7050 C.3   328  ARG328      0.1563
    188  C          7.6690   59.6810    5.2620 C.2   328  ARG328      0.2260
    189  O          6.8950   58.8340    5.7270 O.2   328  ARG328     -0.2867
    190  CB        10.1310   59.5560    5.7410 C.3   328  ARG328      0.0307
    191  CG        11.5760   59.0640    5.4270 C.3   328  ARG328      0.0489
    192  CD        11.6460   57.6320    5.0020 C.3   328  ARG328      0.2205
    193  NE        11.2020   56.6380    6.0230 N.pl3 328  ARG328     -0.0865
    194  CZ        11.9970   55.9560    6.8320 C.cat 328  ARG328      0.5346
    195  NH1       13.3050   56.1060    6.8500 N.pl3 328  ARG328      0.1354
    196  NH2       11.4550   55.0450    7.6190 N.pl3 328  ARG328      0.1354
@<TRIPOS>BOND
     1    97    96    2
     2    98    99    1
     3    98    95    1
     4    96    95    1
     5    99   100    1
     6    92    93   ar
     7    92    90   ar
     8   101   100   ar
     9    93    91   ar
    10    95    94    1
    11   100   102   ar
    12    90    89   ar
    13    94    86   am
    14    91    89   ar
    15   111   113   ar
    16   111   109   ar
    17    89    88    1
    18   113   112   ar
    19    86    85    1
    20    86    87    2
    21   109   108   ar
    22    85    88    1
    23    85    84    1
    24   112   110   ar
    25   108   110   ar
    26   108   107    1
    27   103   104    1
    28   104   107    1
    29   104   105    1
    30   105   106    2
    31   142   143    1
    32   145   144    2
    33   143   144    1
    34   143   146    1
    35   144   151   am
    36   151   152    1
    37    74    75    2
    38    74    73    1
    39   152   153    1
    40   152   155    1
    41   146   147    1
    42   153   154    2
    43    72    73    1
    44    73    76    1
    45   157   159   ar
    46   157   156   ar
    47   149   148   ar
    48   155   156    1
    49   159   161   ar
    50   147   148    1
    51   156   158   ar
    52   148   150   ar
    53   174   175    1
    54   161   160   ar
    55    76    77    1
    56   162   163    1
    57   158   160   ar
    58   175   178    1
    59   175   176    1
    60    77    78   ar
    61    77    79   ar
    62    78    80   ar
    63   178   179    1
    64   180   179   ar
    65   180   182   ar
    66   163   164    1
    67   163   166    1
    68   164   165    2
    69   176   177    2
    70    80    82   ar
    71    79    81   ar
    72   179   181   ar
    73   182   184   ar
    74   169   171   ar
    75   169   167   ar
    76    66    65    2
    77   171   172   ar
    78   166   167    1
    79   167   168   ar
    80   186   187    1
    81    82    81   ar
    82    82    83    1
    83   172   173    1
    84   172   170   ar
    85   181   183   ar
    86    65    64    1
    87   168   170   ar
    88   184   183   ar
    89   184   185    1
    90   187   188    1
    91   187   190    1
    92    70    69   ar
    93   192   191    1
    94   192   193    1
    95    16    15    2
    96    64    63    1
    97    64    67    1
    98   188   189    2
    99   191   190    1
   100   193   194    2
   101    67    68    1
   102    15    17   am
   103    15    14    1
   104    69    71   ar
   105    69    68    1
   106   194   195    1
   107   194   196    1
   108    11    10    1
   109    11    12    2
   110    13    14    1
   111    13    10    1
   112    18    19    1
   113    10     9    1
   114   140   141   ar
   115   140   138   ar
   116   141   139   ar
   117   138   135   ar
   118   117   116    2
   119    19    20    1
   120    19    22    1
   121    20    21    2
   122    24    23    2
   123   139   137   ar
   124    58    57    2
   125   116   115    1
   126   118   115    1
   127   118   119    1
   128    23    22    1
   129    23    25   am
   130   131   130    2
   131   130   129    1
   132   135   137   ar
   133   135   133   ar
   134   115   114    1
   135   119   120   ar
   136   119   121   ar
   137   137   136   ar
   138     7     6   ar
   139   120   122   ar
   140    57    56    1
   141   121   124   ar
   142   121   123   ar
   143    33    31   ar
   144   124   126   ar
   145    61    60    2
   146     8     6   ar
   147   133   132    1
   148   133   134   ar
   149     6     5    1
   150   122   123   ar
   151     4     3    2
   152   129   128    1
   153   129   132    1
   154   123   125   ar
   155    56    55    1
   156    56    59    1
   157   136   134   ar
   158    62    60   am
   159    60    59    1
   160   126   127   ar
   161    54    53    1
   162     3     2    1
   163    31    30    1
   164    31    32   ar
   165    30    27    1
   166   125   127   ar
   167     2     5    1
   168     2     1    1
   169    52    53   ar
   170    52    50   ar
   171    53    51   ar
   172    41    40   ar
   173    26    27    1
   174    27    28    1
   175    51    49   ar
   176    50    48   ar
   177    40    42   ar
   178    40    39    1
   179    29    28    2
   180    49    48   ar
   181    48    47    1
   182    38    39    1
   183    38    35    1
   184    47    44    1
   185    34    35    1
   186    35    36    1
   187    43    36   am
   188    43    44    1
   189    36    37    2
   190    44    45    1
   191    45    46    2
