@<TRIPOS>MOLECULE
tmp/3lq5A00.pdb
 180 173 0 0 0
SMALL
GASTEIGER

@<TRIPOS>ATOM
      1  N         59.6240  -18.1250  -22.7390 N.3    18  ALA18      -0.1231
      2  CA        59.6440  -19.4140  -22.0710 C.3    18  ALA18       0.1694
      3  C         58.3430  -19.6980  -21.3470 C.2    18  ALA18       0.2592
      4  O         57.7350  -18.7940  -20.7890 O.2    18  ALA18      -0.2718
      5  CB        60.8020  -19.4640  -21.0890 C.3    18  ALA18       0.0304
      6  N         57.9210  -20.9570  -21.3570 N.am   19  LYS19      -0.1966
      7  CA        56.7970  -21.3910  -20.5420 C.3    19  LYS19       0.1728
      8  C         57.2230  -21.2970  -19.0790 C.2    19  LYS19       0.2616
      9  O         58.4080  -21.3570  -18.7830 O.2    19  LYS19      -0.2715
     10  CB        56.4090  -22.8300  -20.9020 C.3    19  LYS19       0.0311
     11  CG        54.9910  -23.2410  -20.4960 C.3    19  LYS19       0.0038
     12  CD        54.3910  -24.2500  -21.4830 C.3    19  LYS19       0.0206
     13  CE        54.2540  -23.6570  -22.8950 C.3    19  LYS19       0.1093
     14  NZ        53.8810  -24.6610  -23.9460 N.3    19  LYS19      -0.1314
     15  N         56.2760  -21.1200  -18.1610 N.am   20  ILE20      -0.1963
     16  CA        56.6140  -21.1510  -16.7370 C.3    20  ILE20       0.1727
     17  C         55.5340  -21.7830  -15.8440 C.2    20  ILE20       0.2617
     18  O         55.8190  -22.1600  -14.7030 O.2    20  ILE20      -0.2715
     19  CB        57.0670  -19.7660  -16.1970 C.3    20  ILE20       0.0290
     20  CG1       55.8890  -18.8270  -15.9700 C.3    20  ILE20       0.0022
     21  CG2       58.0700  -19.1090  -17.1360 C.3    20  ILE20       0.0023
     22  CD1       56.3350  -17.4120  -15.6970 C.3    20  ILE20       0.0001
     23  N         54.3140  -21.9160  -16.3710 N.am   21  GLY21      -0.1940
     24  CA        53.2340  -22.6210  -15.6890 C.3    21  GLY21       0.2014
     25  C         52.2330  -23.1700  -16.6970 C.2    21  GLY21       0.2638
     26  O         52.3500  -22.8410  -17.8820 O.2    21  GLY21      -0.2714
     27  N         51.2580  -23.9920  -16.2840 N.am   22  GLN22      -0.1977
     28  CA        51.0260  -24.4630  -14.9030 C.3    22  GLN22       0.1601
     29  C         50.4810  -23.4040  -13.9400 C.2    22  GLN22       0.2287
     30  O         49.3200  -23.4650  -13.5230 O.2    22  GLN22      -0.2864
     31  CB        52.2520  -25.1790  -14.3120 C.3    22  GLN22       0.0394
     32  CG        52.4470  -26.6050  -14.8330 C.3    22  GLN22       0.0908
     33  CD        53.5050  -26.7080  -15.9240 C.2    22  GLN22       0.2608
     34  OE1       54.6960  -26.5010  -15.6730 O.2    22  GLN22      -0.2717
     35  NE2       53.0740  -27.0400  -17.1400 N.am   22  GLN22      -0.0878
     36  N         46.5330  -24.5480  -14.3680 N.3    23  PHE23      -0.1241
     37  CA        45.8440  -23.3790  -14.9210 C.3    23  PHE23       0.1605
     38  C         46.6680  -22.0920  -14.7880 C.2    23  PHE23       0.2264
     39  O         46.8620  -21.5710  -13.6860 O.2    23  PHE23      -0.2867
     40  CB        44.4580  -23.2110  -14.2800 C.3    23  PHE23       0.0534
     41  CG        43.7190  -21.9780  -14.7330 C.ar   23  PHE23      -0.0203
     42  CD1       42.9510  -21.2460  -13.8380 C.ar   23  PHE23      -0.0042
     43  CD2       43.7990  -21.5470  -16.0510 C.ar   23  PHE23      -0.0042
     44  CE1       42.2710  -20.1120  -14.2490 C.ar   23  PHE23      -0.0003
     45  CE2       43.1240  -20.4140  -16.4720 C.ar   23  PHE23      -0.0003
     46  CZ        42.3580  -19.6940  -15.5690 C.ar   23  PHE23      -0.0000
     47  N         51.3090  -20.1400  -19.1800 N.3    26  VAL26      -0.1245
     48  CA        51.9250  -18.8990  -18.7020 C.3    26  VAL26       0.1561
     49  C         53.3840  -18.7130  -19.1430 C.2    26  VAL26       0.2260
     50  O         54.2460  -19.4950  -18.7450 O.2    26  VAL26      -0.2867
     51  CB        51.8940  -18.8910  -17.1660 C.3    26  VAL26       0.0252
     52  CG1       52.3280  -17.5380  -16.6050 C.3    26  VAL26       0.0019
     53  CG2       50.5150  -19.2660  -16.6890 C.3    26  VAL26       0.0019
     54  N         56.9760  -16.2200  -19.7590 N.3    28  LYS28      -0.1245
     55  CA        57.7740  -15.0150  -19.6220 C.3    28  LYS28       0.1561
     56  C         57.8450  -14.4030  -21.0100 C.2    28  LYS28       0.2260
     57  O         57.8660  -15.1180  -22.0080 O.2    28  LYS28      -0.2867
     58  CB        59.1800  -15.3550  -19.1460 C.3    28  LYS28       0.0271
     59  CG        60.0630  -14.1410  -18.8850 C.3    28  LYS28       0.0035
     60  CD        61.5490  -14.5350  -18.7980 C.3    28  LYS28       0.0206
     61  CE        62.3920  -13.4720  -18.0840 C.3    28  LYS28       0.1093
     62  NZ        63.8180  -13.8860  -17.8700 N.3    28  LYS28      -0.1314
     63  N         54.8710  -11.2860  -17.6130 N.3    39  ALA39      -0.1245
     64  CA        54.3000  -12.6240  -17.6660 C.3    39  ALA39       0.1562
     65  C         52.9660  -12.5260  -18.3910 C.2    39  ALA39       0.2260
     66  O         52.2090  -11.5870  -18.1560 O.2    39  ALA39      -0.2867
     67  CB        54.1050  -13.1830  -16.2610 C.3    39  ALA39       0.0290
     68  N         49.4570  -14.6600  -19.0810 N.3    41  LYS41      -0.1245
     69  CA        48.5410  -15.7800  -18.9120 C.3    41  LYS41       0.1561
     70  C         47.5760  -15.7790  -20.0840 C.2    41  LYS41       0.2260
     71  O         46.8110  -14.8330  -20.2610 O.2    41  LYS41      -0.2867
     72  CB        47.7320  -15.6220  -17.6240 C.3    41  LYS41       0.0271
     73  CG        48.2520  -16.3900  -16.4270 C.3    41  LYS41       0.0035
     74  CD        47.3260  -16.1860  -15.2240 C.3    41  LYS41       0.0206
     75  CE        47.7740  -16.9870  -13.9980 C.3    41  LYS41       0.1093
     76  NZ        46.8460  -16.7870  -12.8420 N.3    41  LYS41      -0.1314
     77  N         50.3030   -9.0360   -6.9030 N.3    72  VAL72      -0.1245
     78  CA        50.6750   -9.1450   -8.2910 C.3    72  VAL72       0.1561
     79  C         49.9190   -8.0670   -9.0620 C.2    72  VAL72       0.2260
     80  O         48.8430   -7.6510   -8.6490 O.2    72  VAL72      -0.2867
     81  CB        50.3850  -10.5720   -8.7920 C.3    72  VAL72       0.0252
     82  CG1       49.1670  -10.6000   -9.6910 C.3    72  VAL72       0.0019
     83  CG2       51.6230  -11.1600   -9.4540 C.3    72  VAL72       0.0019
     84  N         51.0210   -9.4040  -16.8670 N.3    88  PHE88      -0.1227
     85  CA        51.5370   -8.9540  -15.5720 C.3    88  PHE88       0.1736
     86  C         52.9870   -8.4620  -15.6280 C.2    88  PHE88       0.2595
     87  O         53.7080   -8.7130  -16.5970 O.2    88  PHE88      -0.2718
     88  CB        51.4740  -10.0980  -14.5690 C.3    88  PHE88       0.0547
     89  CG        50.1290  -10.6840  -14.4240 C.ar   88  PHE88      -0.0202
     90  CD1       49.2670  -10.2230  -13.4500 C.ar   88  PHE88      -0.0042
     91  CD2       49.7100  -11.6850  -15.2690 C.ar   88  PHE88      -0.0042
     92  CE1       48.0140  -10.7580  -13.3120 C.ar   88  PHE88      -0.0003
     93  CE2       48.4540  -12.2280  -15.1400 C.ar   88  PHE88      -0.0003
     94  CZ        47.6060  -11.7640  -14.1570 C.ar   88  PHE88      -0.0000
     95  N         53.4130   -7.7670  -14.5790 N.am   89  ASP89      -0.1960
     96  CA        54.8260   -7.5260  -14.3690 C.3    89  ASP89       0.1840
     97  C         55.4250   -8.9120  -14.1720 C.2    89  ASP89       0.2622
     98  O         54.7470   -9.8080  -13.6830 O.2    89  ASP89      -0.2715
     99  CB        55.0400   -6.6970  -13.1010 C.3    89  ASP89       0.1450
    100  CG        54.6370   -5.2450  -13.2680 C.2    89  ASP89       0.3671
    101  OD1       54.9130   -4.6670  -14.3450 O.co2  89  ASP89      -0.2456
    102  OD2       54.0620   -4.6790  -12.3090 O.co2  89  ASP89      -0.2456
    103  N         56.6840   -9.1100  -14.5360 N.am   90  PHE90      -0.1960
    104  CA        57.2840  -10.4230  -14.3420 C.3    90  PHE90       0.1771
    105  C         57.9730  -10.4880  -12.9970 C.2    90  PHE90       0.2620
    106  O         58.7140   -9.5710  -12.6450 O.2    90  PHE90      -0.2715
    107  CB        58.2900  -10.7100  -15.4400 C.3    90  PHE90       0.0574
    108  CG        59.0380  -11.9840  -15.2470 C.ar   90  PHE90      -0.0200
    109  CD1       58.4490  -13.2000  -15.5500 C.ar   90  PHE90      -0.0042
    110  CD2       60.3350  -11.9750  -14.7730 C.ar   90  PHE90      -0.0042
    111  CE1       59.1400  -14.3830  -15.3800 C.ar   90  PHE90      -0.0003
    112  CE2       61.0290  -13.1570  -14.5980 C.ar   90  PHE90      -0.0003
    113  CZ        60.4300  -14.3590  -14.9010 C.ar   90  PHE90      -0.0000
    114  N         57.7240  -11.5650  -12.2490 N.am   91  CYS91      -0.1954
    115  CA        58.4130  -11.8160  -10.9710 C.3    91  CYS91       0.1843
    116  C         59.4790  -12.8990  -11.0760 C.2    91  CYS91       0.2625
    117  O         59.2200  -14.0020  -11.5640 O.2    91  CYS91      -0.2714
    118  CB        57.4260  -12.1710   -9.8680 C.3    91  CYS91       0.0997
    119  SG        56.4250  -10.7830   -9.3810 S.3    91  CYS91      -0.0797
    120  N         60.6740  -12.5760  -10.5930 N.am   92  GLU92      -0.1963
    121  CA        61.8740  -13.3580  -10.9130 C.3    92  GLU92       0.1733
    122  C         61.9110  -14.6990  -10.1880 C.2    92  GLU92       0.2616
    123  O         62.5250  -15.6430  -10.6700 O.2    92  GLU92      -0.2715
    124  CB        63.1660  -12.5480  -10.6540 C.3    92  GLU92       0.0429
    125  CG        63.2280  -11.1600  -11.3580 C.3    92  GLU92       0.1163
    126  CD        62.2750  -10.0930  -10.7680 C.2    92  GLU92       0.3649
    127  OE1       61.5220  -10.4010   -9.8250 O.co2  92  GLU92      -0.2457
    128  OE2       62.2720   -8.9360  -11.2490 O.co2  92  GLU92      -0.2457
    129  N         61.2330  -14.7780   -9.0440 N.am   93  HIS93      -0.1959
    130  CA        61.2630  -15.9720   -8.2050 C.3    93  HIS93       0.1787
    131  C         59.8830  -16.3570   -7.7410 C.2    93  HIS93       0.2620
    132  O         58.9700  -15.5460   -7.7850 O.2    93  HIS93      -0.2715
    133  CB        62.1310  -15.7340   -6.9680 C.3    93  HIS93       0.0785
    134  CG        63.5710  -15.5110   -7.2900 C.ar   93  HIS93       0.0821
    135  ND1       64.1560  -14.2630   -7.2580 N.ar   93  HIS93      -0.2267
    136  CD2       64.5360  -16.3700   -7.6920 C.ar   93  HIS93       0.1154
    137  CE1       65.4250  -14.3640   -7.6070 C.ar   93  HIS93       0.1986
    138  NE2       65.6800  -15.6320   -7.8800 N.ar   93  HIS93      -0.2212
    139  N         59.7250  -17.5970   -7.2940 N.am   94  ASP94      -0.1971
    140  CA        58.5850  -17.9060   -6.4490 C.3    94  ASP94       0.1709
    141  C         58.9600  -18.7700   -5.2580 C.2    94  ASP94       0.2293
    142  O         59.8070  -19.6570   -5.3380 O.2    94  ASP94      -0.2864
    143  CB        57.3910  -18.4480   -7.2280 C.3    94  ASP94       0.1436
    144  CG        57.5720  -19.8600   -7.6590 C.2    94  ASP94       0.3671
    145  OD1       57.5540  -20.1020   -8.8850 O.co2  94  ASP94      -0.2456
    146  OD2       57.7140  -20.7220   -6.7710 O.co2  94  ASP94      -0.2456
    147  N         53.5180  -21.7300   -3.5510 N.3   138  ALA138     -0.1231
    148  CA        53.7200  -21.6720   -4.9890 C.3   138  ALA138      0.1694
    149  C         53.0890  -20.4170   -5.6190 C.2   138  ALA138      0.2592
    150  O         53.3990  -20.0630   -6.7600 O.2   138  ALA138     -0.2718
    151  CB        53.2080  -22.9540   -5.6380 C.3   138  ALA138      0.0304
    152  N         52.2230  -19.7460   -4.8560 N.am  139  ASN139     -0.1974
    153  CA        51.4790  -18.5690   -5.3180 C.3   139  ASN139      0.1688
    154  C         52.0050  -17.2720   -4.6980 C.2   139  ASN139      0.2292
    155  O         51.3920  -16.1990   -4.7850 O.2   139  ASN139     -0.2864
    156  CB        49.9890  -18.7290   -5.0090 C.3   139  ASN139      0.1181
    157  CG        49.2710  -19.5780   -6.0310 C.2   139  ASN139      0.2629
    158  OD1       49.8070  -19.8770   -7.0980 O.2   139  ASN139     -0.2716
    159  ND2       48.0450  -19.9650   -5.7160 N.am  139  ASN139     -0.0877
    160  N         55.0500  -14.9760   -5.0030 N.3   141  LEU141     -0.1245
    161  CA        56.2190  -14.6830   -5.8190 C.3   141  LEU141      0.1561
    162  C         57.0950  -13.6800   -5.1140 C.2   141  LEU141      0.2260
    163  O         56.6070  -12.8810   -4.3210 O.2   141  LEU141     -0.2867
    164  CB        55.8070  -14.0950   -7.1670 C.3   141  LEU141      0.0270
    165  CG        54.6860  -14.8410   -7.8800 C.3   141  LEU141      0.0019
    166  CD1       54.5030  -14.3130   -9.2960 C.3   141  LEU141      0.0001
    167  CD2       54.9950  -16.3180   -7.8780 C.3   141  LEU141      0.0001
    168  N         49.7300  -14.1250   -5.7870 N.3   151  ALA151     -0.1231
    169  CA        49.3420  -14.3930   -7.1660 C.3   151  ALA151      0.1694
    170  C         48.2260  -15.4290   -7.3250 C.2   151  ALA151      0.2592
    171  O         47.7780  -16.0410   -6.3540 O.2   151  ALA151     -0.2718
    172  CB        50.5670  -14.7920   -7.9790 C.3   151  ALA151      0.0304
    173  N         47.8010  -15.6240   -8.5720 N.am  152  ASP152     -0.1974
    174  CA        46.6750  -16.4920   -8.9040 C.3   152  ASP152      0.1709
    175  C         45.4210  -16.0610   -8.1610 C.2   152  ASP152      0.2293
    176  O         45.0680  -16.6120   -7.1040 O.2   152  ASP152     -0.2864
    177  CB        46.9720  -17.9750   -8.6380 C.3   152  ASP152      0.1436
    178  CG        46.1080  -18.9080   -9.4920 C.2   152  ASP152      0.3671
    179  OD1       45.2820  -19.6630   -8.9290 O.co2 152  ASP152     -0.2456
    180  OD2       46.2500  -18.8800  -10.7340 O.co2 152  ASP152     -0.2456
@<TRIPOS>BOND
     1    14    13    1
     2    13    12    1
     3     1     2    1
     4     2     3    1
     5     2     5    1
     6    57    56    2
     7    12    11    1
     8     6     3   am
     9     6     7    1
    10     3     4    2
    11    56    55    1
    12    10     7    1
    13    10    11    1
    14     7     8    1
    15    71    70    2
    16    70    69    1
    17    54    55    1
    18    55    58    1
    19    47    48    1
    20    58    59    1
    21    49    50    2
    22    49    48    1
    23    68    69    1
    24     8     9    2
    25     8    15   am
    26    69    72    1
    27    59    60    1
    28    60    61    1
    29    48    51    1
    30    65    66    2
    31    65    64    1
    32    15    16    1
    33    61    62    1
    34    26    25    2
    35    64    63    1
    36    64    67    1
    37    72    73    1
    38    51    53    1
    39    51    52    1
    40    35    33   am
    41    21    19    1
    42    84    85    1
    43    16    19    1
    44    16    17    1
    45    25    27   am
    46    25    24    1
    47    87    86    2
    48    45    43   ar
    49    45    46   ar
    50    73    74    1
    51    23    17   am
    52    23    24    1
    53    27    28    1
    54    19    20    1
    55    43    41   ar
    56    20    22    1
    57    33    34    2
    58    33    32    1
    59    17    18    2
    60    86    85    1
    61    86    95   am
    62    85    88    1
    63    46    44   ar
    64   109   111   ar
    65   109   108   ar
    66   107   108    1
    67   107   104    1
    68   111   113   ar
    69    91    93   ar
    70    91    89   ar
    71   108   110   ar
    72    74    75    1
    73    93    94   ar
    74    37    38    1
    75    37    36    1
    76    37    40    1
    77    28    31    1
    78    28    29    1
    79   113   112   ar
    80    32    31    1
    81    38    39    2
    82   110   112   ar
    83    41    40    1
    84    41    42   ar
    85    95    96    1
    86    88    89    1
    87   103   104    1
    88   103    97   am
    89    89    90   ar
    90    96    97    1
    91    96    99    1
    92   101   100   ar
    93   104   105    1
    94    44    42   ar
    95    97    98    2
    96    94    92   ar
    97    75    76    1
    98    29    30    2
    99    90    92   ar
   100   100    99    1
   101   100   102   ar
   102   105   106    2
   103   105   114   am
   104   114   115    1
   105   117   116    2
   106   125   126    1
   107   125   124    1
   108   128   126   ar
   109   116   115    1
   110   116   120   am
   111   115   118    1
   112   121   124    1
   113   121   120    1
   114   121   122    1
   115   126   127   ar
   116   180   178   ar
   117   123   122    2
   118   122   129   am
   119   118   119    1
   120    82    81    1
   121   178   179   ar
   122   178   177    1
   123    83    81    1
   124   166   165    1
   125    79    80    2
   126    79    78    1
   127   129   130    1
   128   174   177    1
   129   174   173    1
   130   174   175    1
   131   145   144   ar
   132    81    78    1
   133   173   170   am
   134    78    77    1
   135   130   131    1
   136   130   133    1
   137   175   176    2
   138   172   169    1
   139   138   136   ar
   140   138   137   ar
   141   165   167    1
   142   165   164    1
   143   132   131    2
   144   131   139   am
   145   136   134   ar
   146   144   143    1
   147   144   146   ar
   148   137   135   ar
   149   170   169    1
   150   170   171    2
   151   139   140    1
   152   134   135   ar
   153   134   133    1
   154   143   140    1
   155   164   161    1
   156   169   168    1
   157   158   157    2
   158   150   149    2
   159   140   141    1
   160   157   159   am
   161   157   156    1
   162   161   162    1
   163   161   160    1
   164   151   148    1
   165   149   148    1
   166   149   152   am
   167   142   141    2
   168   153   156    1
   169   153   152    1
   170   153   154    1
   171   162   163    2
   172   148   147    1
   173   155   154    2
