@<TRIPOS>MOLECULE
tmp/3lqaB00.pdb
 110 108 0 0 0
SMALL
GASTEIGER

@<TRIPOS>ATOM
      1  N        -62.5600  -19.8340    9.9530 N.3    53  PHE53      -0.1227
      2  CA       -63.7290  -19.8860    9.1350 C.3    53  PHE53       0.1736
      3  C        -64.0980  -21.3570    9.3750 C.2    53  PHE53       0.2595
      4  O        -63.2530  -22.2590    9.3040 O.2    53  PHE53      -0.2718
      5  CB       -63.4620  -19.5450    7.6560 C.3    53  PHE53       0.0547
      6  CG       -64.7180  -19.5410    6.8190 C.ar   53  PHE53      -0.0202
      7  CD1      -65.4230  -18.3370    6.7040 C.ar   53  PHE53      -0.0042
      8  CD2      -65.2360  -20.6750    6.2130 C.ar   53  PHE53      -0.0042
      9  CE1      -66.6260  -18.2530    6.0180 C.ar   53  PHE53      -0.0003
     10  CE2      -66.4650  -20.5940    5.5080 C.ar   53  PHE53      -0.0003
     11  CZ       -67.1560  -19.3800    5.4180 C.ar   53  PHE53      -0.0000
     12  N        -65.3790  -21.5680    9.6420 N.am   54  ASP54      -0.1960
     13  CA       -65.9910  -22.8610    9.9550 C.3    54  ASP54       0.1825
     14  C        -67.1760  -22.8770    8.9980 C.2    54  ASP54       0.2464
     15  O        -68.3000  -22.5330    9.3490 O.2    54  ASP54      -0.2730
     16  CB       -66.4760  -22.9560   11.4170 C.3    54  ASP54       0.1450
     17  CG       -65.3310  -23.0140   12.4400 C.2    54  ASP54       0.3671
     18  OD1      -64.2980  -22.3070   12.2850 O.co2  54  ASP54      -0.2456
     19  OD2      -65.4890  -23.7900   13.4190 O.co2  54  ASP54      -0.2456
     20  N        -66.8790  -23.2190    7.7300 N.am   55  PRO55      -0.2727
     21  CA       -67.6080  -23.3650    6.4670 C.3    55  PRO55       0.1402
     22  C        -69.0750  -23.0560    6.4120 C.2    55  PRO55       0.2269
     23  O        -69.8770  -23.9700    6.2800 O.2    55  PRO55      -0.2865
     24  CB       -67.3070  -24.8070    6.0340 C.3    55  PRO55       0.0296
     25  CG       -66.7600  -25.4510    7.2610 C.3    55  PRO55       0.0237
     26  CD       -65.9330  -24.3410    7.8240 C.3    55  PRO55       0.0939
     27  N        -71.2850  -25.9800    0.5180 N.3    95  LYS95      -0.1245
     28  CA       -70.2240  -25.8850    1.5120 C.3    95  LYS95       0.1561
     29  C        -68.9930  -25.6910    0.6210 C.2    95  LYS95       0.2260
     30  O        -68.6980  -26.4980   -0.2510 O.2    95  LYS95      -0.2867
     31  CB       -70.1550  -27.1640    2.3680 C.3    95  LYS95       0.0271
     32  CG       -71.4440  -27.4590    3.1270 C.3    95  LYS95       0.0035
     33  CD       -71.1750  -27.9250    4.5450 C.3    95  LYS95       0.0206
     34  CE       -70.4770  -26.8570    5.4050 C.3    95  LYS95       0.1093
     35  NZ       -70.3940  -27.2300    6.8700 N.3    95  LYS95      -0.1314
     36  N        -65.0920  -25.4740    0.3400 N.3    97  VAL97      -0.1245
     37  CA       -63.8570  -25.9130    0.9750 C.3    97  VAL97       0.1561
     38  C        -62.8720  -25.6160   -0.0800 C.2    97  VAL97       0.2260
     39  O        -63.1960  -25.8330   -1.2760 O.2    97  VAL97      -0.2867
     40  CB       -63.8780  -27.3920    1.2140 C.3    97  VAL97       0.0252
     41  CG1      -64.8970  -27.7160    2.3230 C.3    97  VAL97       0.0019
     42  CG2      -64.3040  -28.0930   -0.1500 C.3    97  VAL97       0.0019
     43  N        -63.8330  -31.8110   -0.2150 N.3   104  LEU104     -0.1231
     44  CA       -64.2810  -32.0790    1.1760 C.3   104  LEU104      0.1693
     45  C        -65.6940  -31.7010    1.7550 C.2   104  LEU104      0.2592
     46  O        -66.2100  -30.6420    1.4480 O.2   104  LEU104     -0.2718
     47  CB       -63.1980  -31.5000    2.0780 C.3   104  LEU104      0.0284
     48  CG       -61.8290  -32.1250    1.8550 C.3   104  LEU104      0.0019
     49  CD1      -60.8600  -31.4930    2.7770 C.3   104  LEU104      0.0001
     50  CD2      -61.8790  -33.5890    2.0750 C.3   104  LEU104      0.0001
     51  N        -66.3010  -32.5510    2.6010 N.am  105  ASN105     -0.1974
     52  CA       -67.6450  -32.3150    3.2110 C.3   105  ASN105      0.1688
     53  C        -68.6680  -31.9120    1.9950 C.2   105  ASN105      0.2292
     54  O        -69.5110  -31.0150    2.1510 O.2   105  ASN105     -0.2864
     55  CB       -67.7840  -31.3350    4.5940 C.3   105  ASN105      0.1181
     56  CG       -67.1440  -31.9440    6.1470 C.2   105  ASN105      0.2629
     57  OD1      -66.9510  -33.1700    6.2390 O.2   105  ASN105     -0.2716
     58  ND2      -67.2240  -31.1550    7.3390 N.am  105  ASN105     -0.0877
     59  N        -55.6280  -28.1340    2.5470 N.3   188  PHE188     -0.1227
     60  CA       -57.0470  -27.9050    2.9490 C.3   188  PHE188      0.1736
     61  C        -57.1840  -27.0190    4.1660 C.2   188  PHE188      0.2595
     62  O        -56.2470  -26.9040    4.9130 O.2   188  PHE188     -0.2718
     63  CB       -57.8150  -29.1810    3.2140 C.3   188  PHE188      0.0547
     64  CG       -57.3930  -29.8760    4.4180 C.ar  188  PHE188     -0.0202
     65  CD1      -58.0050  -29.5800    5.6190 C.ar  188  PHE188     -0.0042
     66  CD2      -56.3680  -30.8020    4.3680 C.ar  188  PHE188     -0.0042
     67  CE1      -57.5960  -30.1980    6.7650 C.ar  188  PHE188     -0.0003
     68  CE2      -55.9550  -31.4230    5.5010 C.ar  188  PHE188     -0.0003
     69  CZ       -56.5620  -31.1270    6.7160 C.ar  188  PHE188     -0.0000
     70  N        -58.3430  -26.4140    4.3920 N.am  189  ASN189     -0.1960
     71  CA       -58.4760  -25.5280    5.5380 C.3   189  ASN189      0.1819
     72  C        -59.3640  -26.0350    6.6810 C.2   189  ASN189      0.2621
     73  O        -60.5750  -26.1200    6.5300 O.2   189  ASN189     -0.2715
     74  CB       -58.9960  -24.1970    4.9770 C.3   189  ASN189      0.1195
     75  CG       -59.2020  -23.1390    6.0170 C.2   189  ASN189      0.2630
     76  OD1      -60.2980  -22.9950    6.5580 O.2   189  ASN189     -0.2716
     77  ND2      -58.1630  -22.3820    6.3000 N.am  189  ASN189     -0.0877
     78  N        -58.7550  -26.3790    7.8250 N.am  190  CYS190     -0.1968
     79  CA       -59.4850  -26.7830    9.0520 C.3   190  CYS190      0.1712
     80  C        -59.2210  -25.9370   10.3150 C.2   190  CYS190      0.2296
     81  O        -58.2010  -26.1050   10.9690 O.2   190  CYS190     -0.2864
     82  CB       -59.1820  -28.2560    9.4250 C.3   190  CYS190      0.0983
     83  SG       -60.6200  -29.1410   10.1020 S.3   190  CYS190     -0.0798
     84  N        -58.5460  -31.0090   16.1370 N.3   240  THR240     -0.1203
     85  CA       -59.4330  -32.0110   15.5870 C.3   240  THR240      0.1994
     86  C        -60.1490  -31.7600   14.2750 C.2   240  THR240      0.2618
     87  O        -60.9390  -30.8220   14.1570 O.2   240  THR240     -0.2717
     88  CB       -60.5770  -32.1830   16.5950 C.3   240  THR240      0.1784
     89  OG1      -61.7680  -32.6040   15.9180 O.3   240  THR240     -0.2211
     90  CG2      -60.8830  -30.8230   17.2660 C.3   240  THR240      0.0376
     91  N        -59.8860  -32.6280   13.2950 N.am  241  CYS241     -0.1955
     92  CA       -60.6090  -32.5720   12.0220 C.3   241  CYS241      0.1843
     93  C        -61.2220  -33.9120   11.6530 C.2   241  CYS241      0.2625
     94  O        -60.5560  -34.9480   11.7080 O.2   241  CYS241     -0.2714
     95  CB       -59.7120  -32.0640   10.8530 C.3   241  CYS241      0.0997
     96  SG       -60.5170  -31.0870    9.5220 S.3   241  CYS241     -0.0797
     97  N        -62.5080  -33.8740   11.3150 N.am  242  ILE242     -0.1963
     98  CA       -63.2260  -35.0230   10.7930 C.3   242  ILE242      0.1727
     99  C        -63.6960  -34.4300    9.4770 C.2   242  ILE242      0.2616
    100  O        -64.2210  -33.3110    9.4180 O.2   242  ILE242     -0.2715
    101  CB       -64.4790  -35.4600   11.6250 C.3   242  ILE242      0.0290
    102  CG1      -65.2570  -34.2290   12.1200 C.3   242  ILE242      0.0022
    103  CG2      -64.0820  -36.4010   12.7200 C.3   242  ILE242      0.0023
    104  CD1      -64.8240  -33.6870   13.4940 C.3   242  ILE242      0.0001
    105  N        -63.4590  -35.1540    8.4140 N.am  243  SER243     -0.1950
    106  CA       -63.8780  -34.7520    7.0910 C.3   243  SER243      0.1924
    107  C        -64.3700  -35.9850    6.3860 C.2   243  SER243      0.2314
    108  O        -64.0030  -37.0950    6.7630 O.2   243  SER243     -0.2863
    109  CB       -62.7520  -34.0200    6.3520 C.3   243  SER243      0.2116
    110  OG       -62.3840  -32.8410    7.0650 O.3   243  SER243     -0.2180
@<TRIPOS>BOND
     1    39    38    2
     2    30    29    2
     3    43    44    1
     4    42    40    1
     5    38    37    1
     6    36    37    1
     7    27    28    1
     8    29    28    1
     9    37    40    1
    10    44    45    1
    11    44    47    1
    12    40    41    1
    13    46    45    2
    14    28    31    1
    15    45    51   am
    16    48    50    1
    17    48    47    1
    18    48    49    1
    19    53    54    2
    20    53    52    1
    21    31    32    1
    22    59    60    1
    23    51    52    1
    24    60    63    1
    25    60    61    1
    26    32    33    1
    27    52    55    1
    28    63    64    1
    29    61    70   am
    30    61    62    2
    31    66    64   ar
    32    66    68   ar
    33    70    71    1
    34    64    65   ar
    35    33    34    1
    36    55    56    1
    37    74    71    1
    38    74    75    1
    39    34    35    1
    40    11    10   ar
    41    11     9   ar
    42    68    69   ar
    43    10     8   ar
    44    71    72    1
    45    65    67   ar
    46    75    77   am
    47    75    76    2
    48     9     7   ar
    49    24    21    1
    50    24    25    1
    51    56    57    2
    52    56    58   am
    53     8     6   ar
    54    23    22    2
    55   109   110    1
    56   109   106    1
    57   107   108    2
    58   107   106    1
    59    22    21    1
    60    21    20    1
    61    73    72    2
    62    72    78   am
    63     7     6   ar
    64    69    67   ar
    65     6     5    1
    66   106   105    1
    67    25    26    1
    68     5     2    1
    69    20    26    1
    70    20    14   am
    71    78    79    1
    72   105    99   am
    73    14    15    2
    74    14    13    1
    75    79    82    1
    76    79    80    1
    77     2     3    1
    78     2     1    1
    79     4     3    2
    80     3    12   am
    81   100    99    2
    82    82    83    1
    83    99    98    1
    84    96    83    1
    85    96    95    1
    86    12    13    1
    87    13    16    1
    88    80    81    2
    89    98    97    1
    90    98   101    1
    91    95    92    1
    92    97    93   am
    93    16    17    1
    94   101   102    1
    95   101   103    1
    96    93    94    2
    97    93    92    1
    98    92    91    1
    99   102   104    1
   100    18    17   ar
   101    17    19   ar
   102    91    86   am
   103    87    86    2
   104    86    85    1
   105    85    84    1
   106    85    88    1
   107    89    88    1
   108    88    90    1
