@<TRIPOS>MOLECULE
tmp/3lqfD01.pdb
 129 122 0 0 0
SMALL
GASTEIGER

@<TRIPOS>ATOM
      1  N         40.9600   12.9800   10.4550 N.3    94  GLY94      -0.1210
      2  CA        39.9410   13.9500   10.8330 C.3    94  GLY94       0.1956
      3  C         40.3560   15.3090   10.3650 C.2    94  GLY94       0.2612
      4  O         41.5360   15.5990   10.2810 O.2    94  GLY94      -0.2717
      5  N         39.3970   16.1530   10.0370 N.am   95  ILE95      -0.1965
      6  CA        39.7400   17.5270    9.6990 C.3    95  ILE95       0.1727
      7  C         38.8010   18.4700   10.4210 C.2    95  ILE95       0.2616
      8  O         37.7290   18.0680   10.8500 O.2    95  ILE95      -0.2715
      9  CB        39.6310   17.7820    8.1780 C.3    95  ILE95       0.0290
     10  CG1       38.1980   17.5690    7.7130 C.3    95  ILE95       0.0022
     11  CG2       40.6180   16.9040    7.3840 C.3    95  ILE95       0.0023
     12  CD1       37.9080   18.2020    6.4190 C.3    95  ILE95       0.0001
     13  N         39.2210   19.7220   10.5470 N.am   96  ALA96      -0.1977
     14  CA        38.3870   20.7710   11.1130 C.3    96  ALA96       0.1597
     15  C         38.5520   21.9830   10.2090 C.2    96  ALA96       0.2287
     16  O         39.6780   22.3110    9.8390 O.2    96  ALA96      -0.2864
     17  CB        38.8380   21.1100   12.5130 C.3    96  ALA96       0.0319
     18  N         37.1440   26.0350   10.0480 N.3    98  LEU98      -0.1245
     19  CA        36.3950   27.1310   10.6650 C.3    98  LEU98       0.1561
     20  C         35.4370   27.7160    9.6280 C.2    98  LEU98       0.2260
     21  O         35.8130   27.9190    8.4700 O.2    98  LEU98      -0.2867
     22  CB        37.3400   28.2170   11.2010 C.3    98  LEU98       0.0270
     23  CG        38.3640   27.7900   12.2650 C.3    98  LEU98       0.0019
     24  CD1       39.1270   28.9790   12.8220 C.3    98  LEU98       0.0001
     25  CD2       37.6950   26.9760   13.4120 C.3    98  LEU98       0.0001
     26  N         33.9680   17.8650   21.0130 N.3   146  SER146     -0.1217
     27  CA        33.0860   18.5440   20.0560 C.3   146  SER146      0.1889
     28  C         31.8950   17.7110   19.6600 C.2   146  SER146      0.2288
     29  O         31.0150   18.1880   18.9600 O.2   146  SER146     -0.2866
     30  CB        33.8690   18.9220   18.7860 C.3   146  SER146      0.2089
     31  OG        34.8720   19.8290   19.1360 O.3   146  SER146     -0.2183
     32  N         32.5570   24.1000   20.8700 N.3   151  ASN151     -0.1240
     33  CA        33.7620   24.8830   21.1690 C.3   151  ASN151      0.1653
     34  C         33.4440   26.3630   21.2110 C.2   151  ASN151      0.2266
     35  O         32.4200   26.8120   20.6880 O.2   151  ASN151     -0.2867
     36  CB        34.8710   24.6580   20.1150 C.3   151  ASN151      0.1155
     37  CG        35.3500   23.1970   20.0480 C.2   151  ASN151      0.2627
     38  OD1       36.5040   22.8950   20.3670 O.2   151  ASN151     -0.2716
     39  ND2       34.4910   22.3150   19.5980 N.am  151  ASN151     -0.0877
     40  N         35.5090   30.1410   18.5490 N.3   154  GLN154     -0.1245
     41  CA        35.4420   29.8500   17.1140 C.3   154  GLN154      0.1566
     42  C         34.1860   29.0630   16.7010 C.2   154  GLN154      0.2260
     43  O         33.6060   28.3120   17.5070 O.2   154  GLN154     -0.2867
     44  CB        36.7200   29.1350   16.6350 C.3   154  GLN154      0.0367
     45  CG        36.8230   27.6230   16.9700 C.3   154  GLN154      0.0905
     46  CD        37.3870   27.3130   18.3540 C.2   154  GLN154      0.2608
     47  OE1       37.8080   26.1730   18.6270 O.2   154  GLN154     -0.2717
     48  NE2       37.4270   28.3060   19.2170 N.am  154  GLN154     -0.0878
     49  N         32.4580   26.2990   13.9570 N.3   156  ALA156     -0.1245
     50  CA        32.7330   25.1930   13.0580 C.3   156  ALA156      0.1562
     51  C         31.6090   24.1950   13.2160 C.2   156  ALA156      0.2260
     52  O         31.8400   23.0660   13.6860 O.2   156  ALA156     -0.2867
     53  CB        34.1060   24.5310   13.4040 C.3   156  ALA156      0.0290
     54  N         32.0320   20.5570   12.2130 N.3   159  TYR159     -0.1227
     55  CA        32.8980   19.7310   13.0550 C.3   159  TYR159      0.1736
     56  C         32.0710   19.1490   14.2060 C.2   159  TYR159      0.2595
     57  O         32.1370   17.9640   14.4820 O.2   159  TYR159     -0.2718
     58  CB        34.0720   20.5500   13.5950 C.3   159  TYR159      0.0548
     59  CG        35.1530   19.7070   14.2480 C.ar  159  TYR159     -0.0200
     60  CD1       36.0650   18.9860   13.4740 C.ar  159  TYR159     -0.0009
     61  CD2       35.2380   19.6070   15.6370 C.ar  159  TYR159     -0.0009
     62  CE1       37.0560   18.2150   14.0660 C.ar  159  TYR159      0.0417
     63  CE2       36.2240   18.8320   16.2460 C.ar  159  TYR159      0.0417
     64  CZ        37.1280   18.1400   15.4490 C.ar  159  TYR159      0.1957
     65  OH        38.1300   17.3660   16.0110 O.3   159  TYR159     -0.2866
     66  N         31.3010   19.9940   14.8860 N.am  160  MET160     -0.1979
     67  CA        30.3930   19.5260   15.9620 C.3   160  MET160      0.1605
     68  C         29.4180   18.4610   15.4740 C.2   160  MET160      0.2287
     69  O         29.3150   17.3920   16.0660 O.2   160  MET160     -0.2864
     70  CB        29.5720   20.6740   16.5550 C.3   160  MET160      0.0413
     71  CG        30.3370   21.9740   16.8260 C.3   160  MET160      0.0598
     72  SD        31.8380   21.8710   17.8340 S.3   160  MET160     -0.1393
     73  CE        32.8320   23.0370   16.8860 C.3   160  MET160      0.0692
     74  N         41.4820   19.8780   23.6700 N.3   191  TYR191     -0.1227
     75  CA        42.4740   20.4190   22.7670 C.3   191  TYR191      0.1736
     76  C         43.7810   19.6680   22.9490 C.2   191  TYR191      0.2595
     77  O         44.2360   19.4460   24.0800 O.2   191  TYR191     -0.2718
     78  CB        42.6870   21.8900   23.0580 C.3   191  TYR191      0.0548
     79  CG        41.4890   22.7250   22.6670 C.ar  191  TYR191     -0.0200
     80  CD1       41.1980   22.9500   21.3150 C.ar  191  TYR191     -0.0009
     81  CD2       40.6460   23.2740   23.6330 C.ar  191  TYR191     -0.0009
     82  CE1       40.1110   23.6900   20.9250 C.ar  191  TYR191      0.0417
     83  CE2       39.5280   24.0470   23.2430 C.ar  191  TYR191      0.0417
     84  CZ        39.2870   24.2490   21.8840 C.ar  191  TYR191      0.1957
     85  OH        38.2090   24.9800   21.4580 O.3   191  TYR191     -0.2866
     86  N         44.3890   19.2900   21.8300 N.am  192  VAL192     -0.1980
     87  CA        45.5880   18.4780   21.8790 C.3   192  VAL192      0.1595
     88  C         46.7170   19.2340   21.2000 C.2   192  VAL192      0.2287
     89  O         46.4970   19.8630   20.1690 O.2   192  VAL192     -0.2864
     90  CB        45.3410   17.1230   21.2090 C.3   192  VAL192      0.0276
     91  CG1       46.6150   16.2370   21.2390 C.3   192  VAL192      0.0022
     92  CG2       44.1990   16.4150   21.9160 C.3   192  VAL192      0.0022
     93  N         49.5700   21.2080   14.4330 N.3   196  MET196     -0.1230
     94  CA        48.4270   21.9520   13.9200 C.3   196  MET196      0.1702
     95  C         47.8200   22.8720   14.9880 C.2   196  MET196      0.2593
     96  O         47.7460   24.0890   14.8000 O.2   196  MET196     -0.2718
     97  CB        47.3800   20.9810   13.3670 C.3   196  MET196      0.0401
     98  CG        46.7540   21.4050   12.0400 C.3   196  MET196      0.0596
     99  SD        45.1130   20.6670   11.8040 S.3   196  MET196     -0.1393
    100  CE        44.0530   21.8180   12.7090 C.3   196  MET196      0.0692
    101  N         47.4170   22.3170   16.1280 N.am  197  THR197     -0.1953
    102  CA        46.7820   23.1590   17.1490 C.3   197  THR197      0.1897
    103  C         47.7490   24.0480   17.9480 C.2   197  THR197      0.2313
    104  O         47.3490   25.0880   18.4660 O.2   197  THR197     -0.2863
    105  CB        45.7050   22.4120   18.0100 C.3   197  THR197      0.1794
    106  OG1       45.9830   22.5630   19.4080 O.3   197  THR197     -0.2208
    107  CG2       45.6280   20.9610   17.6490 C.3   197  THR197      0.0378
    108  N         48.0160   27.7040   16.8580 N.3   200  MET200     -0.1245
    109  CA        46.9750   28.6270   17.3260 C.3   200  MET200      0.1570
    110  C         47.3740   29.5610   18.4870 C.2   200  MET200      0.2261
    111  O         46.5470   30.3030   19.0010 O.2   200  MET200     -0.2867
    112  CB        45.7000   27.8450   17.6650 C.3   200  MET200      0.0387
    113  CG        44.5320   28.1280   16.7460 C.3   200  MET200      0.0595
    114  SD        44.9230   28.0620   14.9870 S.3   200  MET200     -0.1393
    115  CE        43.2800   28.2590   14.2800 C.3   200  MET200      0.0692
    116  N         40.6530   28.9250   25.2540 N.3   210  TRP210     -0.1241
    117  CA        40.7180   27.4630   25.2880 C.3   210  TRP210      0.1605
    118  C         41.2720   26.9650   26.6230 C.2   210  TRP210      0.2264
    119  O         40.6730   26.0910   27.2820 O.2   210  TRP210     -0.2867
    120  CB        41.5890   26.9490   24.1470 C.3   210  TRP210      0.0550
    121  CG        41.0190   27.1830   22.7830 C.ar  210  TRP210      0.0003
    122  CD1       39.7750   27.6890   22.4690 C.ar  210  TRP210      0.0946
    123  CD2       41.6430   26.8620   21.5440 C.ar  210  TRP210      0.0152
    124  NE1       39.6100   27.7240   21.1040 N.ar  210  TRP210     -0.2442
    125  CE2       40.7370   27.2180   20.5120 C.ar  210  TRP210      0.0810
    126  CE3       42.8770   26.2960   21.2000 C.ar  210  TRP210      0.0012
    127  CZ2       41.0260   27.0230   19.1610 C.ar  210  TRP210      0.0191
    128  CZ3       43.1720   26.1180   19.8460 C.ar  210  TRP210      0.0001
    129  CH2       42.2440   26.4830   18.8460 C.ar  210  TRP210      0.0015
@<TRIPOS>BOND
     1    12    10    1
     2    11     9    1
     3    10     9    1
     4     9     6    1
     5    21    20    2
     6    20    19    1
     7     6     5    1
     8     6     7    1
     9    16    15    2
    10     5     3   am
    11    18    19    1
    12    15    14    1
    13     4     3    2
    14     3     2    1
    15     7    13   am
    16     7     8    2
    17     1     2    1
    18    13    14    1
    19    19    22    1
    20    14    17    1
    21    22    23    1
    22    99    98    1
    23    99   100    1
    24    98    97    1
    25    54    55    1
    26    23    24    1
    27    23    25    1
    28    55    58    1
    29    55    56    1
    30    50    51    1
    31    50    53    1
    32    50    49    1
    33    51    52    2
    34    97    94    1
    35    60    62   ar
    36    60    59   ar
    37    58    59    1
    38    94    93    1
    39    94    95    1
    40    62    64   ar
    41    56    57    2
    42    56    66   am
    43    59    61   ar
    44   115   114    1
    45    96    95    2
    46    66    67    1
    47   114   113    1
    48    95   101   am
    49    64    65    1
    50    64    63   ar
    51    68    67    1
    52    68    69    2
    53    61    63   ar
    54    67    70    1
    55   101   102    1
    56    70    71    1
    57    44    45    1
    58    44    41    1
    59    42    41    1
    60    42    43    2
    61   113   112    1
    62    71    72    1
    63   108   109    1
    64    73    72    1
    65    45    46    1
    66    41    40    1
    67   102   103    1
    68   102   105    1
    69   109   112    1
    70   109   110    1
    71   107   105    1
    72   103   104    2
    73   105   106    1
    74    46    47    2
    75    46    48   am
    76   110   111    2
    77    30    31    1
    78    30    27    1
    79   129   127   ar
    80   129   128   ar
    81    29    28    2
    82   127   125   ar
    83    39    37   am
    84    28    27    1
    85   128   126   ar
    86    37    36    1
    87    37    38    2
    88    27    26    1
    89    36    33    1
    90    89    88    2
    91   125   124   ar
    92   125   123   ar
    93    35    34    2
    94    32    33    1
    95    82    80   ar
    96    82    84   ar
    97   124   122   ar
    98    33    34    1
    99    88    87    1
   100   126   123   ar
   101    90    91    1
   102    90    87    1
   103    90    92    1
   104    80    79   ar
   105    85    84    1
   106   123   121   ar
   107    86    87    1
   108    86    76   am
   109    84    83   ar
   110   122   121   ar
   111    79    78    1
   112    79    81   ar
   113    75    76    1
   114    75    78    1
   115    75    74    1
   116   121   120    1
   117    76    77    2
   118    83    81   ar
   119   120   117    1
   120   116   117    1
   121   117   118    1
   122   118   119    2
