@<TRIPOS>MOLECULE
tmp/3lqiB00.pdb
 190 189 0 0 0
SMALL
GASTEIGER

@<TRIPOS>ATOM
      1  N         25.6190   11.2630  -17.8040 N.3    12  TYR12      -0.1227
      2  CA        25.4090    9.8230  -17.7650 C.3    12  TYR12       0.1736
      3  C         26.4620    9.1520  -18.6390 C.2    12  TYR12       0.2595
      4  O         27.0640    9.7970  -19.4970 O.2    12  TYR12      -0.2718
      5  CB        24.0180    9.4660  -18.2910 C.3    12  TYR12       0.0548
      6  CG        23.7360    9.9790  -19.6870 C.ar   12  TYR12      -0.0200
      7  CD1       23.0020   11.1500  -19.8880 C.ar   12  TYR12      -0.0009
      8  CD2       24.2000    9.2940  -20.8100 C.ar   12  TYR12      -0.0009
      9  CE1       22.7360   11.6220  -21.1710 C.ar   12  TYR12       0.0417
     10  CE2       23.9420    9.7570  -22.0960 C.ar   12  TYR12       0.0417
     11  CZ        23.2080   10.9190  -22.2680 C.ar   12  TYR12       0.1957
     12  OH        22.9350   11.3710  -23.5350 O.3    12  TYR12      -0.2866
     13  N         26.6730    7.8580  -18.4240 N.am   13  ASP13      -0.1960
     14  CA        27.6500    7.1030  -19.2050 C.3    13  ASP13       0.1840
     15  C         26.9310    6.2560  -20.2530 C.2    13  ASP13       0.2622
     16  O         25.9460    5.5830  -19.9520 O.2    13  ASP13      -0.2715
     17  CB        28.4710    6.1880  -18.2900 C.3    13  ASP13       0.1450
     18  CG        29.6750    5.5830  -18.9950 C.2    13  ASP13       0.3671
     19  OD1       30.7780    6.1660  -18.9060 O.co2  13  ASP13      -0.2456
     20  OD2       29.5170    4.5300  -19.6500 O.co2  13  ASP13      -0.2456
     21  N         27.4340    6.2880  -21.4810 N.am   14  ASP14      -0.1971
     22  CA        26.8500    5.5240  -22.5760 C.3    14  ASP14       0.1709
     23  C         26.8150    4.0140  -22.3330 C.2    14  ASP14       0.2293
     24  O         26.0580    3.3010  -22.9880 O.2    14  ASP14      -0.2864
     25  CB        27.6130    5.8140  -23.8670 C.3    14  ASP14       0.1436
     26  CG        27.3030    7.1820  -24.4260 C.2    14  ASP14       0.3671
     27  OD1       28.1450    7.7280  -25.1650 O.co2  14  ASP14      -0.2456
     28  OD2       26.2100    7.7070  -24.1340 O.co2  14  ASP14      -0.2456
     29  N         26.2980    2.7900  -19.2260 N.3    16  ASP16      -0.1225
     30  CA        25.5790    2.6150  -17.9730 C.3    16  ASP16       0.1805
     31  C         24.1080    2.2930  -18.2060 C.2    16  ASP16       0.2597
     32  O         23.3140    3.1720  -18.5340 O.2    16  ASP16      -0.2718
     33  CB        25.7100    3.8740  -17.1110 C.3    16  ASP16       0.1424
     34  CG        24.7690    3.8670  -15.9240 C.2    16  ASP16       0.3668
     35  OD1       24.6070    2.7980  -15.2990 O.co2  16  ASP16      -0.2456
     36  OD2       24.1980    4.9330  -15.6090 O.co2  16  ASP16      -0.2456
     37  N         23.7540    1.0240  -18.0410 N.am   17  TYR17      -0.1976
     38  CA        22.3800    0.5890  -18.2280 C.3    17  TYR17       0.1639
     39  C         21.7510    0.2780  -16.8800 C.2    17  TYR17       0.2290
     40  O         20.7740   -0.4640  -16.7940 O.2    17  TYR17      -0.2864
     41  CB        22.3340   -0.6470  -19.1260 C.3    17  TYR17       0.0560
     42  CG        22.8100   -0.3860  -20.5350 C.ar   17  TYR17      -0.0198
     43  CD1       21.9460    0.1250  -21.5050 C.ar   17  TYR17      -0.0009
     44  CD2       24.1340   -0.6310  -20.8960 C.ar   17  TYR17      -0.0009
     45  CE1       22.3920    0.3840  -22.8020 C.ar   17  TYR17       0.0417
     46  CE2       24.5890   -0.3740  -22.1870 C.ar   17  TYR17       0.0417
     47  CZ        23.7150    0.1320  -23.1320 C.ar   17  TYR17       0.1957
     48  OH        24.1660    0.3800  -24.4070 O.3    17  TYR17      -0.2866
     49  N         20.6760    2.6810  -15.0940 N.3    19  SER19      -0.1217
     50  CA        19.7150    3.7720  -14.9910 C.3    19  SER19       0.1889
     51  C         18.4180    3.5190  -15.7550 C.2    19  SER19       0.2288
     52  O         18.3230    2.6080  -16.5790 O.2    19  SER19      -0.2866
     53  CB        20.3450    5.0450  -15.5300 C.3    19  SER19       0.2089
     54  OG        20.5780    4.8960  -16.9190 O.3    19  SER19      -0.2183
     55  N         16.3810    5.3740  -18.2740 N.3    21  MET21      -0.1230
     56  CA        16.3730    6.5020  -19.2030 C.3    21  MET21       0.1702
     57  C         15.8110    6.1630  -20.5820 C.2    21  MET21       0.2592
     58  O         15.8350    5.0030  -21.0110 O.2    21  MET21      -0.2718
     59  CB        17.8030    7.0420  -19.3770 C.3    21  MET21       0.0401
     60  CG        18.5490    7.3080  -18.0720 C.3    21  MET21       0.0596
     61  SD        20.2070    8.0310  -18.3200 S.3    21  MET21      -0.1393
     62  CE        19.7490    9.7260  -18.7290 C.3    21  MET21       0.0692
     63  N         15.3090    7.1860  -21.2730 N.am   22  MET22      -0.1965
     64  CA        14.7590    7.0230  -22.6200 C.3    22  MET22       0.1736
     65  C         15.6410    7.8190  -23.5730 C.2    22  MET22       0.2616
     66  O         16.1330    8.8910  -23.2120 O.2    22  MET22      -0.2715
     67  CB        13.3320    7.5840  -22.7230 C.3    22  MET22       0.0427
     68  CG        12.3190    7.0560  -21.7110 C.3    22  MET22       0.0599
     69  SD        12.4980    7.7340  -20.0460 S.3    22  MET22      -0.1393
     70  CE        12.0050    9.4270  -20.2960 C.3    22  MET22       0.0692
     71  N         15.8440    7.3090  -24.7840 N.am   23  GLN23      -0.1977
     72  CA        16.6580    8.0320  -25.7520 C.3    23  GLN23       0.1601
     73  C         15.7670    8.7520  -26.7580 C.2    23  GLN23       0.2287
     74  O         14.9410    8.1330  -27.4320 O.2    23  GLN23      -0.2864
     75  CB        17.6130    7.0800  -26.4870 C.3    23  GLN23       0.0394
     76  CG        18.4920    7.7830  -27.5200 C.3    23  GLN23       0.0908
     77  CD        19.5380    6.8650  -28.1310 C.2    23  GLN23       0.2608
     78  OE1       19.2250    5.7740  -28.5980 O.2    23  GLN23      -0.2717
     79  NE2       20.7890    7.3110  -28.1340 N.am   23  GLN23      -0.0878
     80  N         19.9770   11.0130  -23.9970 N.3    30  TRP30      -0.1241
     81  CA        19.2200   10.1810  -23.0640 C.3    30  TRP30       0.1605
     82  C         18.5920   11.0650  -21.9860 C.2    30  TRP30       0.2264
     83  O         19.1880   12.0580  -21.5700 O.2    30  TRP30      -0.2867
     84  CB        20.1160    9.1210  -22.4140 C.3    30  TRP30       0.0550
     85  CG        20.5320    8.0220  -23.3500 C.ar   30  TRP30       0.0003
     86  CD1       21.6120    8.0170  -24.1890 C.ar   30  TRP30       0.0946
     87  CD2       19.8550    6.7750  -23.5610 C.ar   30  TRP30       0.0152
     88  NE1       21.6500    6.8420  -24.9080 N.ar   30  TRP30      -0.2442
     89  CE2       20.5840    6.0640  -24.5430 C.ar   30  TRP30       0.0810
     90  CE3       18.7030    6.1900  -23.0160 C.ar   30  TRP30       0.0012
     91  CZ2       20.1960    4.7940  -24.9920 C.ar   30  TRP30       0.0191
     92  CZ3       18.3170    4.9260  -23.4630 C.ar   30  TRP30       0.0001
     93  CH2       19.0640    4.2440  -24.4420 C.ar   30  TRP30       0.0015
     94  N          7.7720    3.7180  -17.2110 N.3    43  TYR43      -0.1227
     95  CA         9.0360    3.4090  -17.8670 C.3    43  TYR43       0.1736
     96  C          8.9780    2.0150  -18.4720 C.2    43  TYR43       0.2595
     97  O          9.4060    1.8040  -19.6070 O.2    43  TYR43      -0.2718
     98  CB        10.1920    3.4830  -16.8600 C.3    43  TYR43       0.0548
     99  CG        11.5530    3.1610  -17.4530 C.ar   43  TYR43      -0.0200
    100  CD1       12.1320    3.9900  -18.4160 C.ar   43  TYR43      -0.0009
    101  CD2       12.2620    2.0290  -17.0460 C.ar   43  TYR43      -0.0009
    102  CE1       13.3930    3.7020  -18.9640 C.ar   43  TYR43       0.0417
    103  CE2       13.5200    1.7270  -17.5850 C.ar   43  TYR43       0.0417
    104  CZ        14.0770    2.5680  -18.5430 C.ar   43  TYR43       0.1957
    105  OH        15.3070    2.2630  -19.0740 O.3    43  TYR43      -0.2866
    106  N          8.4510    1.0630  -17.7070 N.am   44  GLU44      -0.1979
    107  CA         8.3360   -0.3140  -18.1800 C.3    44  GLU44       0.1602
    108  C          7.3840   -0.3930  -19.3730 C.2    44  GLU44       0.2287
    109  O          7.6770   -1.0440  -20.3780 O.2    44  GLU44      -0.2864
    110  CB         7.8060   -1.2190  -17.0620 C.3    44  GLU44       0.0415
    111  CG         8.7520   -1.4360  -15.8870 C.3    44  GLU44       0.1163
    112  CD         9.9940   -2.2200  -16.2660 C.2    44  GLU44       0.3649
    113  OE1        9.8870   -3.1430  -17.1020 O.co2  44  GLU44      -0.2457
    114  OE2       11.0760   -1.9240  -15.7180 O.co2  44  GLU44      -0.2457
    115  N          6.5740    1.9690  -21.3760 N.3    46  LEU46      -0.1231
    116  CA         7.1710    2.6900  -22.4880 C.3    46  LEU46       0.1693
    117  C          8.0320    1.7060  -23.2800 C.2    46  LEU46       0.2592
    118  O          7.9370    1.6200  -24.5110 O.2    46  LEU46      -0.2718
    119  CB         8.0220    3.8380  -21.9430 C.3    46  LEU46       0.0284
    120  CG         8.2460    5.0520  -22.8380 C.3    46  LEU46       0.0019
    121  CD1        6.9100    5.6310  -23.2710 C.3    46  LEU46       0.0001
    122  CD2        9.0620    6.0880  -22.0730 C.3    46  LEU46       0.0001
    123  N          8.8520    0.9430  -22.5590 N.am   47  SER47      -0.1952
    124  CA         9.7280   -0.0520  -23.1740 C.3    47  SER47       0.1924
    125  C          8.9220   -1.0700  -23.9800 C.2    47  SER47       0.2314
    126  O          9.4840   -1.8210  -24.7740 O.2    47  SER47      -0.2863
    127  CB        10.5300   -0.8040  -22.1000 C.3    47  SER47       0.2116
    128  OG        11.2670    0.0780  -21.2680 O.3    47  SER47      -0.2180
    129  N          5.9720   -0.1820  -25.8850 N.3    49  LEU49      -0.1231
    130  CA         5.2580    0.4020  -27.0170 C.3    49  LEU49       0.1678
    131  C          5.9080   -0.0160  -28.3390 C.2    49  LEU49       0.2434
    132  O          6.9860   -0.6060  -28.3500 O.2    49  LEU49      -0.2733
    133  CB         5.2590    1.9320  -26.9180 C.3    49  LEU49       0.0284
    134  CG         4.5290    2.5790  -25.7400 C.3    49  LEU49       0.0019
    135  CD1        4.6400    4.0960  -25.8490 C.3    49  LEU49       0.0001
    136  CD2        3.0670    2.1480  -25.7380 C.3    49  LEU49       0.0001
    137  N          5.2530    0.2830  -29.4710 N.am   50  PRO50      -0.2718
    138  CA         5.7850   -0.0670  -30.7950 C.3    50  PRO50       0.1535
    139  C          7.0530    0.7210  -31.1000 C.2    50  PRO50       0.2598
    140  O          7.2120    1.8480  -30.6360 O.2    50  PRO50      -0.2715
    141  CB         4.6490    0.3190  -31.7370 C.3    50  PRO50       0.0310
    142  CG         3.4270    0.1610  -30.8810 C.3    50  PRO50       0.0237
    143  CD         3.8730    0.7810  -29.5850 C.3    50  PRO50       0.0939
    144  N          7.9490    0.1330  -31.8870 N.am   51  GLU51      -0.1978
    145  CA         9.1930    0.8020  -32.2480 C.3    51  GLU51       0.1602
    146  C          8.9180    2.1460  -32.9090 C.2    51  GLU51       0.2287
    147  O          9.6600    3.1050  -32.7030 O.2    51  GLU51      -0.2864
    148  CB        10.0110   -0.0590  -33.2150 C.3    51  GLU51       0.0415
    149  CG        10.5180   -1.3690  -32.6440 C.3    51  GLU51       0.1163
    150  CD        11.3090   -2.1690  -33.6650 C.2    51  GLU51       0.3649
    151  OE1       11.7860   -3.2730  -33.3250 O.co2  51  GLU51      -0.2457
    152  OE2       11.4550   -1.6910  -34.8110 O.co2  51  GLU51      -0.2457
    153  N          6.7360    4.2950  -32.2590 N.3    53  VAL53      -0.1231
    154  CA         6.3770    5.3540  -31.3210 C.3    53  VAL53       0.1692
    155  C          7.6490    5.7460  -30.5850 C.2    53  VAL53       0.2592
    156  O          8.0340    5.1270  -29.5930 O.2    53  VAL53      -0.2718
    157  CB         5.3220    4.8920  -30.3020 C.3    53  VAL53       0.0266
    158  CG1        4.9710    6.0450  -29.3650 C.3    53  VAL53       0.0020
    159  CG2        4.0740    4.4050  -31.0280 C.3    53  VAL53       0.0020
    160  N          8.3070    6.7800  -31.0860 N.am   54  ALA54      -0.1966
    161  CA         9.5480    7.2270  -30.4920 C.3    54  ALA54       0.1728
    162  C          9.3610    8.1480  -29.3010 C.2    54  ALA54       0.2616
    163  O          8.3590    8.8530  -29.1810 O.2    54  ALA54      -0.2715
    164  CB        10.4040    7.9220  -31.5470 C.3    54  ALA54       0.0334
    165  N         10.3270    8.1060  -28.3970 N.am   55  TYR55      -0.1974
    166  CA        10.2950    8.9970  -27.2640 C.3    55  TYR55       0.1639
    167  C         10.9590   10.2500  -27.8230 C.2    55  TYR55       0.2290
    168  O         11.8650   10.1510  -28.6470 O.2    55  TYR55      -0.2864
    169  CB        11.1350    8.4620  -26.1110 C.3    55  TYR55       0.0560
    170  CG        11.5290    9.5540  -25.1430 C.ar   55  TYR55      -0.0198
    171  CD1       10.5820   10.1450  -24.3080 C.ar   55  TYR55      -0.0009
    172  CD2       12.8350   10.0490  -25.1160 C.ar   55  TYR55      -0.0009
    173  CE1       10.9200   11.2030  -23.4750 C.ar   55  TYR55       0.0417
    174  CE2       13.1860   11.1110  -24.2860 C.ar   55  TYR55       0.0417
    175  CZ        12.2210   11.6820  -23.4690 C.ar   55  TYR55       0.1957
    176  OH        12.5470   12.7370  -22.6580 O.3    55  TYR55      -0.2866
    177  N          4.2030   10.0790  -27.7330 N.3    68  TRP68      -0.1241
    178  CA         4.4900    9.0080  -26.7880 C.3    68  TRP68       0.1605
    179  C          3.7000    9.0930  -25.4770 C.2    68  TRP68       0.2264
    180  O          3.4250    8.0620  -24.8630 O.2    68  TRP68      -0.2867
    181  CB         5.9960    8.9190  -26.4990 C.3    68  TRP68       0.0550
    182  CG         6.5750   10.0860  -25.7640 C.ar   68  TRP68       0.0003
    183  CD1        7.1140   11.2160  -26.3080 C.ar   68  TRP68       0.0946
    184  CD2        6.6650   10.2400  -24.3430 C.ar   68  TRP68       0.0152
    185  NE1        7.5370   12.0670  -25.3110 N.ar   68  TRP68      -0.2442
    186  CE2        7.2710   11.4920  -24.0930 C.ar   68  TRP68       0.0810
    187  CE3        6.2900    9.4390  -23.2520 C.ar   68  TRP68       0.0012
    188  CZ2        7.5140   11.9690  -22.7960 C.ar   68  TRP68       0.0191
    189  CZ3        6.5310    9.9100  -21.9570 C.ar   68  TRP68       0.0001
    190  CH2        7.1390   11.1670  -21.7440 C.ar   68  TRP68       0.0015
@<TRIPOS>BOND
     1   152   150   ar
     2   150   151   ar
     3   150   149    1
     4   148   149    1
     5   148   145    1
     6   146   147    2
     7   146   145    1
     8   153   154    1
     9   145   144    1
    10   144   139   am
    11   141   142    1
    12   141   138    1
    13   164   161    1
    14   154   155    1
    15   154   157    1
    16   139   138    1
    17   139   140    2
    18   160   155   am
    19   160   161    1
    20   159   157    1
    21   142   143    1
    22   138   137    1
    23   155   156    2
    24   161   162    1
    25   157   158    1
    26   143   137    1
    27   137   131   am
    28   162   163    2
    29   162   165   am
    30   168   167    2
    31    78    77    2
    32   165   166    1
    33   132   131    2
    34   131   130    1
    35    79    77   am
    36    77    76    1
    37   167   166    1
    38   177   178    1
    39    76    75    1
    40    74    73    2
    41   166   169    1
    42   130   133    1
    43   130   129    1
    44   133   134    1
    45   178   181    1
    46   178   179    1
    47    73    72    1
    48   181   182    1
    49    75    72    1
    50   183   182   ar
    51   183   185   ar
    52   169   170    1
    53   135   134    1
    54   182   184   ar
    55    72    71    1
    56   134   136    1
    57   179   180    2
    58   185   186   ar
    59    27    26   ar
    60   170   172   ar
    61   170   171   ar
    62   172   174   ar
    63    91    89   ar
    64    91    93   ar
    65    88    89   ar
    66    88    86   ar
    67    71    65   am
    68   126   125    2
    69    89    87   ar
    70   118   117    2
    71    93    92   ar
    72    26    28   ar
    73    26    25    1
    74    48    47    1
    75   184   186   ar
    76   184   187   ar
    77   171   173   ar
    78   174   175   ar
    79    86    85   ar
    80   186   188   ar
    81    80    81    1
    82   125   124    1
    83    25    22    1
    84    65    66    2
    85    65    64    1
    86    87    85   ar
    87    87    90   ar
    88    12    11    1
    89   173   175   ar
    90   175   176    1
    91    92    90   ar
    92    85    84    1
    93   117   123   am
    94   117   116    1
    95   121   120    1
    96   187   189   ar
    97   124   123    1
    98   124   127    1
    99    47    45   ar
   100    47    46   ar
   101    81    84    1
   102    81    82    1
   103    24    23    2
   104   120   122    1
   105   120   119    1
   106    45    43   ar
   107   188   190   ar
   108    67    64    1
   109    67    68    1
   110    64    63    1
   111    22    23    1
   112    22    21    1
   113   116   119    1
   114   116   115    1
   115    11    10   ar
   116    11     9   ar
   117    46    44   ar
   118   127   128    1
   119    10     8   ar
   120    82    83    2
   121   189   190   ar
   122    68    69    1
   123    43    42   ar
   124    21    15   am
   125    63    57   am
   126     9     7   ar
   127    58    57    2
   128    44    42   ar
   129     8     6   ar
   130    57    56    1
   131    42    41    1
   132   109   108    2
   133    70    69    1
   134    15    16    2
   135    15    14    1
   136     7     6   ar
   137     6     5    1
   138    20    18   ar
   139    97    96    2
   140     4     3    2
   141    59    56    1
   142    59    60    1
   143   108   107    1
   144    29    30    1
   145    14    13    1
   146    14    17    1
   147    56    55    1
   148    41    38    1
   149   105   104    1
   150    18    19   ar
   151    18    17    1
   152   102   104   ar
   153   102   100   ar
   154    62    61    1
   155     3    13   am
   156     3     2    1
   157   104   103   ar
   158    32    31    2
   159    96    95    1
   160    96   106   am
   161   100    99   ar
   162    61    60    1
   163     5     2    1
   164    38    37    1
   165    38    39    1
   166    31    37   am
   167    31    30    1
   168   107   106    1
   169   107   110    1
   170    30    33    1
   171    95    94    1
   172    95    98    1
   173     1     2    1
   174   103   101   ar
   175    99   101   ar
   176    99    98    1
   177    33    34    1
   178   113   112   ar
   179   110   111    1
   180    54    53    1
   181    39    40    2
   182    52    51    2
   183   112   111    1
   184   112   114   ar
   185    34    36   ar
   186    34    35   ar
   187    51    50    1
   188    53    50    1
   189    49    50    1
