@<TRIPOS>MOLECULE
tmp/3lqiC00.pdb
 215 217 0 0 0
SMALL
GASTEIGER

@<TRIPOS>ATOM
      1  N         38.8460    6.6680  -37.1330 N.3    12  TYR12      -0.1227
      2  CA        38.9500    5.7890  -35.9760 C.3    12  TYR12       0.1736
      3  C         40.4330    5.5900  -35.6950 C.2    12  TYR12       0.2595
      4  O         41.2430    5.5530  -36.6220 O.2    12  TYR12      -0.2718
      5  CB        38.2860    4.4300  -36.2270 C.3    12  TYR12       0.0548
      6  CG        38.9150    3.6010  -37.3220 C.ar   12  TYR12      -0.0200
      7  CD1       38.3740    3.5830  -38.6070 C.ar   12  TYR12      -0.0009
      8  CD2       40.0480    2.8180  -37.0710 C.ar   12  TYR12      -0.0009
      9  CE1       38.9360    2.8080  -39.6120 C.ar   12  TYR12       0.0417
     10  CE2       40.6190    2.0390  -38.0720 C.ar   12  TYR12       0.0417
     11  CZ        40.0560    2.0380  -39.3370 C.ar   12  TYR12       0.1957
     12  OH        40.5950    1.2550  -40.3270 O.3    12  TYR12      -0.2866
     13  N         40.7880    5.4810  -34.4200 N.am   13  ASP13      -0.1960
     14  CA        42.1790    5.2720  -34.0270 C.3    13  ASP13       0.1840
     15  C         42.3890    3.7740  -33.8840 C.2    13  ASP13       0.2622
     16  O         41.4670    3.0530  -33.4990 O.2    13  ASP13      -0.2715
     17  CB        42.4670    5.9440  -32.6820 C.3    13  ASP13       0.1450
     18  CG        42.1020    7.4120  -32.6700 C.2    13  ASP13       0.3671
     19  OD1       42.7240    8.1890  -33.4230 O.co2  13  ASP13      -0.2456
     20  OD2       41.1880    7.7860  -31.9050 O.co2  13  ASP13      -0.2456
     21  N         43.5930    3.3020  -34.1880 N.am   14  ASP14      -0.1957
     22  CA        43.8750    1.8810  -34.0680 C.3    14  ASP14       0.1840
     23  C         43.8300    1.4230  -32.6160 C.2    14  ASP14       0.2622
     24  O         43.6230    0.2440  -32.3440 O.2    14  ASP14      -0.2715
     25  CB        45.2320    1.5420  -34.6880 C.3    14  ASP14       0.1450
     26  CG        45.2070    1.6040  -36.2030 C.2    14  ASP14       0.3671
     27  OD1       44.3000    0.9910  -36.8060 O.co2  14  ASP14      -0.2456
     28  OD2       46.0920    2.2580  -36.7940 O.co2  14  ASP14      -0.2456
     29  N         44.0180    2.3490  -31.6790 N.am   15  ASP15      -0.1957
     30  CA        43.9710    1.9820  -30.2680 C.3    15  ASP15       0.1840
     31  C         42.6470    2.3680  -29.6120 C.2    15  ASP15       0.2622
     32  O         42.5960    2.6940  -28.4240 O.2    15  ASP15      -0.2715
     33  CB        45.1490    2.5960  -29.4970 C.3    15  ASP15       0.1450
     34  CG        45.1910    4.1080  -29.5860 C.2    15  ASP15       0.3671
     35  OD1       44.2520    4.7050  -30.1550 O.co2  15  ASP15      -0.2456
     36  OD2       46.1710    4.6970  -29.0770 O.co2  15  ASP15      -0.2456
     37  N         41.5770    2.3350  -30.4030 N.am   16  ASP16      -0.1957
     38  CA        40.2380    2.6360  -29.9060 C.3    16  ASP16       0.1840
     39  C         39.4740    1.3180  -29.9050 C.2    16  ASP16       0.2622
     40  O         39.2450    0.7270  -30.9630 O.2    16  ASP16      -0.2715
     41  CB        39.5150    3.6330  -30.8190 C.3    16  ASP16       0.1450
     42  CG        38.1170    3.9770  -30.3150 C.2    16  ASP16       0.3671
     43  OD1       37.3160    4.5320  -31.0970 O.co2  16  ASP16      -0.2456
     44  OD2       37.8220    3.6970  -29.1330 O.co2  16  ASP16      -0.2456
     45  N         39.0960    0.8540  -28.7190 N.am   17  TYR17      -0.1974
     46  CA        38.3610   -0.3980  -28.5770 C.3    17  TYR17       0.1639
     47  C         37.0330   -0.1270  -27.8930 C.2    17  TYR17       0.2290
     48  O         36.2850   -1.0450  -27.5550 O.2    17  TYR17      -0.2864
     49  CB        39.1880   -1.3960  -27.7620 C.3    17  TYR17       0.0560
     50  CG        40.3390   -1.9830  -28.5460 C.ar   17  TYR17      -0.0198
     51  CD1       40.1340   -3.0470  -29.4250 C.ar   17  TYR17      -0.0009
     52  CD2       41.6220   -1.4390  -28.4570 C.ar   17  TYR17      -0.0009
     53  CE1       41.1770   -3.5540  -30.2000 C.ar   17  TYR17       0.0417
     54  CE2       42.6720   -1.9360  -29.2280 C.ar   17  TYR17       0.0417
     55  CZ        42.4400   -2.9930  -30.0980 C.ar   17  TYR17       0.1957
     56  OH        43.4640   -3.4830  -30.8730 O.3    17  TYR17      -0.2866
     57  N         34.5840    1.6350  -29.2980 N.3    19  SER19      -0.1202
     58  CA        33.5390    1.4820  -30.3060 C.3    19  SER19       0.2020
     59  C         33.5290    0.0840  -30.9200 C.2    19  SER19       0.2619
     60  O         34.5720   -0.5550  -31.0690 O.2    19  SER19      -0.2717
     61  CB        33.7100    2.5260  -31.4140 C.3    19  SER19       0.2103
     62  OG        32.6820    2.4120  -32.3850 O.3    19  SER19      -0.2182
     63  N         32.3350   -0.3780  -31.2780 N.am   20  LYS20      -0.1965
     64  CA        32.1570   -1.6960  -31.8760 C.3    20  LYS20       0.1728
     65  C         32.3690   -1.6410  -33.3800 C.2    20  LYS20       0.2616
     66  O         31.6380   -0.9580  -34.0950 O.2    20  LYS20      -0.2715
     67  CB        30.7540   -2.2140  -31.5740 C.3    20  LYS20       0.0311
     68  CG        30.4600   -2.3800  -30.0960 C.3    20  LYS20       0.0038
     69  CD        29.0260   -2.8250  -29.8880 C.3    20  LYS20       0.0206
     70  CE        28.7970   -3.3550  -28.4810 C.3    20  LYS20       0.1093
     71  NZ        28.9920   -2.3190  -27.4370 N.3    20  LYS20      -0.1314
     72  N         33.3690   -2.3680  -33.8600 N.am   21  MET21      -0.1963
     73  CA        33.6730   -2.3870  -35.2820 C.3    21  MET21       0.1736
     74  C         34.1510   -3.7700  -35.6910 C.2    21  MET21       0.2616
     75  O         34.6340   -4.5380  -34.8570 O.2    21  MET21      -0.2715
     76  CB        34.7760   -1.3700  -35.6040 C.3    21  MET21       0.0427
     77  CG        34.5510    0.0260  -35.0440 C.3    21  MET21       0.0599
     78  SD        35.9090    1.1360  -35.5030 S.3    21  MET21      -0.1393
     79  CE        35.5750    1.3150  -37.2520 C.3    21  MET21       0.0692
     80  N         34.0180   -4.0780  -36.9770 N.am   22  MET22      -0.1963
     81  CA        34.4630   -5.3580  -37.5080 C.3    22  MET22       0.1736
     82  C         35.5800   -5.0730  -38.5040 C.2    22  MET22       0.2616
     83  O         35.4970   -4.1170  -39.2750 O.2    22  MET22      -0.2715
     84  CB        33.3260   -6.0840  -38.2330 C.3    22  MET22       0.0427
     85  CG        32.0610   -6.2890  -37.4200 C.3    22  MET22       0.0599
     86  SD        31.0640   -4.7920  -37.2450 S.3    22  MET22      -0.1393
     87  CE        30.4940   -4.5950  -38.8930 C.3    22  MET22       0.0692
     88  N         36.6240   -5.8950  -38.4850 N.am   23  GLN23      -0.1977
     89  CA        37.7380   -5.7050  -39.4030 C.3    23  GLN23       0.1601
     90  C         37.5800   -6.5860  -40.6350 C.2    23  GLN23       0.2287
     91  O         37.5480   -7.8120  -40.5360 O.2    23  GLN23      -0.2864
     92  CB        39.0680   -6.0150  -38.7100 C.3    23  GLN23       0.0394
     93  CG        40.2780   -5.8310  -39.6190 C.3    23  GLN23       0.0908
     94  CD        41.5990   -5.9340  -38.8790 C.2    23  GLN23       0.2608
     95  OE1       41.8850   -6.9370  -38.2270 O.2    23  GLN23      -0.2717
     96  NE2       42.4170   -4.8920  -38.9840 N.am   23  GLN23      -0.0878
     97  N         38.5920   -1.1820  -40.7410 N.3    30  TRP30      -0.1241
     98  CA        37.5480   -1.3860  -39.7420 C.3    30  TRP30       0.1605
     99  C         36.2530   -0.6920  -40.1580 C.2    30  TRP30       0.2264
    100  O         36.2760    0.3800  -40.7690 O.2    30  TRP30      -0.2867
    101  CB        37.9880   -0.8720  -38.3640 C.3    30  TRP30       0.0550
    102  CG        39.0940   -1.6690  -37.7220 C.ar   30  TRP30       0.0003
    103  CD1       40.4360   -1.5440  -37.9490 C.ar   30  TRP30       0.0946
    104  CD2       38.9500   -2.7110  -36.7470 C.ar   30  TRP30       0.0152
    105  NE1       41.1360   -2.4390  -37.1740 N.ar   30  TRP30      -0.2442
    106  CE2       40.2480   -3.1690  -36.4260 C.ar   30  TRP30       0.0810
    107  CE3       37.8490   -3.3040  -36.1100 C.ar   30  TRP30       0.0012
    108  CZ2       40.4780   -4.1920  -35.4980 C.ar   30  TRP30       0.0191
    109  CZ3       38.0780   -4.3240  -35.1850 C.ar   30  TRP30       0.0001
    110  CH2       39.3830   -4.7550  -34.8900 C.ar   30  TRP30       0.0015
    111  N         26.3330   -8.0610  -33.0440 N.3    43  TYR43      -0.1227
    112  CA        27.7700   -7.8040  -32.9830 C.3    43  TYR43       0.1736
    113  C         28.4070   -8.8840  -32.1140 C.2    43  TYR43       0.2595
    114  O         29.4580   -9.4280  -32.4570 O.2    43  TYR43      -0.2718
    115  CB        28.0400   -6.4280  -32.3650 C.3    43  TYR43       0.0548
    116  CG        29.5080   -6.1150  -32.1230 C.ar   43  TYR43      -0.0200
    117  CD1       30.3980   -5.9520  -33.1890 C.ar   43  TYR43      -0.0009
    118  CD2       29.9960   -5.9450  -30.8290 C.ar   43  TYR43      -0.0009
    119  CE1       31.7410   -5.6190  -32.9690 C.ar   43  TYR43       0.0417
    120  CE2       31.3370   -5.6120  -30.5960 C.ar   43  TYR43       0.0417
    121  CZ        32.2010   -5.4470  -31.6690 C.ar   43  TYR43       0.1957
    122  OH        33.5130   -5.0810  -31.4390 O.3    43  TYR43      -0.2866
    123  N         27.7710   -9.1770  -30.9800 N.am   44  GLU44      -0.1979
    124  CA        28.2640  -10.2040  -30.0610 C.3    44  GLU44       0.1602
    125  C         28.2880  -11.5570  -30.7660 C.2    44  GLU44       0.2287
    126  O         29.2950  -12.2670  -30.7410 O.2    44  GLU44      -0.2864
    127  CB        27.3590  -10.3110  -28.8280 C.3    44  GLU44       0.0415
    128  CG        27.3350   -9.0970  -27.9020 C.3    44  GLU44       0.1163
    129  CD        28.5800   -8.9700  -27.0390 C.2    44  GLU44       0.3649
    130  OE1       29.2750   -9.9870  -26.8250 O.co2  44  GLU44      -0.2457
    131  OE2       28.8500   -7.8490  -26.5570 O.co2  44  GLU44      -0.2457
    132  N         28.2920  -12.1560  -33.9180 N.3    46  LEU46      -0.1231
    133  CA        29.2740  -12.0930  -34.9920 C.3    46  LEU46       0.1693
    134  C         30.6700  -12.3550  -34.4360 C.2    46  LEU46       0.2593
    135  O         31.4830  -13.0240  -35.0710 O.2    46  LEU46      -0.2718
    136  CB        29.2280  -10.7170  -35.6610 C.3    46  LEU46       0.0284
    137  CG        30.2120  -10.4350  -36.7960 C.3    46  LEU46       0.0019
    138  CD1       30.0550  -11.4700  -37.8940 C.3    46  LEU46       0.0001
    139  CD2       29.9570   -9.0330  -37.3430 C.3    46  LEU46       0.0001
    140  N         30.9360  -11.8380  -33.2410 N.am   47  SER47      -0.1938
    141  CA        32.2340  -12.0100  -32.6020 C.3    47  SER47       0.2055
    142  C         32.5530  -13.4620  -32.2460 C.2    47  SER47       0.2643
    143  O         33.6330  -13.7450  -31.7260 O.2    47  SER47      -0.2714
    144  CB        32.3160  -11.1530  -31.3350 C.3    47  SER47       0.2130
    145  OG        32.2000   -9.7700  -31.6320 O.3    47  SER47      -0.2179
    146  N         31.6300  -14.3810  -32.5270 N.am   48  ASN48      -0.1957
    147  CA        31.8550  -15.7900  -32.2060 C.3    48  ASN48       0.1819
    148  C         31.6960  -16.7690  -33.3680 C.2    48  ASN48       0.2621
    149  O         31.7450  -17.9820  -33.1690 O.2    48  ASN48      -0.2715
    150  CB        30.9380  -16.2240  -31.0600 C.3    48  ASN48       0.1195
    151  CG        31.1600  -15.4160  -29.8000 C.2    48  ASN48       0.2630
    152  OD1       32.2970  -15.1630  -29.4040 O.2    48  ASN48      -0.2716
    153  ND2       30.0720  -15.0140  -29.1550 N.am   48  ASN48      -0.0877
    154  N         31.5040  -16.2530  -34.5760 N.am   49  LEU49      -0.1964
    155  CA        31.3530  -17.1110  -35.7480 C.3    49  LEU49       0.1713
    156  C         32.6840  -17.7790  -36.1140 C.2    49  LEU49       0.2458
    157  O         33.7180  -17.4860  -35.5120 O.2    49  LEU49      -0.2730
    158  CB        30.8350  -16.2880  -36.9310 C.3    49  LEU49       0.0310
    159  CG        29.3200  -16.2310  -37.1460 C.3    49  LEU49       0.0022
    160  CD1       28.6160  -15.8900  -35.8450 C.3    49  LEU49       0.0001
    161  CD2       29.0030  -15.2090  -38.2290 C.3    49  LEU49       0.0001
    162  N         32.6720  -18.6960  -37.0990 N.am   50  PRO50      -0.2716
    163  CA        33.8900  -19.3950  -37.5290 C.3    50  PRO50       0.1536
    164  C         34.8030  -18.5280  -38.3990 C.2    50  PRO50       0.2598
    165  O         34.3270  -17.7400  -39.2130 O.2    50  PRO50      -0.2715
    166  CB        33.3400  -20.5940  -38.2940 C.3    50  PRO50       0.0310
    167  CG        32.1040  -20.0270  -38.9250 C.3    50  PRO50       0.0237
    168  CD        31.4870  -19.2580  -37.7740 C.3    50  PRO50       0.0939
    169  N         36.1140  -18.6860  -38.2350 N.am   51  GLU51      -0.1978
    170  CA        37.0780  -17.9080  -39.0100 C.3    51  GLU51       0.1602
    171  C         36.7780  -17.9960  -40.5010 C.2    51  GLU51       0.2287
    172  O         37.0580  -17.0630  -41.2560 O.2    51  GLU51      -0.2864
    173  CB        38.4960  -18.4160  -38.7720 C.3    51  GLU51       0.0415
    174  CG        38.7590  -18.9270  -37.3780 C.3    51  GLU51       0.1163
    175  CD        40.2120  -19.3030  -37.1800 C.2    51  GLU51       0.3649
    176  OE1       40.7780  -19.9650  -38.0740 O.co2  51  GLU51      -0.2457
    177  OE2       40.7830  -18.9420  -36.1310 O.co2  51  GLU51      -0.2457
    178  N         34.1990  -17.6580  -41.7860 N.3    53  VAL53      -0.1231
    179  CA        33.2960  -16.5560  -42.0740 C.3    53  VAL53       0.1692
    180  C         33.9720  -15.2830  -41.5740 C.2    53  VAL53       0.2592
    181  O         34.0710  -15.0200  -40.3710 O.2    53  VAL53      -0.2718
    182  CB        31.8930  -16.7340  -41.4120 C.3    53  VAL53       0.0266
    183  CG1       31.3070  -18.0820  -41.8000 C.3    53  VAL53       0.0020
    184  CG2       31.9750  -16.5960  -39.9100 C.3    53  VAL53       0.0020
    185  N         34.4770  -14.5070  -42.5200 N.am   54  ALA54      -0.1966
    186  CA        35.1550  -13.2710  -42.1890 C.3    54  ALA54       0.1728
    187  C         34.3000  -12.1090  -42.6360 C.2    54  ALA54       0.2616
    188  O         33.6510  -12.1660  -43.6840 O.2    54  ALA54      -0.2715
    189  CB        36.5130  -13.2170  -42.8840 C.3    54  ALA54       0.0334
    190  N         34.2740  -11.0560  -41.8340 N.am   55  TYR55      -0.1974
    191  CA        33.5060   -9.8950  -42.2280 C.3    55  TYR55       0.1639
    192  C         34.2600   -9.3010  -43.4020 C.2    55  TYR55       0.2290
    193  O         35.4890   -9.2680  -43.4060 O.2    55  TYR55      -0.2864
    194  CB        33.4350   -8.8570  -41.1090 C.3    55  TYR55       0.0560
    195  CG        32.8830   -7.5360  -41.5970 C.ar   55  TYR55      -0.0198
    196  CD1       31.5350   -7.4010  -41.9250 C.ar   55  TYR55      -0.0009
    197  CD2       33.7260   -6.4440  -41.8140 C.ar   55  TYR55      -0.0009
    198  CE1       31.0360   -6.2120  -42.4620 C.ar   55  TYR55       0.0417
    199  CE2       33.2380   -5.2510  -42.3530 C.ar   55  TYR55       0.0417
    200  CZ        31.8940   -5.1440  -42.6760 C.ar   55  TYR55       0.1957
    201  OH        31.4080   -3.9780  -43.2270 O.3    55  TYR55      -0.2866
    202  N         29.0400  -13.0450  -44.9690 N.3    68  TRP68      -0.1241
    203  CA        29.0940  -12.8550  -43.5260 C.3    68  TRP68       0.1605
    204  C         27.6970  -12.5490  -42.9900 C.2    68  TRP68       0.2264
    205  O         27.3230  -12.9980  -41.9070 O.2    68  TRP68      -0.2867
    206  CB        30.0610  -11.7200  -43.1520 C.3    68  TRP68       0.0550
    207  CG        29.5470  -10.3340  -43.4380 C.ar   68  TRP68       0.0003
    208  CD1       29.7410   -9.5980  -44.5760 C.ar   68  TRP68       0.0946
    209  CD2       28.7300   -9.5320  -42.5790 C.ar   68  TRP68       0.0152
    210  NE1       29.0940   -8.3870  -44.4750 N.ar   68  TRP68      -0.2442
    211  CE2       28.4650   -8.3210  -43.2600 C.ar   68  TRP68       0.0810
    212  CE3       28.1920   -9.7180  -41.2980 C.ar   68  TRP68       0.0012
    213  CZ2       27.6840   -7.3030  -42.7020 C.ar   68  TRP68       0.0191
    214  CZ3       27.4150   -8.7040  -40.7440 C.ar   68  TRP68       0.0001
    215  CH2       27.1700   -7.5130  -41.4460 C.ar   68  TRP68       0.0015
@<TRIPOS>BOND
     1   202   203    1
     2   208   210   ar
     3   208   207   ar
     4   210   211   ar
     5   188   187    2
     6   203   206    1
     7   203   204    1
     8   207   206    1
     9   207   209   ar
    10   193   192    2
    11   192   191    1
    12   211   213   ar
    13   211   209   ar
    14   201   200    1
    15   204   205    2
    16   189   186    1
    17   213   215   ar
    18   200   198   ar
    19   200   199   ar
    20   187   186    1
    21   187   190   am
    22   209   212   ar
    23   185   186    1
    24   185   180   am
    25   198   196   ar
    26   199   197   ar
    27   191   190    1
    28   191   194    1
    29   179   178    1
    30   179   180    1
    31   179   182    1
    32   196   195   ar
    33   197   195   ar
    34   183   182    1
    35   195   194    1
    36   180   181    2
    37   215   214   ar
    38   182   184    1
    39   212   214   ar
    40   172   171    2
    41   100    99    2
    42    97    98    1
    43    90    91    2
    44    90    89    1
    45   171   170    1
    46    12    11    1
    47    99    98    1
    48    98   101    1
    49    93    94    1
    50    93    92    1
    51     9    11   ar
    52     9     7   ar
    53    89    92    1
    54    89    88    1
    55    11    10   ar
    56    83    82    2
    57   165   164    2
    58   170   173    1
    59   170   169    1
    60    96    94   am
    61   167   166    1
    62   167   168    1
    63    87    86    1
    64    94    95    2
    65   173   174    1
    66     7     6   ar
    67    82    88   am
    68    82    81    1
    69   164   169   am
    70   164   163    1
    71   101   102    1
    72   166   163    1
    73    84    81    1
    74    84    85    1
    75   161   159    1
    76   176   175   ar
    77    10     8   ar
    78   103   102   ar
    79   103   105   ar
    80   138   137    1
    81   168   162    1
    82   102   104   ar
    83   163   162    1
    84    81    80    1
    85    85    86    1
    86   174   175    1
    87   139   137    1
    88     6     8   ar
    89     6     5    1
    90    79    78    1
    91   175   177   ar
    92   105   106   ar
    93   159   158    1
    94   159   160    1
    95     1     2    1
    96   162   156   am
    97    80    74   am
    98   158   155    1
    99    27    26   ar
   100   137   136    1
   101    28    26   ar
   102   104   106   ar
   103   104   107   ar
   104     4     3    2
   105   106   108   ar
   106     5     2    1
   107    26    25    1
   108   156   155    1
   109   156   157    2
   110   107   109   ar
   111     2     3    1
   112   155   154    1
   113     3    13   am
   114    74    73    1
   115    74    75    2
   116   136   133    1
   117    76    73    1
   118    76    77    1
   119    78    77    1
   120   108   110   ar
   121    73    72    1
   122   109   110   ar
   123   135   134    2
   124   133   134    1
   125   133   132    1
   126    25    22    1
   127   154   148   am
   128   134   140   am
   129    13    14    1
   130    21    22    1
   131    21    15   am
   132    66    65    2
   133    22    23    1
   134    14    15    1
   135    14    17    1
   136    15    16    2
   137    72    65   am
   138    19    18   ar
   139    65    64    1
   140   148   149    2
   141   148   147    1
   142   140   141    1
   143   117   119   ar
   144   117   116   ar
   145   111   112    1
   146   112   115    1
   147   112   113    1
   148   119   121   ar
   149    17    18    1
   150    18    20   ar
   151    23    24    2
   152    23    29   am
   153   141   142    1
   154   141   144    1
   155   146   142   am
   156   146   147    1
   157   114   113    2
   158    62    61    1
   159   115   116    1
   160   142   143    2
   161   147   150    1
   162   116   118   ar
   163   113   123   am
   164    64    67    1
   165    64    63    1
   166    29    30    1
   167   121   122    1
   168   121   120   ar
   169   145   144    1
   170    67    68    1
   171    61    58    1
   172    63    59   am
   173    43    42   ar
   174    60    59    2
   175   150   151    1
   176   123   124    1
   177    40    39    2
   178    59    58    1
   179    56    55    1
   180   118   120   ar
   181    41    42    1
   182    41    38    1
   183   125   126    2
   184   125   124    1
   185    37    38    1
   186    37    31   am
   187    42    44   ar
   188    58    57    1
   189    30    31    1
   190    30    33    1
   191    53    55   ar
   192    53    51   ar
   193    35    34   ar
   194    55    54   ar
   195    68    69    1
   196   124   127    1
   197    38    39    1
   198    39    45   am
   199    69    70    1
   200   151   152    2
   201   151   153   am
   202    31    32    2
   203    34    33    1
   204    34    36   ar
   205    51    50   ar
   206    54    52   ar
   207   127   128    1
   208    45    46    1
   209    46    47    1
   210    46    49    1
   211    50    52   ar
   212    50    49    1
   213    70    71    1
   214   128   129    1
   215    47    48    2
   216   129   130   ar
   217   129   131   ar
