@<TRIPOS>MOLECULE
tmp/3lqjA00.pdb
 210 208 0 0 0
SMALL
GASTEIGER

@<TRIPOS>ATOM
      1  N         67.5630   24.6410    9.0310 N.3    12  TYR12      -0.1227
      2  CA        66.1330   24.5960    9.3100 C.3    12  TYR12       0.1736
      3  C         65.4240   25.4400    8.2550 C.2    12  TYR12       0.2595
      4  O         65.9870   26.4120    7.7370 O.2    12  TYR12      -0.2718
      5  CB        65.8090   25.0850   10.7310 C.3    12  TYR12       0.0548
      6  CG        66.1410   26.5290   11.0330 C.ar   12  TYR12      -0.0200
      7  CD1       65.3790   27.5730   10.5060 C.ar   12  TYR12      -0.0009
      8  CD2       67.2130   26.8520   11.8660 C.ar   12  TYR12      -0.0009
      9  CE1       65.6790   28.9070   10.8010 C.ar   12  TYR12       0.0417
     10  CE2       67.5170   28.1820   12.1700 C.ar   12  TYR12       0.0417
     11  CZ        66.7490   29.1990   11.6350 C.ar   12  TYR12       0.1957
     12  OH        67.0550   30.5100   11.9410 O.3    12  TYR12      -0.2866
     13  N         64.1990   25.0490    7.9180 N.am   13  ASP13      -0.1960
     14  CA        63.4290   25.7540    6.9020 C.3    13  ASP13       0.1840
     15  C         62.5840   26.8760    7.4580 C.2    13  ASP13       0.2622
     16  O         61.9200   26.7210    8.4810 O.2    13  ASP13      -0.2715
     17  CB        62.5350   24.7730    6.1440 C.3    13  ASP13       0.1450
     18  CG        63.3250   23.8500    5.2550 C.2    13  ASP13       0.3671
     19  OD1       64.0510   24.3610    4.3780 O.co2  13  ASP13      -0.2456
     20  OD2       63.2240   22.6180    5.4320 O.co2  13  ASP13      -0.2456
     21  N         62.6160   28.0070    6.7610 N.am   14  ASP14      -0.1971
     22  CA        61.8550   29.1880    7.1410 C.3    14  ASP14       0.1709
     23  C         60.3650   28.8930    7.1290 C.2    14  ASP14       0.2293
     24  O         59.5730   29.6440    7.7020 O.2    14  ASP14      -0.2864
     25  CB        62.1400   30.3310    6.1600 C.3    14  ASP14       0.1436
     26  CG        63.3640   31.1360    6.5360 C.2    14  ASP14       0.3671
     27  OD1       63.9610   31.7610    5.6330 O.co2  14  ASP14      -0.2456
     28  OD2       63.7200   31.1580    7.7340 O.co2  14  ASP14      -0.2456
     29  N         58.9510   25.4470    7.8000 N.3    16  ASP16      -0.1225
     30  CA        58.4100   24.3230    8.5560 C.3    16  ASP16       0.1805
     31  C         58.0260   24.7740    9.9630 C.2    16  ASP16       0.2597
     32  O         58.8490   24.8470   10.8730 O.2    16  ASP16      -0.2718
     33  CB        59.3710   23.1170    8.5750 C.3    16  ASP16       0.1424
     34  CG        60.4480   23.2170    9.6350 C.2    16  ASP16       0.3668
     35  OD1       60.8540   22.1490   10.1480 O.co2  16  ASP16      -0.2456
     36  OD2       60.9010   24.3380    9.9460 O.co2  16  ASP16      -0.2456
     37  N         56.7510   25.1040   10.1210 N.am   17  TYR17      -0.1976
     38  CA        56.2470   25.5650   11.4040 C.3    17  TYR17       0.1639
     39  C         55.7750   24.4440   12.3150 C.2    17  TYR17       0.2290
     40  O         55.1530   24.6930   13.3450 O.2    17  TYR17      -0.2864
     41  CB        55.1250   26.5830   11.1960 C.3    17  TYR17       0.0560
     42  CG        55.6410   27.9490   10.8140 C.ar   17  TYR17      -0.0198
     43  CD1       56.0010   28.2440    9.4980 C.ar   17  TYR17      -0.0009
     44  CD2       55.8160   28.9370   11.7820 C.ar   17  TYR17      -0.0009
     45  CE1       56.5240   29.4910    9.1560 C.ar   17  TYR17       0.0417
     46  CE2       56.3380   30.1830   11.4550 C.ar   17  TYR17       0.0417
     47  CZ        56.6900   30.4540   10.1400 C.ar   17  TYR17       0.1957
     48  OH        57.2100   31.6870    9.8130 O.3    17  TYR17      -0.2866
     49  N         58.0160   22.3990   13.3190 N.3    19  SER19      -0.1217
     50  CA        59.2570   22.2100   14.0500 C.3    19  SER19       0.1889
     51  C         59.0890   22.8390   15.4320 C.2    19  SER19       0.2288
     52  O         58.2980   23.7610   15.5990 O.2    19  SER19      -0.2866
     53  CB        60.3900   22.9050   13.2920 C.3    19  SER19       0.2089
     54  OG        61.6210   22.2330   13.4710 O.3    19  SER19      -0.2183
     55  N         60.8970   24.9880   17.7710 N.3    21  MET21      -0.1230
     56  CA        62.0420   25.8800   17.9070 C.3    21  MET21       0.1702
     57  C         61.6270   27.1530   18.6250 C.2    21  MET21       0.2592
     58  O         60.4580   27.5450   18.5980 O.2    21  MET21      -0.2718
     59  CB        62.5890   26.2590   16.5240 C.3    21  MET21       0.0401
     60  CG        62.8690   25.0880   15.6100 C.3    21  MET21       0.0596
     61  SD        63.6960   25.5770   14.0960 S.3    21  MET21      -0.1393
     62  CE        65.3790   25.8280   14.7170 C.3    21  MET21       0.0692
     63  N         62.5940   27.8020   19.2560 N.am   22  MET22      -0.1965
     64  CA        62.3510   29.0430   19.9720 C.3    22  MET22       0.1736
     65  C         63.1310   30.1340   19.2690 C.2    22  MET22       0.2616
     66  O         64.2010   29.8820   18.7090 O.2    22  MET22      -0.2715
     67  CB        62.8520   28.9580   21.4150 C.3    22  MET22       0.0427
     68  CG        62.1580   27.9260   22.2910 C.3    22  MET22       0.0599
     69  SD        62.8480   26.2950   22.0930 S.3    22  MET22      -0.1393
     70  CE        64.4370   26.4640   22.9310 C.3    22  MET22       0.0692
     71  N         62.6160   31.3530   19.3260 N.am   23  GLN23      -0.1977
     72  CA        63.2980   32.4730   18.6980 C.3    23  GLN23       0.1601
     73  C         63.9590   33.3670   19.7390 C.2    23  GLN23       0.2287
     74  O         63.3020   33.8660   20.6540 O.2    23  GLN23      -0.2864
     75  CB        62.3100   33.2840   17.8610 C.3    23  GLN23       0.0394
     76  CG        62.9390   34.4850   17.1610 C.3    23  GLN23       0.0908
     77  CD        61.9640   35.1790   16.2330 C.2    23  GLN23       0.2608
     78  OE1       60.7920   35.3440   16.5640 O.2    23  GLN23      -0.2717
     79  NE2       62.4450   35.5910   15.0640 N.am   23  GLN23      -0.0878
     80  N         65.0250   36.4000   21.5570 N.3    25  GLY25      -0.1225
     81  CA        64.4730   37.7450   21.5280 C.3    25  GLY25       0.1811
     82  C         65.4880   38.8380   21.2310 C.2    25  GLY25       0.2280
     83  O         65.1160   39.9990   21.0480 O.2    25  GLY25      -0.2866
     84  N         66.9760   37.2590   16.9950 N.3    28  ASP28      -0.1239
     85  CA        65.9260   36.6990   16.1440 C.3    28  ASP28       0.1674
     86  C         66.2150   35.3330   15.5070 C.2    28  ASP28       0.2266
     87  O         65.4360   34.8710   14.6770 O.2    28  ASP28      -0.2867
     88  CB        65.5450   37.6810   15.0270 C.3    28  ASP28       0.1410
     89  CG        64.9610   38.9770   15.5560 C.2    28  ASP28       0.3668
     90  OD1       64.3250   38.9540   16.6310 O.co2  28  ASP28      -0.2456
     91  OD2       65.1220   40.0170   14.8860 O.co2  28  ASP28      -0.2456
     92  N         66.6220   31.1510   15.3120 N.3    30  TRP30      -0.1241
     93  CA        65.8620   30.0550   15.8820 C.3    30  TRP30       0.1605
     94  C         66.7440   28.9430   16.4110 C.2    30  TRP30       0.2264
     95  O         67.8150   28.6680   15.8690 O.2    30  TRP30      -0.2867
     96  CB        64.8860   29.5080   14.8470 C.3    30  TRP30       0.0550
     97  CG        63.8050   30.4880   14.4930 C.ar   30  TRP30       0.0003
     98  CD1       63.8650   31.4890   13.5550 C.ar   30  TRP30       0.0946
     99  CD2       62.5100   30.5750   15.0920 C.ar   30  TRP30       0.0152
    100  NE1       62.6820   32.1930   13.5390 N.ar   30  TRP30      -0.2442
    101  CE2       61.8340   31.6550   14.4740 C.ar   30  TRP30       0.0810
    102  CE3       61.8540   29.8480   16.0980 C.ar   30  TRP30       0.0012
    103  CZ2       60.5300   32.0180   14.8220 C.ar   30  TRP30       0.0191
    104  CZ3       60.5560   30.2100   16.4410 C.ar   30  TRP30       0.0001
    105  CH2       59.9100   31.2900   15.8040 C.ar   30  TRP30       0.0015
    106  N         58.5000   23.0190   26.2970 N.3    43  TYR43      -0.1227
    107  CA        58.2950   23.7950   25.0820 C.3    43  TYR43       0.1736
    108  C         56.9040   24.4410   25.0870 C.2    43  TYR43       0.2595
    109  O         56.7380   25.5990   24.6900 O.2    43  TYR43      -0.2718
    110  CB        58.4280   22.8880   23.8570 C.3    43  TYR43       0.0548
    111  CG        58.2140   23.6050   22.5390 C.ar   43  TYR43      -0.0200
    112  CD1       59.1630   24.5030   22.0470 C.ar   43  TYR43      -0.0009
    113  CD2       57.0650   23.3830   21.7850 C.ar   43  TYR43      -0.0009
    114  CE1       58.9720   25.1590   20.8260 C.ar   43  TYR43       0.0417
    115  CE2       56.8600   24.0330   20.5700 C.ar   43  TYR43       0.0417
    116  CZ        57.8220   24.9170   20.0940 C.ar   43  TYR43       0.1957
    117  OH        57.6380   25.5390   18.8810 O.3    43  TYR43      -0.2866
    118  N         55.9050   23.6880   25.5380 N.am   44  GLU44      -0.1979
    119  CA        54.5390   24.2020   25.5850 C.3    44  GLU44       0.1602
    120  C         54.4190   25.2900   26.6360 C.2    44  GLU44       0.2287
    121  O         53.7650   26.3100   26.4200 O.2    44  GLU44      -0.2864
    122  CB        53.5580   23.0770   25.9140 C.3    44  GLU44       0.0415
    123  CG        53.4330   22.0280   24.8420 C.3    44  GLU44       0.1163
    124  CD        52.6770   22.5310   23.6300 C.2    44  GLU44       0.3649
    125  OE1       52.1080   23.6430   23.6940 O.co2  44  GLU44      -0.2457
    126  OE2       52.6460   21.8100   22.6140 O.co2  44  GLU44      -0.2457
    127  N         56.7770   27.1950   27.6800 N.3    46  LEU46      -0.1231
    128  CA        57.4960   28.3480   27.1320 C.3    46  LEU46       0.1693
    129  C         56.6130   29.1030   26.1550 C.2    46  LEU46       0.2593
    130  O         56.6150   30.3300   26.1230 O.2    46  LEU46      -0.2718
    131  CB        58.7570   27.9030   26.3930 C.3    46  LEU46       0.0284
    132  CG        60.0980   28.0670   27.0970 C.3    46  LEU46       0.0019
    133  CD1       61.2070   27.7900   26.0930 C.3    46  LEU46       0.0001
    134  CD2       60.2310   29.4860   27.6430 C.3    46  LEU46       0.0001
    135  N         55.8750   28.3610   25.3380 N.am   47  SER47      -0.1938
    136  CA        54.9770   28.9720   24.3720 C.3    47  SER47       0.2055
    137  C         53.8330   29.6560   25.1140 C.2    47  SER47       0.2643
    138  O         52.9500   30.2470   24.4950 O.2    47  SER47      -0.2714
    139  CB        54.4120   27.9110   23.4230 C.3    47  SER47       0.2130
    140  OG        55.4370   27.3070   22.6580 O.3    47  SER47      -0.2179
    141  N         53.8630   29.5670   26.4420 N.am   48  ASN48      -0.1957
    142  CA        52.8380   30.1600   27.2970 C.3    48  ASN48       0.1819
    143  C         53.3670   31.2660   28.2090 C.2    48  ASN48       0.2621
    144  O         52.5800   32.0000   28.8090 O.2    48  ASN48      -0.2715
    145  CB        52.1820   29.0810   28.1640 C.3    48  ASN48       0.1195
    146  CG        50.7820   28.7450   27.7130 C.2    48  ASN48       0.2630
    147  OD1       50.5700   28.3160   26.5810 O.2    48  ASN48      -0.2716
    148  ND2       49.8110   28.9370   28.6010 N.am   48  ASN48      -0.0877
    149  N         54.6880   31.3810   28.3340 N.am   49  LEU49      -0.1964
    150  CA        55.2560   32.4230   29.1870 C.3    49  LEU49       0.1713
    151  C         54.7490   33.7830   28.7260 C.2    49  LEU49       0.2458
    152  O         54.2340   33.9230   27.6120 O.2    49  LEU49      -0.2730
    153  CB        56.7950   32.4020   29.1520 C.3    49  LEU49       0.0310
    154  CG        57.5340   31.2110   29.7780 C.3    49  LEU49       0.0022
    155  CD1       58.7460   31.7100   30.5590 C.3    49  LEU49       0.0001
    156  CD2       56.6040   30.4540   30.7110 C.3    49  LEU49       0.0001
    157  N         54.8830   34.8100   29.5780 N.am   50  PRO50      -0.2716
    158  CA        54.4020   36.1220   29.1530 C.3    50  PRO50       0.1536
    159  C         55.2790   36.6960   28.0540 C.2    50  PRO50       0.2598
    160  O         56.4660   36.3860   27.9630 O.2    50  PRO50      -0.2715
    161  CB        54.4650   36.9400   30.4380 C.3    50  PRO50       0.0310
    162  CG        55.6720   36.3740   31.1130 C.3    50  PRO50       0.0237
    163  CD        55.4760   34.8800   30.9260 C.3    50  PRO50       0.0939
    164  N         54.6760   37.5280   27.2160 N.am   51  GLU51      -0.1978
    165  CA        55.3850   38.1750   26.1250 C.3    51  GLU51       0.1602
    166  C         56.6150   38.8610   26.7280 C.2    51  GLU51       0.2287
    167  O         57.5550   39.2140   26.0210 O.2    51  GLU51      -0.2864
    168  CB        54.4470   39.1950   25.4790 C.3    51  GLU51       0.0415
    169  CG        54.7790   39.6020   24.0630 C.3    51  GLU51       0.1163
    170  CD        53.5350   40.0270   23.3010 C.2    51  GLU51       0.3649
    171  OE1       52.7420   39.1390   22.9150 O.co2  51  GLU51      -0.2457
    172  OE2       53.3390   41.2460   23.1050 O.co2  51  GLU51      -0.2457
    173  N         58.7520   37.4650   28.8610 N.3    53  VAL53      -0.1231
    174  CA        59.8770   36.5410   29.0470 C.3    53  VAL53       0.1692
    175  C         60.3770   35.9840   27.7180 C.2    53  VAL53       0.2592
    176  O         59.8160   35.0300   27.1820 O.2    53  VAL53      -0.2718
    177  CB        59.5000   35.3500   29.9540 C.3    53  VAL53       0.0266
    178  CG1       60.6980   34.4070   30.0960 C.3    53  VAL53       0.0020
    179  CG2       59.0600   35.8530   31.3180 C.3    53  VAL53       0.0020
    180  N         61.4490   36.5710   27.2010 N.am   54  ALA54      -0.1966
    181  CA        61.9980   36.1360   25.9260 C.3    54  ALA54       0.1728
    182  C         63.0410   35.0380   26.0440 C.2    54  ALA54       0.2616
    183  O         63.8550   35.0150   26.9710 O.2    54  ALA54      -0.2715
    184  CB        62.5940   37.3300   25.1790 C.3    54  ALA54       0.0334
    185  N         62.9950   34.1160   25.0920 N.am   55  TYR55      -0.1974
    186  CA        63.9630   33.0430   25.0440 C.3    55  TYR55       0.1639
    187  C         65.2120   33.7580   24.5760 C.2    55  TYR55       0.2290
    188  O         65.1250   34.7510   23.8550 O.2    55  TYR55      -0.2864
    189  CB        63.5660   31.9940   24.0110 C.3    55  TYR55       0.0560
    190  CG        64.7310   31.1390   23.5870 C.ar   55  TYR55      -0.0198
    191  CD1       65.2990   30.2210   24.4600 C.ar   55  TYR55      -0.0009
    192  CD2       65.3120   31.2960   22.3310 C.ar   55  TYR55      -0.0009
    193  CE1       66.4200   29.4820   24.0970 C.ar   55  TYR55       0.0417
    194  CE2       66.4350   30.5630   21.9580 C.ar   55  TYR55       0.0417
    195  CZ        66.9850   29.6620   22.8470 C.ar   55  TYR55       0.1957
    196  OH        68.1270   28.9680   22.5070 O.3    55  TYR55      -0.2866
    197  N         47.4320   23.5390   26.8320 N.3   166  TRP166     -0.1241
    198  CA        47.9790   22.5430   25.9160 C.3   166  TRP166      0.1605
    199  C         47.8920   21.1150   26.4480 C.2   166  TRP166      0.2264
    200  O         48.0730   20.1590   25.6950 O.2   166  TRP166     -0.2867
    201  CB        49.4470   22.8610   25.6500 C.3   166  TRP166      0.0550
    202  CG        50.1940   23.0480   26.9260 C.ar  166  TRP166      0.0003
    203  CD1       50.3070   24.2010   27.6490 C.ar  166  TRP166      0.0946
    204  CD2       50.8560   22.0310   27.6850 C.ar  166  TRP166      0.0152
    205  NE1       50.9960   23.9660   28.8150 N.ar  166  TRP166     -0.2442
    206  CE2       51.3430   22.6390   28.8620 C.ar  166  TRP166      0.0810
    207  CE3       51.0800   20.6580   27.4870 C.ar  166  TRP166      0.0012
    208  CZ2       52.0410   21.9230   29.8400 C.ar  166  TRP166      0.0191
    209  CZ3       51.7790   19.9460   28.4660 C.ar  166  TRP166      0.0001
    210  CH2       52.2480   20.5810   29.6230 C.ar  166  TRP166      0.0015
@<TRIPOS>BOND
     1    19    18   ar
     2    18    20   ar
     3    18    17    1
     4    27    26   ar
     5    17    14    1
     6    25    26    1
     7    25    22    1
     8    26    28   ar
     9    21    22    1
    10    21    15   am
    11    14    15    1
    12    14    13    1
    13    23    22    1
    14    23    24    2
    15    15    16    2
    16     4     3    2
    17    29    30    1
    18    13     3   am
    19     3     2    1
    20    30    33    1
    21    30    31    1
    22    33    34    1
    23     1     2    1
    24    45    43   ar
    25    45    47   ar
    26     2     5    1
    27    43    42   ar
    28    34    36   ar
    29    34    35   ar
    30    48    47    1
    31    31    37   am
    32    31    32    2
    33    37    38    1
    34    47    46   ar
    35     7     9   ar
    36     7     6   ar
    37     5     6    1
    38     9    11   ar
    39    42    41    1
    40    42    44   ar
    41     6     8   ar
    42    41    38    1
    43    38    39    1
    44    46    44   ar
    45    11    12    1
    46    11    10   ar
    47     8    10   ar
    48    39    40    2
    49    53    54    1
    50    53    50    1
    51    49    50    1
    52   100    98   ar
    53   100   101   ar
    54    98    97   ar
    55    50    51    1
    56    61    62    1
    57    61    60    1
    58   101   103   ar
    59   101    99   ar
    60    97    96    1
    61    97    99   ar
    62    87    86    2
    63   103   105   ar
    64    96    93    1
    65    91    89   ar
    66    88    89    1
    67    88    85    1
    68    79    77   am
    69    99   102   ar
    70    92    93    1
    71    51    52    2
    72    86    85    1
    73    89    90   ar
    74    60    59    1
    75   105   104   ar
    76    95    94    2
    77    93    94    1
    78   102   104   ar
    79    85    84    1
    80    77    78    2
    81    77    76    1
    82    59    56    1
    83    76    75    1
    84    55    56    1
    85    75    72    1
    86    56    57    1
    87    58    57    2
    88    57    63   am
    89    72    71    1
    90    72    73    1
    91    66    65    2
    92   117   116    1
    93    63    64    1
    94    65    71   am
    95    65    64    1
    96    73    74    2
    97    64    67    1
    98   116   115   ar
    99   116   114   ar
   100   115   113   ar
   101   114   112   ar
   102    83    82    2
   103    82    81    1
   104    67    68    1
   105    81    80    1
   106   113   111   ar
   107   194   192   ar
   108   194   195   ar
   109   112   111   ar
   110    69    68    1
   111    69    70    1
   112   192   190   ar
   113   196   195    1
   114   111   110    1
   115   126   124   ar
   116   140   139    1
   117   195   193   ar
   118   171   170   ar
   119   172   170   ar
   120   170   169    1
   121   139   136    1
   122   190   189    1
   123   190   191   ar
   124   124   125   ar
   125   124   123    1
   126   188   187    2
   127   110   107    1
   128   189   186    1
   129   169   168    1
   130   193   191   ar
   131   136   137    1
   132   136   135    1
   133   138   137    2
   134   187   186    1
   135   109   108    2
   136   123   122    1
   137   186   185    1
   138   107   108    1
   139   107   106    1
   140   108   118   am
   141   185   182   am
   142   137   141   am
   143   184   181    1
   144   135   129   am
   145   168   165    1
   146   118   119    1
   147   119   122    1
   148   119   120    1
   149   201   198    1
   150   201   202    1
   151   200   199    2
   152   198   199    1
   153   198   197    1
   154   181   182    1
   155   181   180    1
   156   167   166    2
   157   182   183    2
   158   133   132    1
   159   130   129    2
   160   165   166    1
   161   165   164    1
   162   129   128    1
   163   131   132    1
   164   131   128    1
   165   121   120    2
   166   141   142    1
   167   147   146    2
   168   202   203   ar
   169   202   204   ar
   170   132   134    1
   171   128   127    1
   172   176   175    2
   173   180   175   am
   174   164   159   am
   175   142   145    1
   176   142   143    1
   177   207   204   ar
   178   207   209   ar
   179   152   151    2
   180   203   205   ar
   181   204   206   ar
   182   146   145    1
   183   146   148   am
   184   175   174    1
   185   160   159    2
   186   159   158    1
   187   143   149   am
   188   143   144    2
   189   149   150    1
   190   209   210   ar
   191   151   150    1
   192   151   157   am
   193   205   206   ar
   194   173   174    1
   195   206   208   ar
   196   174   177    1
   197   153   150    1
   198   153   154    1
   199   158   157    1
   200   158   161    1
   201   157   163    1
   202   210   208   ar
   203   154   155    1
   204   154   156    1
   205   177   178    1
   206   177   179    1
   207   161   162    1
   208   163   162    1
