@<TRIPOS>MOLECULE
tmp/3lqsA00.pdb
 222 210 0 0 0
SMALL
GASTEIGER

@<TRIPOS>ATOM
      1  N         44.0140   23.4240   22.3800 N.3    31  TYR31      -0.1241
      2  CA        45.4770   23.2680   22.3500 C.3    31  TYR31       0.1605
      3  C         46.0270   23.6330   21.0000 C.2    31  TYR31       0.2264
      4  O         45.2750   23.8300   20.0360 O.2    31  TYR31      -0.2867
      5  CB        45.8830   21.8210   22.7110 C.3    31  TYR31       0.0534
      6  CG        45.6550   20.8390   21.5590 C.ar   31  TYR31      -0.0201
      7  CD1       44.3680   20.4300   21.2100 C.ar   31  TYR31      -0.0009
      8  CD2       46.7220   20.3790   20.7960 C.ar   31  TYR31      -0.0009
      9  CE1       44.1480   19.5440   20.1460 C.ar   31  TYR31       0.0417
     10  CE2       46.5190   19.4780   19.7330 C.ar   31  TYR31       0.0417
     11  CZ        45.2310   19.0700   19.4340 C.ar   31  TYR31       0.1957
     12  OH        45.0390   18.1930   18.3880 O.3    31  TYR31      -0.2866
     13  N         49.9610   23.0060   18.5670 N.3    33  VAL33      -0.1245
     14  CA        51.2840   22.4240   18.4040 C.3    33  VAL33       0.1561
     15  C         52.0210   23.3560   17.4320 C.2    33  VAL33       0.2260
     16  O         51.4910   23.6840   16.3870 O.2    33  VAL33      -0.2867
     17  CB        51.2260   20.9410   17.8540 C.3    33  VAL33       0.0252
     18  CG1       52.6390   20.4020   17.6200 C.3    33  VAL33       0.0019
     19  CG2       50.5000   20.0100   18.8490 C.3    33  VAL33       0.0019
     20  N         49.4990   30.3400   15.0100 N.3    47  HIS47      -0.1241
     21  CA        49.0670   29.3580   16.0300 C.3    47  HIS47       0.1621
     22  C         48.5130   30.0230   17.2870 C.2    47  HIS47       0.2264
     23  O         47.5000   29.5850   17.8290 O.2    47  HIS47      -0.2867
     24  CB        50.1820   28.3990   16.3760 C.3    47  HIS47       0.0745
     25  CG        50.4260   27.3690   15.3110 C.ar   47  HIS47       0.0817
     26  ND1       49.6760   26.2160   15.2040 N.ar   47  HIS47      -0.2268
     27  CD2       51.3110   27.3420   14.2890 C.ar   47  HIS47       0.1154
     28  CE1       50.1000   25.5150   14.1660 C.ar   47  HIS47       0.1986
     29  NE2       51.0880   26.1780   13.5890 N.ar   47  HIS47      -0.2212
     30  N         45.0710   31.2480   16.4630 N.3    50  ARG50      -0.1245
     31  CA        44.1220   30.1300   16.4860 C.3    50  ARG50       0.1563
     32  C         43.7980   29.5790   17.9080 C.2    50  ARG50       0.2260
     33  O         42.6760   29.2240   18.1710 O.2    50  ARG50      -0.2867
     34  CB        44.5320   28.9960   15.5400 C.3    50  ARG50       0.0307
     35  CG        43.3760   28.0150   15.2810 C.3    50  ARG50       0.0489
     36  CD        43.7720   26.9500   14.2500 C.3    50  ARG50       0.2205
     37  NE        44.8900   26.1390   14.7530 N.pl3  50  ARG50      -0.0865
     38  CZ        45.5060   25.2150   14.0350 C.cat  50  ARG50       0.5346
     39  NH1       45.0750   24.9930   12.7940 N.pl3  50  ARG50       0.1354
     40  NH2       46.5200   24.5140   14.5430 N.pl3  50  ARG50       0.1354
     41  N         58.8900   20.3540   18.5220 N.3    86  HIS86      -0.1241
     42  CA        57.6500   21.1350   18.6250 C.3    86  HIS86       0.1621
     43  C         57.3380   21.5390   20.0480 C.2    86  HIS86       0.2264
     44  O         57.9030   20.9830   21.0090 O.2    86  HIS86      -0.2867
     45  CB        56.4530   20.3830   17.9890 C.3    86  HIS86       0.0745
     46  CG        56.1740   19.0730   18.6410 C.ar   86  HIS86       0.0817
     47  ND1       56.5600   17.8700   18.0980 N.ar   86  HIS86      -0.2268
     48  CD2       55.5690   18.7820   19.8200 C.ar   86  HIS86       0.1154
     49  CE1       56.1990   16.8920   18.9090 C.ar   86  HIS86       0.1986
     50  NE2       55.6110   17.4210   19.9670 N.ar   86  HIS86      -0.2212
     51  N         62.2190   16.5340   17.8580 N.3   118  ASN118     -0.1240
     52  CA        61.5370   15.6880   16.8910 C.3   118  ASN118      0.1653
     53  C         61.9310   16.1350   15.4950 C.2   118  ASN118      0.2266
     54  O         61.5030   17.2130   15.0320 O.2   118  ASN118     -0.2867
     55  CB        60.0000   15.7890   17.0410 C.3   118  ASN118      0.1155
     56  CG        59.2700   14.6220   16.3880 C.2   118  ASN118      0.2627
     57  OD1       59.5590   13.4640   16.6670 O.2   118  ASN118     -0.2716
     58  ND2       58.2930   14.9270   15.5370 N.am  118  ASN118     -0.0877
     59  N         33.0310   11.9710   14.3360 N.3   138  ARG138     -0.1245
     60  CA        33.3330   13.0250   15.2990 C.3   138  ARG138      0.1563
     61  C         32.1520   14.0000   15.4940 C.2   138  ARG138      0.2260
     62  O         31.1640   13.9420   14.7610 O.2   138  ARG138     -0.2867
     63  CB        34.6130   13.7540   14.8590 C.3   138  ARG138      0.0307
     64  CG        35.8860   12.8880   14.9760 C.3   138  ARG138      0.0489
     65  CD        37.1150   13.6330   14.4280 C.3   138  ARG138      0.2205
     66  NE        36.8650   14.1250   13.0540 N.pl3 138  ARG138     -0.0865
     67  CZ        37.5250   15.1380   12.4850 C.cat 138  ARG138      0.5346
     68  NH1       38.4740   15.7840   13.1730 N.pl3 138  ARG138      0.1354
     69  NH2       37.2050   15.5350   11.2570 N.pl3 138  ARG138      0.1354
     70  N         39.7360   23.5530   17.8810 N.3   145  LYS145     -0.1245
     71  CA        40.8470   22.6380   18.1480 C.3   145  LYS145      0.1561
     72  C         40.7910   22.2930   19.6420 C.2   145  LYS145      0.2260
     73  O         41.5420   22.8650   20.4630 O.2   145  LYS145     -0.2867
     74  CB        42.1990   23.2770   17.7460 C.3   145  LYS145      0.0271
     75  CG        43.3220   22.2750   17.6100 C.3   145  LYS145      0.0035
     76  CD        44.5380   22.9580   16.9750 C.3   145  LYS145      0.0206
     77  CE        45.7930   22.1300   17.0910 C.3   145  LYS145      0.1093
     78  NZ        45.6750   20.8700   16.2980 N.3   145  LYS145     -0.1314
     79  N         39.2890   14.4810   21.6490 N.3   149  LEU149     -0.1245
     80  CA        40.0390   13.8900   20.5380 C.3   149  LEU149      0.1561
     81  C         39.8260   12.3730   20.4450 C.2   149  LEU149      0.2260
     82  O         40.5730   11.6760   19.7240 O.2   149  LEU149     -0.2867
     83  CB        41.5220   14.1950   20.6900 C.3   149  LEU149      0.0270
     84  CG        41.8730   15.6720   20.4660 C.3   149  LEU149      0.0019
     85  CD1       43.3100   15.9190   20.9420 C.3   149  LEU149      0.0001
     86  CD2       41.6860   16.0410   18.9910 C.3   149  LEU149      0.0001
     87  N         39.3690   10.9050   16.8810 N.3   152  ALA152     -0.1245
     88  CA        40.6580   10.8840   16.1750 C.3   152  ALA152      0.1562
     89  C         41.6040    9.8170   16.7050 C.2   152  ALA152      0.2260
     90  O         42.3390    9.2090   15.9450 O.2   152  ALA152     -0.2867
     91  CB        41.3240   12.2650   16.2080 C.3   152  ALA152      0.0290
     92  N         43.1040    6.9670   14.2420 N.3   156  LYS156     -0.1245
     93  CA        44.5630    6.7830   14.1400 C.3   156  LYS156      0.1561
     94  C         44.9880    5.3590   14.5150 C.2   156  LYS156      0.2260
     95  O         45.8150    4.7630   13.8340 O.2   156  LYS156     -0.2867
     96  CB        45.3380    7.7740   15.0160 C.3   156  LYS156      0.0271
     97  CG        46.8770    7.7640   14.7330 C.3   156  LYS156      0.0035
     98  CD        47.2500    8.5450   13.4820 C.3   156  LYS156      0.0206
     99  CE        47.4220   10.0160   13.7890 C.3   156  LYS156      0.1093
    100  NZ        47.5410   10.8410   12.5080 N.3   156  LYS156     -0.1314
    101  N         49.9750    5.1740    7.8130 N.3   165  TYR165     -0.1241
    102  CA        50.4280    6.3570    8.5220 C.3   165  TYR165      0.1605
    103  C         49.2690    7.2350    9.0350 C.2   165  TYR165      0.2264
    104  O         49.3720    7.8640   10.0950 O.2   165  TYR165     -0.2867
    105  CB        51.3200    7.1980    7.5920 C.3   165  TYR165      0.0534
    106  CG        51.8470    8.4970    8.1960 C.ar  165  TYR165     -0.0201
    107  CD1       52.9160    8.4880    9.1020 C.ar  165  TYR165     -0.0009
    108  CD2       51.3040    9.7290    7.8350 C.ar  165  TYR165     -0.0009
    109  CE1       53.4170    9.6660    9.6610 C.ar  165  TYR165      0.0417
    110  CE2       51.8020   10.9430    8.4040 C.ar  165  TYR165      0.0417
    111  CZ        52.8540   10.8900    9.3000 C.ar  165  TYR165      0.1957
    112  OH        53.3550   12.0520    9.8480 O.3   165  TYR165     -0.2866
    113  N         38.8880   15.4580    6.4660 N.3   177  GLU177     -0.1231
    114  CA        40.3020   15.6840    6.7760 C.3   177  GLU177      0.1699
    115  C         40.8660   14.3680    7.3210 C.2   177  GLU177      0.2593
    116  O         40.1790   13.3270    7.3080 O.2   177  GLU177     -0.2718
    117  CB        40.4580   16.8190    7.7920 C.3   177  GLU177      0.0402
    118  CG        39.7210   16.5150    9.1190 C.3   177  GLU177      0.1161
    119  CD        39.7620   17.6600   10.1130 C.2   177  GLU177      0.3649
    120  OE1       40.6440   18.5400    9.9830 O.co2 177  GLU177     -0.2457
    121  OE2       38.9300   17.6340   11.0550 O.co2 177  GLU177     -0.2457
    122  N         42.1140   14.4010    7.7880 N.am  178  GLY178     -0.1942
    123  CA        42.7710   13.2410    8.3600 C.3   178  GLY178      0.2014
    124  C         42.5280   13.2610    9.8510 C.2   178  GLY178      0.2640
    125  O         42.0690   14.2660   10.3900 O.2   178  GLY178     -0.2714
    126  N         42.7930   12.1380   10.5180 N.am  179  SER179     -0.1935
    127  CA        42.6160   12.0780   11.9730 C.3   179  SER179      0.2055
    128  C         43.5170   13.1060   12.6490 C.2   179  SER179      0.2644
    129  O         43.1720   13.6100   13.7210 O.2   179  SER179     -0.2714
    130  CB        42.8640   10.6750   12.5350 C.3   179  SER179      0.2130
    131  OG        44.2190   10.2970   12.4340 O.3   179  SER179     -0.2179
    132  N         44.6540   13.4410   12.0390 N.am  180  SER180     -0.1935
    133  CA        45.3880   14.6250   12.5080 C.3   180  SER180      0.2055
    134  C         46.0640   15.4230   11.3970 C.2   180  SER180      0.2644
    135  O         47.2250   15.8250   11.5260 O.2   180  SER180     -0.2714
    136  CB        46.3890   14.2380   13.5980 C.3   180  SER180      0.2130
    137  OG        47.4100   13.4460   13.0550 O.3   180  SER180     -0.2179
    138  N         45.3510   15.6450   10.3040 N.am  181  SER181     -0.1935
    139  CA        45.9140   16.3620    9.1710 C.3   181  SER181      0.2055
    140  C         44.7920   16.8940    8.3160 C.2   181  SER181      0.2643
    141  O         43.6070   16.5700    8.5640 O.2   181  SER181     -0.2714
    142  CB        46.8210   15.4240    8.3460 C.3   181  SER181      0.2130
    143  OG        46.0950   14.3000    7.8830 O.3   181  SER181     -0.2179
    144  N         45.1480   17.7340    7.3360 N.am  182  ASN182     -0.1971
    145  CA        44.2020   18.1070    6.2880 C.3   182  ASN182      0.1688
    146  C         44.5490   17.3080    5.0360 C.2   182  ASN182      0.2292
    147  O         45.6630   16.8250    4.9270 O.2   182  ASN182     -0.2864
    148  CB        44.2100   19.6110    6.0340 C.3   182  ASN182      0.1181
    149  CG        43.5930   20.4120    7.2060 C.2   182  ASN182      0.2629
    150  OD1       44.3040   21.1330    7.9020 O.2   182  ASN182     -0.2716
    151  ND2       42.2720   20.2880    7.4050 N.am  182  ASN182     -0.0877
    152  N         39.2110   21.0410   10.8040 N.3   201  LEU201     -0.1245
    153  CA        40.0640   22.0640   11.3580 C.3   201  LEU201      0.1561
    154  C         40.6760   22.8680   10.2360 C.2   201  LEU201      0.2260
    155  O         41.2200   22.2820    9.2820 O.2   201  LEU201     -0.2867
    156  CB        41.2290   21.4130   12.0880 C.3   201  LEU201      0.0270
    157  CG        41.9080   22.0300   13.3140 C.3   201  LEU201      0.0019
    158  CD1       43.4310   21.9150   13.2910 C.3   201  LEU201      0.0001
    159  CD2       41.3990   23.3730   13.7900 C.3   201  LEU201      0.0001
    160  N         43.5640   24.0400    9.1750 N.3   203  GLY203     -0.1210
    161  CA        44.9960   23.8460    9.5150 C.3   203  GLY203      0.1956
    162  C         45.8770   25.0580    9.1850 C.2   203  GLY203      0.2612
    163  O         45.6630   25.7380    8.1720 O.2   203  GLY203     -0.2717
    164  N         46.8490   25.3620   10.0370 N.am  204  ILE204     -0.1965
    165  CA        47.8380   26.3790    9.6510 C.3   204  ILE204      0.1727
    166  C         48.6610   25.8700    8.4300 C.2   204  ILE204      0.2617
    167  O         48.8840   26.6160    7.4660 O.2   204  ILE204     -0.2715
    168  CB        48.7490   26.8050   10.8290 C.3   204  ILE204      0.0290
    169  CG1       47.9000   27.3180   11.9940 C.3   204  ILE204      0.0022
    170  CG2       49.8200   27.8780   10.3840 C.3   204  ILE204      0.0023
    171  CD1       46.9170   28.3440   11.5770 C.3   204  ILE204      0.0001
    172  N         49.0490   24.6000    8.4400 N.am  205  THR205     -0.1937
    173  CA        49.8540   24.0800    7.3150 C.3   205  THR205      0.2028
    174  C         49.0190   24.0930    6.0090 C.2   205  THR205      0.2642
    175  O         49.5300   24.4400    4.9470 O.2   205  THR205     -0.2714
    176  CB        50.3030   22.6490    7.5600 C.3   205  THR205      0.1808
    177  OG1       50.8440   22.5440    8.8960 O.3   205  THR205     -0.2208
    178  CG2       51.4160   22.2410    6.4960 C.3   205  THR205      0.0379
    179  N         47.7470   23.7130    6.1190 N.am  206  ARG206     -0.1977
    180  CA        46.7840   23.8160    5.0160 C.3   206  ARG206      0.1597
    181  C         46.8460   25.2020    4.4120 C.2   206  ARG206      0.2287
    182  O         46.9100   25.3580    3.1770 O.2   206  ARG206     -0.2864
    183  CB        45.3640   23.5680    5.5740 C.3   206  ARG206      0.0334
    184  CG        44.1960   23.7160    4.5820 C.3   206  ARG206      0.0492
    185  CD        42.8670   23.7620    5.3670 C.3   206  ARG206      0.2205
    186  NE        41.6950   23.8200    4.4870 N.pl3 206  ARG206     -0.0865
    187  CZ        41.1640   24.9370    4.0140 C.cat 206  ARG206      0.5346
    188  NH1       41.6920   26.1400    4.2930 N.pl3 206  ARG206      0.1354
    189  NH2       40.1240   24.8510    3.1870 N.pl3 206  ARG206      0.1354
    190  N         48.5860   17.2960    5.2570 N.3   239  THR239     -0.1203
    191  CA        49.3850   18.3720    5.8170 C.3   239  THR239      0.1994
    192  C         49.1270   18.4670    7.3190 C.2   239  THR239      0.2619
    193  O         47.9700   18.3060    7.7620 O.2   239  THR239     -0.2717
    194  CB        49.0320   19.7230    5.1630 C.3   239  THR239      0.1784
    195  OG1       47.6490   20.0450    5.4090 O.3   239  THR239     -0.2211
    196  CG2       49.2990   19.7110    3.5940 C.3   239  THR239      0.0376
    197  N         50.1720   18.7390    8.0910 N.am  240  SER240     -0.1937
    198  CA        50.0040   19.1580    9.4900 C.3   240  SER240      0.2055
    199  C         51.2920   19.8050    9.9320 C.2   240  SER240      0.2644
    200  O         52.3170   19.7580    9.2140 O.2   240  SER240     -0.2714
    201  CB        49.6740   17.9840   10.4230 C.3   240  SER240      0.2130
    202  OG        50.8300   17.2000   10.6530 O.3   240  SER240     -0.2179
    203  N         51.2670   20.3960   11.1170 N.am  241  THR241     -0.1936
    204  CA        52.4670   21.0700   11.6460 C.3   241  THR241      0.2028
    205  C         53.6740   20.1310   11.7070 C.2   241  THR241      0.2643
    206  O         54.7900   20.5490   11.4580 O.2   241  THR241     -0.2714
    207  CB        52.1470   21.6880   13.0340 C.3   241  THR241      0.1808
    208  OG1       51.1640   22.6950   12.8330 O.3   241  THR241     -0.2208
    209  CG2       53.3280   22.3280   13.6690 C.3   241  THR241      0.0379
    210  N         53.4660   18.8660   12.0250 N.am  242  THR242     -0.1936
    211  CA        54.5680   17.9200   12.1110 C.3   242  THR242      0.2028
    212  C         54.8100   17.1160   10.8100 C.2   242  THR242      0.2642
    213  O         55.9500   16.7840   10.4670 O.2   242  THR242     -0.2714
    214  CB        54.3630   17.0070   13.3220 C.3   242  THR242      0.1808
    215  OG1       53.0060   16.5920   13.3410 O.3   242  THR242     -0.2208
    216  CG2       54.6390   17.7530   14.5970 C.3   242  THR242      0.0379
    217  N         53.7370   16.8320   10.0720 N.am  243  SER243     -0.1949
    218  CA        53.8270   16.0390    8.8550 C.3   243  SER243      0.1924
    219  C         54.2610   16.8660    7.6410 C.2   243  SER243      0.2314
    220  O         54.6210   16.2860    6.6180 O.2   243  SER243     -0.2863
    221  CB        52.4790   15.3860    8.5320 C.3   243  SER243      0.2116
    222  OG        52.2280   14.2980    9.4070 O.3   243  SER243     -0.2180
@<TRIPOS>BOND
     1   182   181    2
     2   189   187    1
     3   196   194    1
     4   187   188    1
     5   187   186    2
     6   181   180    1
     7   186   185    1
     8   184   185    1
     9   184   183    1
    10   147   146    2
    11   175   174    2
    12   180   183    1
    13   180   179    1
    14   146   145    1
    15   194   195    1
    16   194   191    1
    17   190   191    1
    18   191   192    1
    19   174   179   am
    20   174   173    1
    21   148   145    1
    22   148   149    1
    23   145   144    1
    24   113   114    1
    25   178   176    1
    26   220   219    2
    27   114   115    1
    28   114   117    1
    29   149   151   am
    30   149   150    2
    31   116   115    2
    32   173   176    1
    33   173   172    1
    34   192   193    2
    35   192   197   am
    36   115   122   am
    37   144   140   am
    38   167   166    2
    39   176   177    1
    40   105   106    1
    41   105   102    1
    42   219   218    1
    43   122   123    1
    44   117   118    1
    45   101   102    1
    46   108   106   ar
    47   108   110   ar
    48   143   142    1
    49   197   198    1
    50   163   162    2
    51   106   107   ar
    52   140   141    2
    53   140   139    1
    54   142   139    1
    55   123   124    1
    56   110   111   ar
    57   166   172   am
    58   166   165    1
    59   102   103    1
    60   221   218    1
    61   221   222    1
    62   218   217    1
    63   103   104    2
    64   107   109   ar
    65   118   119    1
    66   139   138    1
    67   160   161    1
    68   162   161    1
    69   162   164   am
    70   200   199    2
    71   155   154    2
    72   111   109   ar
    73   111   112    1
    74   198   199    1
    75   198   201    1
    76   165   164    1
    77   165   168    1
    78   124   125    2
    79   124   126   am
    80   199   203   am
    81   120   119   ar
    82   217   212   am
    83   119   121   ar
    84   154   153    1
    85   138   134   am
    86   170   168    1
    87   201   202    1
    88   213   212    2
    89   126   127    1
    90   152   153    1
    91   212   211    1
    92   168   169    1
    93   203   204    1
    94    69    67    1
    95   153   156    1
    96   134   135    2
    97   134   133    1
    98   206   205    2
    99   171   169    1
   100   204   205    1
   101   204   207    1
   102   205   210   am
   103   127   130    1
   104   127   128    1
   105   210   211    1
   106   132   133    1
   107   132   128   am
   108   156   157    1
   109   211   214    1
   110   131   130    1
   111    67    66    2
   112    67    68    1
   113   100    99    1
   114   133   136    1
   115   128   129    2
   116    39    38    1
   117   208   207    1
   118   207   209    1
   119    66    65    1
   120   137   136    1
   121   158   157    1
   122   157   159    1
   123   214   215    1
   124   214   216    1
   125    98    99    1
   126    98    97    1
   127    29    28   ar
   128    29    27   ar
   129    95    94    2
   130    38    40    1
   131    38    37    2
   132    93    92    1
   133    93    94    1
   134    93    96    1
   135    28    26   ar
   136    36    37    1
   137    36    35    1
   138    27    25   ar
   139    59    60    1
   140    65    64    1
   141    97    96    1
   142    62    61    2
   143    63    64    1
   144    63    60    1
   145    20    21    1
   146    54    53    2
   147    26    25   ar
   148    35    34    1
   149    60    61    1
   150    25    24    1
   151    53    52    1
   152    58    56   am
   153    34    31    1
   154    90    89    2
   155    21    24    1
   156    21    22    1
   157    88    91    1
   158    88    89    1
   159    88    87    1
   160    78    77    1
   161    16    15    2
   162    56    57    2
   163    56    55    1
   164    30    31    1
   165    31    32    1
   166    52    55    1
   167    52    51    1
   168    76    77    1
   169    76    75    1
   170    22    23    2
   171    15    14    1
   172    75    74    1
   173    18    17    1
   174    74    71    1
   175    17    14    1
   176    17    19    1
   177    70    71    1
   178    32    33    2
   179    45    42    1
   180    45    46    1
   181    47    46   ar
   182    47    49   ar
   183    71    72    1
   184    12    11    1
   185    14    13    1
   186    41    42    1
   187    42    43    1
   188    46    48   ar
   189    49    50   ar
   190    86    84    1
   191    11    10   ar
   192    11     9   ar
   193    72    73    2
   194    82    81    2
   195    10     8   ar
   196    48    50   ar
   197     4     3    2
   198    43    44    2
   199     9     7   ar
   200    81    80    1
   201    84    83    1
   202    84    85    1
   203    80    83    1
   204    80    79    1
   205     8     6   ar
   206     3     2    1
   207     7     6   ar
   208     6     5    1
   209     2     1    1
   210     2     5    1
