@<TRIPOS>MOLECULE
tmp/3lquA00.pdb
 134 124 0 0 0
SMALL
GASTEIGER

@<TRIPOS>ATOM
      1  N          1.7360  -30.7000   27.3160 N.3    30  ARG30      -0.1231
      2  CA         1.2500  -30.2650   26.0170 C.3    30  ARG30       0.1694
      3  C          0.6530  -28.8540   26.1200 C.2    30  ARG30       0.2591
      4  O          1.3490  -27.8990   26.4850 O.2    30  ARG30      -0.2718
      5  CB         0.2340  -31.2730   25.4720 C.3    30  ARG30       0.0321
      6  CG        -0.1530  -31.0520   24.0170 C.3    30  ARG30       0.0489
      7  CD        -1.2080  -32.0440   23.5770 C.3    30  ARG30       0.2205
      8  NE        -1.7930  -31.6910   22.2850 N.pl3  30  ARG30      -0.0865
      9  CZ        -2.9480  -31.0420   22.1280 C.cat  30  ARG30       0.5346
     10  NH1       -3.6580  -30.6630   23.1880 N.pl3  30  ARG30       0.1354
     11  NH2       -3.3990  -30.7860   20.9040 N.pl3  30  ARG30       0.1354
     12  N         -0.6320  -28.7270   25.8010 N.am   31  GLU31      -0.1979
     13  CA        -1.3360  -27.4570   25.9310 C.3    31  GLU31       0.1602
     14  C         -1.4330  -27.0490   27.3990 C.2    31  GLU31       0.2287
     15  O         -1.4400  -25.8590   27.7370 O.2    31  GLU31      -0.2864
     16  CB        -2.7390  -27.5960   25.3580 C.3    31  GLU31       0.0415
     17  CG        -3.1530  -26.4750   24.4540 C.3    31  GLU31       0.1163
     18  CD        -3.7970  -26.9900   23.1960 C.2    31  GLU31       0.3649
     19  OE1       -4.9540  -27.4600   23.2760 O.co2  31  GLU31      -0.2457
     20  OE2       -3.1370  -26.9480   22.1350 O.co2  31  GLU31      -0.2457
     21  N         -4.1390  -27.3360   29.0740 N.3    33  GLU33      -0.1245
     22  CA        -5.3960  -26.6210   29.2090 C.3    33  GLU33       0.1567
     23  C         -6.5620  -27.5820   29.3620 C.2    33  GLU33       0.2260
     24  O         -6.4560  -28.7610   29.0190 O.2    33  GLU33      -0.2867
     25  CB        -5.6330  -25.7080   27.9990 C.3    33  GLU33       0.0388
     26  CG        -4.8890  -24.3780   28.0570 C.3    33  GLU33       0.1160
     27  CD        -4.7760  -23.7260   26.6950 C.2    33  GLU33       0.3649
     28  OE1       -5.5250  -24.1460   25.7800 O.co2  33  GLU33      -0.2457
     29  OE2       -3.9320  -22.8170   26.5410 O.co2  33  GLU33      -0.2457
     30  N        -10.7570  -27.6300   28.3630 N.3    35  ASP35      -0.1239
     31  CA       -11.6730  -26.9730   27.4470 C.3    35  ASP35       0.1674
     32  C        -13.1390  -27.1870   27.7930 C.2    35  ASP35       0.2266
     33  O        -13.5990  -28.3160   27.9000 O.2    35  ASP35      -0.2867
     34  CB       -11.4260  -27.4550   26.0220 C.3    35  ASP35       0.1410
     35  CG       -10.3930  -26.6260   25.3040 C.2    35  ASP35       0.3668
     36  OD1       -9.4650  -26.1050   25.9670 O.co2  35  ASP35      -0.2456
     37  OD2      -10.5200  -26.4960   24.0680 O.co2  35  ASP35      -0.2456
     38  N        -12.2880  -16.9500   22.1930 N.3    58  ILE58      -0.1245
     39  CA       -12.0980  -17.5260   20.8670 C.3    58  ILE58       0.1561
     40  C        -12.8170  -18.8660   20.7940 C.2    58  ILE58       0.2260
     41  O        -12.1890  -19.9180   20.9090 O.2    58  ILE58      -0.2867
     42  CB       -10.6130  -17.7340   20.5680 C.3    58  ILE58       0.0252
     43  CG1       -9.8650  -16.4230   20.7750 C.3    58  ILE58       0.0019
     44  CG2      -10.4080  -18.2960   19.1510 C.3    58  ILE58       0.0019
     45  CD1       -8.3690  -16.5910   20.7970 C.3    58  ILE58       0.0001
     46  N        -14.6190  -22.0110   19.3170 N.3    60  CYS60      -0.1235
     47  CA       -14.4760  -22.7590   18.0780 C.3    60  CYS60       0.1677
     48  C        -15.4980  -23.8620   17.9290 C.2    60  CYS60       0.2270
     49  O        -16.0360  -24.3650   18.9110 O.2    60  CYS60      -0.2867
     50  CB       -13.0830  -23.3720   17.9840 C.3    60  CYS60       0.0956
     51  SG       -11.7570  -22.1980   18.2360 S.3    60  CYS60      -0.0801
     52  N          0.8560  -26.3260   17.1590 N.3    84  TYR84      -0.1241
     53  CA         0.0100  -27.4460   17.5010 C.3    84  TYR84       0.1605
     54  C         -0.7180  -27.9710   16.2900 C.2    84  TYR84       0.2264
     55  O         -1.6470  -28.7690   16.4130 O.2    84  TYR84      -0.2867
     56  CB        -0.9580  -27.0570   18.6160 C.3    84  TYR84       0.0534
     57  CG        -0.2340  -26.8250   19.9140 C.ar   84  TYR84      -0.0201
     58  CD1        0.2070  -27.8990   20.6790 C.ar   84  TYR84      -0.0009
     59  CD2        0.0480  -25.5380   20.3610 C.ar   84  TYR84      -0.0009
     60  CE1        0.8860  -27.7040   21.8700 C.ar   84  TYR84       0.0417
     61  CE2        0.7280  -25.3270   21.5540 C.ar   84  TYR84       0.0417
     62  CZ         1.1450  -26.4180   22.3080 C.ar   84  TYR84       0.1957
     63  OH         1.8260  -26.2320   23.4970 O.3    84  TYR84      -0.2866
     64  N         -2.9170  -26.8820   14.8830 N.3    86  THR86      -0.1218
     65  CA        -4.3450  -26.6950   15.1300 C.3    86  THR86       0.1862
     66  C         -5.0800  -26.4420   13.8350 C.2    86  THR86       0.2287
     67  O         -4.6490  -25.6310   13.0210 O.2    86  THR86      -0.2866
     68  CB        -4.6220  -25.5300   16.0750 C.3    86  THR86       0.1770
     69  OG1       -4.0850  -25.8290   17.3700 O.3    86  THR86      -0.2211
     70  CG2       -6.1330  -25.2920   16.1860 C.3    86  THR86       0.0375
     71  N         -7.3880  -24.9210   12.1160 N.3    88  PHE88      -0.1241
     72  CA        -8.2800  -23.8220   11.8130 C.3    88  PHE88       0.1605
     73  C         -8.6590  -23.8290   10.3370 C.2    88  PHE88       0.2264
     74  O         -7.7950  -23.9420    9.4510 O.2    88  PHE88      -0.2867
     75  CB        -7.6170  -22.4950   12.1490 C.3    88  PHE88       0.0534
     76  CG        -7.7470  -22.0920   13.5760 C.ar   88  PHE88      -0.0203
     77  CD1       -8.9180  -21.5400   14.0410 C.ar   88  PHE88      -0.0042
     78  CD2       -6.6810  -22.2260   14.4430 C.ar   88  PHE88      -0.0042
     79  CE1       -9.0320  -21.1520   15.3460 C.ar   88  PHE88      -0.0003
     80  CE2       -6.7940  -21.8400   15.7550 C.ar   88  PHE88      -0.0003
     81  CZ        -7.9680  -21.3000   16.2080 C.ar   88  PHE88      -0.0000
     82  N        -12.8170  -25.8950   13.5780 N.3   133  LEU133     -0.1245
     83  CA       -11.5910  -26.6780   13.6510 C.3   133  LEU133      0.1561
     84  C        -11.8460  -28.0180   12.9900 C.2   133  LEU133      0.2260
     85  O        -12.7670  -28.7400   13.3690 O.2   133  LEU133     -0.2867
     86  CB       -11.1850  -26.9070   15.1070 C.3   133  LEU133      0.0270
     87  CG       -10.9880  -25.6600   15.9630 C.3   133  LEU133      0.0019
     88  CD1      -10.6120  -26.0690   17.3860 C.3   133  LEU133      0.0001
     89  CD2       -9.9480  -24.7100   15.3370 C.3   133  LEU133      0.0001
     90  N         -4.6300  -37.8230   16.3000 N.3   143  ARG143     -0.1245
     91  CA        -4.1530  -36.6080   16.9440 C.3   143  ARG143      0.1563
     92  C         -4.7750  -36.4740   18.3290 C.2   143  ARG143      0.2260
     93  O         -5.9880  -36.5480   18.4720 O.2   143  ARG143     -0.2867
     94  CB        -4.5020  -35.3930   16.0840 C.3   143  ARG143      0.0307
     95  CG        -3.9580  -34.0700   16.6140 C.3   143  ARG143      0.0489
     96  CD        -4.1080  -32.9400   15.5860 C.3   143  ARG143      0.2205
     97  NE        -3.6470  -31.6680   16.1300 N.pl3 143  ARG143     -0.0865
     98  CZ        -4.3940  -30.8770   16.8880 C.cat 143  ARG143      0.5346
     99  NH1       -5.6400  -31.2240   17.1770 N.pl3 143  ARG143      0.1354
    100  NH2       -3.8970  -29.7390   17.3510 N.pl3 143  ARG143      0.1354
    101  N         -7.6710  -31.3690   21.9120 N.3   146  HIS146     -0.1226
    102  CA        -9.0400  -31.0140   22.2490 C.3   146  HIS146      0.1752
    103  C         -9.9920  -31.1430   21.0620 C.2   146  HIS146      0.2596
    104  O        -11.0630  -31.7260   21.1930 O.2   146  HIS146     -0.2718
    105  CB        -9.0930  -29.6060   22.8360 C.3   146  HIS146      0.0759
    106  CG        -8.4020  -29.4820   24.1580 C.ar  146  HIS146      0.0818
    107  ND1       -7.1180  -28.9930   24.2850 N.ar  146  HIS146     -0.2268
    108  CD2       -8.8150  -29.7900   25.4120 C.ar  146  HIS146      0.1154
    109  CE1       -6.7720  -29.0080   25.5600 C.ar  146  HIS146      0.1986
    110  NE2       -7.7830  -29.4880   26.2640 N.ar  146  HIS146     -0.2212
    111  N         -9.6130  -30.6110   19.9050 N.am  147  THR147     -0.1953
    112  CA       -10.4560  -30.7440   18.7140 C.3   147  THR147      0.1897
    113  C        -10.9690  -32.1740   18.5570 C.2   147  THR147      0.2313
    114  O        -12.1760  -32.3990   18.4820 O.2   147  THR147     -0.2863
    115  CB        -9.7120  -30.3290   17.4180 C.3   147  THR147      0.1794
    116  OG1       -9.2800  -28.9680   17.5250 O.3   147  THR147     -0.2208
    117  CG2      -10.6220  -30.4640   16.2030 C.3   147  THR147      0.0378
    118  N        -16.0500  -25.5230   21.6180 N.3   165  LEU165     -0.1245
    119  CA       -14.9820  -25.6530   22.5970 C.3   165  LEU165      0.1561
    120  C        -14.2880  -24.3150   22.8350 C.2   165  LEU165      0.2260
    121  O        -14.3280  -23.4330   21.9780 O.2   165  LEU165     -0.2867
    122  CB       -13.9990  -26.7580   22.1770 C.3   165  LEU165      0.0270
    123  CG       -12.5660  -26.4790   21.7130 C.3   165  LEU165      0.0019
    124  CD1      -11.8730  -27.7670   21.2880 C.3   165  LEU165      0.0001
    125  CD2      -12.5500  -25.5030   20.5730 C.3   165  LEU165      0.0001
    126  N        -10.9870  -22.4840   25.7290 N.3   167  GLU167     -0.1245
    127  CA       -10.0860  -22.5880   26.8790 C.3   167  GLU167      0.1567
    128  C        -10.5930  -21.8310   28.1010 C.2   167  GLU167      0.2260
    129  O        -11.0060  -20.6890   27.9900 O.2   167  GLU167     -0.2867
    130  CB        -8.7040  -22.0580   26.5180 C.3   167  GLU167      0.0388
    131  CG        -8.1530  -22.6130   25.2180 C.3   167  GLU167      0.1160
    132  CD        -8.4300  -21.7160   24.0280 C.2   167  GLU167      0.3649
    133  OE1       -9.6090  -21.3960   23.7780 O.co2 167  GLU167     -0.2457
    134  OE2       -7.4640  -21.3340   23.3390 O.co2 167  GLU167     -0.2457
@<TRIPOS>BOND
     1    74    73    2
     2    73    72    1
     3    72    71    1
     4    72    75    1
     5    75    76    1
     6    84    85    2
     7    84    83    1
     8    67    66    2
     9    76    77   ar
    10    76    78   ar
    11    82    83    1
    12    83    86    1
    13    66    65    1
    14    77    79   ar
    15    78    80   ar
    16    64    65    1
    17    86    87    1
    18    65    68    1
    19    89    87    1
    20    79    81   ar
    21    96    97    1
    22    96    95    1
    23    80    81   ar
    24    87    88    1
    25    68    70    1
    26    68    69    1
    27    94    95    1
    28    94    91    1
    29    97    98    2
    30   117   115    1
    31    54    55    2
    32    54    53    1
    33    90    91    1
    34    98    99    1
    35    98   100    1
    36    91    92    1
    37    52    53    1
    38   115   116    1
    39   115   112    1
    40    53    56    1
    41    48    47    1
    42    48    49    2
    43    50    47    1
    44    50    51    1
    45    47    46    1
    46    92    93    2
    47   114   113    2
    48   113   112    1
    49    56    57    1
    50   112   111    1
    51    44    42    1
    52   111   103   am
    53    57    59   ar
    54    57    58   ar
    55    59    61   ar
    56    42    43    1
    57    42    39    1
    58   125   123    1
    59    58    60   ar
    60    43    45    1
    61    40    39    1
    62    40    41    2
    63    39    38    1
    64    11     9    1
    65   103   104    2
    66   103   102    1
    67   124   123    1
    68    61    62   ar
    69   118   119    1
    70   123   122    1
    71    60    62   ar
    72   101   102    1
    73   121   120    2
    74     9     8    2
    75     9    10    1
    76    20    18   ar
    77   122   119    1
    78   102   105    1
    79     8     7    1
    80    62    63    1
    81   119   120    1
    82   105   106    1
    83    18    19   ar
    84    18    17    1
    85   134   132   ar
    86     7     6    1
    87   133   132   ar
    88     6     5    1
    89   132   131    1
    90    37    35   ar
    91   106   107   ar
    92   106   108   ar
    93   107   109   ar
    94    17    16    1
    95   131   130    1
    96    35    36   ar
    97    35    34    1
    98    16    13    1
    99   108   110   ar
   100     5     2    1
   101   109   110   ar
   102   126   127    1
   103    28    27   ar
   104    12    13    1
   105    12     3   am
   106    13    14    1
   107     2     3    1
   108     2     1    1
   109    34    31    1
   110     3     4    2
   111   130   127    1
   112    29    27   ar
   113    27    26    1
   114   127   128    1
   115    14    15    2
   116    31    32    1
   117    31    30    1
   118    32    33    2
   119   129   128    2
   120    25    26    1
   121    25    22    1
   122    24    23    2
   123    21    22    1
   124    22    23    1
