@<TRIPOS>MOLECULE
tmp/3lqvB00.pdb
 107 105 0 0 0
SMALL
GASTEIGER

@<TRIPOS>ATOM
      1  N          4.1730   21.7570   36.7340 N.3    12  TYR12      -0.1241
      2  CA         5.2440   22.5860   37.2480 C.3    12  TYR12       0.1605
      3  C          5.6230   23.6480   36.2060 C.2    12  TYR12       0.2264
      4  O          5.9210   23.3210   35.0530 O.2    12  TYR12      -0.2867
      5  CB         6.4480   21.6980   37.5590 C.3    12  TYR12       0.0534
      6  CG         7.6260   22.4300   38.1350 C.ar   12  TYR12      -0.0201
      7  CD1        7.4810   23.2450   39.2600 C.ar   12  TYR12      -0.0009
      8  CD2        8.8940   22.3030   37.5640 C.ar   12  TYR12      -0.0009
      9  CE1        8.5590   23.9030   39.8180 C.ar   12  TYR12       0.0417
     10  CE2        9.9840   22.9650   38.1100 C.ar   12  TYR12       0.0417
     11  CZ         9.7840   23.7550   39.2460 C.ar   12  TYR12       0.1957
     12  OH        10.8330   24.4040   39.7900 O.3    12  TYR12      -0.2866
     13  N          8.0340   27.0080   35.0150 N.3    14  ARG14      -0.1245
     14  CA         9.2800   27.7570   35.1500 C.3    14  ARG14       0.1563
     15  C          9.2980   28.9680   34.2140 C.2    14  ARG14       0.2260
     16  O          8.5550   29.0290   33.2510 O.2    14  ARG14      -0.2867
     17  CB        10.4910   26.8750   34.8610 C.3    14  ARG14       0.0307
     18  CG        10.6750   25.6420   35.7540 C.3    14  ARG14       0.0489
     19  CD        12.0990   25.0340   35.6670 C.3    14  ARG14       0.2205
     20  NE        12.8050   25.3980   34.4540 N.pl3  14  ARG14      -0.0865
     21  CZ        13.1910   24.5520   33.5010 C.cat  14  ARG14       0.5346
     22  NH1       13.8190   25.0210   32.4190 N.pl3  14  ARG14       0.1354
     23  NH2       12.9660   23.2480   33.6350 N.pl3  14  ARG14       0.1354
     24  N          3.1740   25.8020   40.7720 N.3    51  TYR51      -0.1241
     25  CA         2.4060   24.5810   40.5380 C.3    51  TYR51       0.1605
     26  C          0.9610   24.9450   40.1940 C.2    51  TYR51       0.2264
     27  O          0.3180   25.7200   40.9170 O.2    51  TYR51      -0.2867
     28  CB         2.4470   23.6950   41.7850 C.3    51  TYR51       0.0534
     29  CG         3.8140   23.1430   42.0290 C.ar   51  TYR51      -0.0201
     30  CD1        4.6390   23.6630   43.0290 C.ar   51  TYR51      -0.0009
     31  CD2        4.2900   22.0860   41.2620 C.ar   51  TYR51      -0.0009
     32  CE1        5.9600   23.1260   43.2520 C.ar   51  TYR51       0.0417
     33  CE2        5.5600   21.5620   41.4690 C.ar   51  TYR51       0.0417
     34  CZ         6.3910   22.0950   42.4670 C.ar   51  TYR51       0.1957
     35  OH         7.6490   21.5610   42.6450 O.3    51  TYR51      -0.2866
     36  N          5.8060   21.8420   32.6700 N.3    80  LEU80      -0.1231
     37  CA         6.1200   20.4120   32.7740 C.3    80  LEU80       0.1693
     38  C          5.0940   19.6790   33.6350 C.2    80  LEU80       0.2592
     39  O          4.4390   20.2870   34.4690 O.2    80  LEU80      -0.2718
     40  CB         7.5120   20.1840   33.3690 C.3    80  LEU80       0.0284
     41  CG         8.7670   20.9520   32.9790 C.3    80  LEU80       0.0019
     42  CD1        9.7280   20.7090   34.0780 C.3    80  LEU80       0.0001
     43  CD2        9.3810   20.4450   31.6770 C.3    80  LEU80       0.0001
     44  N          4.9670   18.3720   33.4360 N.am   81  TYR81      -0.1962
     45  CA         4.1790   17.5620   34.3260 C.3    81  TYR81       0.1771
     46  C          4.8690   17.4900   35.6760 C.2    81  TYR81       0.2620
     47  O          6.0970   17.3570   35.7530 O.2    81  TYR81      -0.2715
     48  CB         3.9700   16.1620   33.7550 C.3    81  TYR81       0.0574
     49  CG         3.0110   16.1210   32.5770 C.ar   81  TYR81      -0.0198
     50  CD1        3.4680   15.7880   31.2880 C.ar   81  TYR81      -0.0009
     51  CD2        1.6580   16.4440   32.7450 C.ar   81  TYR81      -0.0009
     52  CE1        2.6000   15.7570   30.2040 C.ar   81  TYR81       0.0417
     53  CE2        0.7630   16.4190   31.6500 C.ar   81  TYR81       0.0417
     54  CZ         1.2440   16.0670   30.4030 C.ar   81  TYR81       0.1957
     55  OH         0.3870   16.0410   29.3500 O.3    81  TYR81      -0.2866
     56  N          4.0760   17.5710   36.7600 N.am   82  TYR82      -0.1960
     57  CA         4.6680   17.3030   38.0680 C.3    82  TYR82       0.1771
     58  C          5.2950   15.9040   38.1680 C.2    82  TYR82       0.2619
     59  O          4.7610   14.8960   37.6590 O.2    82  TYR82      -0.2715
     60  CB         3.6560   17.4980   39.1260 C.3    82  TYR82       0.0574
     61  CG         3.9800   17.0000   40.5120 C.ar   82  TYR82      -0.0198
     62  CD1        4.3600   17.8920   41.5050 C.ar   82  TYR82      -0.0009
     63  CD2        3.7970   15.6650   40.8500 C.ar   82  TYR82      -0.0009
     64  CE1        4.5910   17.4570   42.7900 C.ar   82  TYR82       0.0417
     65  CE2        4.0100   15.2210   42.1300 C.ar   82  TYR82       0.0417
     66  CZ         4.4200   16.1220   43.1100 C.ar   82  TYR82       0.1957
     67  OH         4.6470   15.7010   44.4190 O.3    82  TYR82      -0.2866
     68  N          6.4610   15.8870   38.8120 N.am   83  ASN83      -0.1972
     69  CA         7.1730   14.6840   39.1530 C.3    83  ASN83       0.1688
     70  C          7.6060   14.7950   40.6330 C.2    83  ASN83       0.2292
     71  O          8.3560   15.6950   40.9960 O.2    83  ASN83      -0.2864
     72  CB         8.3330   14.5070   38.1650 C.3    83  ASN83       0.1181
     73  CG         9.1190   13.2230   38.3940 C.2    83  ASN83       0.2629
     74  OD1        9.8630   13.1100   39.3600 O.2    83  ASN83      -0.2716
     75  ND2        8.9600   12.2550   37.4980 N.am   83  ASN83      -0.0877
     76  N         11.3830   14.9140   41.3170 N.3    86  ARG86      -0.1231
     77  CA        11.9360   16.2180   41.0720 C.3    86  ARG86       0.1694
     78  C         11.4710   17.2190   42.1150 C.2    86  ARG86       0.2591
     79  O         12.3060   17.9630   42.6220 O.2    86  ARG86      -0.2718
     80  CB        11.6520   16.6870   39.6640 C.3    86  ARG86       0.0321
     81  CG        12.3830   15.8980   38.6260 C.3    86  ARG86       0.0489
     82  CD        13.6910   16.5750   38.2540 C.3    86  ARG86       0.2205
     83  NE        14.3360   15.9320   37.1090 N.pl3  86  ARG86      -0.0865
     84  CZ        15.0360   14.7900   37.1740 C.cat  86  ARG86       0.5346
     85  NH1       15.6040   14.2870   36.0730 N.pl3  86  ARG86       0.1354
     86  NH2       15.1590   14.1280   38.3310 N.pl3  86  ARG86       0.1354
     87  N         10.1810   17.1980   42.4710 N.am   87  ALA87      -0.1980
     88  CA         9.6040   18.0800   43.4830 C.3    87  ALA87       0.1597
     89  C         10.3380   18.1150   44.8290 C.2    87  ALA87       0.2287
     90  O         10.3690   19.1460   45.4760 O.2    87  ALA87      -0.2864
     91  CB         8.1300   17.7600   43.6950 C.3    87  ALA87       0.0319
     92  N         13.6990   17.1650   45.2830 N.3    89  GLN89      -0.1245
     93  CA        15.1490   17.0000   45.0080 C.3    89  GLN89       0.1566
     94  C         16.0220   17.8280   45.9660 C.2    89  GLN89       0.2260
     95  O         17.1190   17.4150   46.3010 O.2    89  GLN89      -0.2867
     96  CB        15.5080   17.2860   43.5380 C.3    89  GLN89       0.0367
     97  CG        15.2410   18.7300   43.0870 C.3    89  GLN89       0.0905
     98  CD        15.1720   18.9060   41.5520 C.2    89  GLN89       0.2608
     99  OE1       15.8490   18.1890   40.7890 O.2    89  GLN89      -0.2717
    100  NE2       14.3580   19.8760   41.1030 N.am   89  GLN89      -0.0878
    101  N         11.9270   11.5490   36.1860 N.3   114  PRO114     -0.2116
    102  CA        11.3790   11.7090   34.8290 C.3   114  PRO114      0.1372
    103  C         11.8710   10.6610   33.8180 C.2   114  PRO114      0.2244
    104  O         13.0550   10.2710   33.8350 O.2   114  PRO114     -0.2868
    105  CB        11.8460   13.1080   34.4220 C.3   114  PRO114      0.0268
    106  CG        11.9590   13.8380   35.6810 C.3   114  PRO114      0.0207
    107  CD        12.3300   12.8450   36.7580 C.3   114  PRO114      0.0892
@<TRIPOS>BOND
     1    55    54    1
     2    52    54   ar
     3    52    50   ar
     4    54    53   ar
     5    50    49   ar
     6    53    51   ar
     7    43    41    1
     8    22    21    1
     9    49    51   ar
    10    49    48    1
    11    36    37    1
    12    37    40    1
    13    37    38    1
    14    41    40    1
    15    41    42    1
    16    16    15    2
    17    44    38   am
    18    44    45    1
    19    21    23    1
    20    21    20    2
    21    38    39    2
    22    48    45    1
    23   103   104    2
    24   103   102    1
    25    15    14    1
    26    45    46    1
    27   105   102    1
    28   105   106    1
    29    20    19    1
    30   102   101    1
    31    17    14    1
    32    17    18    1
    33    13    14    1
    34     4     3    2
    35    19    18    1
    36    46    47    2
    37    46    56   am
    38   106   107    1
    39    85    84    1
    40   101   107    1
    41     3     2    1
    42     1     2    1
    43    56    57    1
    44    83    84    2
    45    83    82    1
    46    84    86    1
    47     2     5    1
    48    75    73   am
    49     5     6    1
    50     8    10   ar
    51     8     6   ar
    52    59    58    2
    53    57    58    1
    54    57    60    1
    55    10    11   ar
    56     6     7   ar
    57    72    73    1
    58    72    69    1
    59    58    68   am
    60    82    81    1
    61    73    74    2
    62    81    80    1
    63    68    69    1
    64    60    61    1
    65    69    70    1
    66    11    12    1
    67    11     9   ar
    68     7     9   ar
    69    80    77    1
    70    26    25    1
    71    26    27    2
    72    61    63   ar
    73    61    62   ar
    74    25    24    1
    75    25    28    1
    76    70    71    2
    77    99    98    2
    78    63    65   ar
    79    77    76    1
    80    77    78    1
    81   100    98   am
    82    31    33   ar
    83    31    29   ar
    84    33    34   ar
    85    62    64   ar
    86    98    97    1
    87    28    29    1
    88    29    30   ar
    89    78    87   am
    90    78    79    2
    91    65    66   ar
    92    34    35    1
    93    34    32   ar
    94    87    88    1
    95    64    66   ar
    96    30    32   ar
    97    97    96    1
    98    66    67    1
    99    88    91    1
   100    88    89    1
   101    96    93    1
   102    89    90    2
   103    93    92    1
   104    93    94    1
   105    94    95    2
