@<TRIPOS>MOLECULE
tmp/3lreA00.pdb
 132 127 0 0 0
SMALL
GASTEIGER

@<TRIPOS>ATOM
      1  N         45.9210   39.5960   23.0440 N.3     6  ARG6       -0.1231
      2  CA        46.5950   40.8700   23.2100 C.3     6  ARG6        0.1694
      3  C         47.7910   40.8580   24.2110 C.2     6  ARG6        0.2592
      4  O         47.6170   40.6960   25.4340 O.2     6  ARG6       -0.2718
      5  CB        45.5880   41.9360   23.6370 C.3     6  ARG6        0.0321
      6  CG        46.1610   43.3020   23.5410 C.3     6  ARG6        0.0489
      7  CD        45.2880   44.3810   24.0080 C.3     6  ARG6        0.2205
      8  NE        45.8070   45.6510   23.5350 N.pl3   6  ARG6       -0.0865
      9  CZ        45.2920   46.8330   23.7780 C.cat   6  ARG6        0.5346
     10  NH1       44.1910   46.9490   24.5060 N.pl3   6  ARG6        0.1354
     11  NH2       45.8610   47.9080   23.2440 N.pl3   6  ARG6        0.1354
     12  N         48.9800   41.1110   23.6720 N.am    7  VAL7       -0.1966
     13  CA        50.2180   41.1460   24.4290 C.3     7  VAL7        0.1727
     14  C         50.4750   42.5850   24.8130 C.2     7  VAL7        0.2616
     15  O         50.6800   43.4490   23.9520 O.2     7  VAL7       -0.2715
     16  CB        51.4310   40.5860   23.5790 C.3     7  VAL7        0.0290
     17  CG1       52.6860   40.4220   24.4280 C.3     7  VAL7        0.0023
     18  CG2       51.0890   39.2330   22.9040 C.3     7  VAL7        0.0023
     19  N         50.4350   42.8620   26.1120 N.am    8  ARG8       -0.1964
     20  CA        50.6620   44.2080   26.6010 C.3     8  ARG8        0.1714
     21  C         52.1580   44.5290   26.6020 C.2     8  ARG8        0.2458
     22  O         52.9610   43.6210   26.6510 O.2     8  ARG8       -0.2730
     23  CB        50.0600   44.3890   28.0050 C.3     8  ARG8        0.0347
     24  CG        50.8210   43.7570   29.1660 C.3     8  ARG8        0.0492
     25  CD        50.5680   44.4620   30.5080 C.3     8  ARG8        0.2205
     26  NE        51.0150   43.6300   31.6120 N.pl3   8  ARG8       -0.0865
     27  CZ        52.2930   43.4540   31.9380 C.cat   8  ARG8        0.5346
     28  NH1       53.2570   44.0650   31.2400 N.pl3   8  ARG8        0.1354
     29  NH2       52.6220   42.6520   32.9550 N.pl3   8  ARG8        0.1354
     30  N         52.5280   45.8040   26.5840 N.am    9  PRO9       -0.2727
     31  CA        53.9440   46.1860   26.7280 C.3     9  PRO9        0.1402
     32  C         54.3500   46.0950   28.1960 C.2     9  PRO9        0.2269
     33  O         53.5170   46.3280   29.0920 O.2     9  PRO9       -0.2865
     34  CB        53.9630   47.6580   26.3050 C.3     9  PRO9        0.0296
     35  CG        52.6470   48.1630   26.7980 C.3     9  PRO9        0.0237
     36  CD        51.6610   46.9880   26.5050 C.3     9  PRO9        0.0939
     37  N         55.9320   47.2690   31.6910 N.3    11  ASN11      -0.1240
     38  CA        55.9460   48.5680   32.3800 C.3    11  ASN11       0.1653
     39  C         57.3770   49.0200   32.6900 C.2    11  ASN11       0.2266
     40  O         58.3200   48.2520   32.4580 O.2    11  ASN11      -0.2867
     41  CB        55.0880   48.5790   33.6630 C.3    11  ASN11       0.1155
     42  CG        55.4130   47.4280   34.6280 C.2    11  ASN11       0.2627
     43  OD1       56.5310   47.3090   35.1590 O.2    11  ASN11      -0.2716
     44  ND2       54.4140   46.5860   34.8760 N.am   11  ASN11      -0.0877
     45  N         52.5970   44.6240   21.4330 N.3    48  GLU48      -0.1245
     46  CA        52.8510   45.6630   22.4160 C.3    48  GLU48       0.1567
     47  C         52.5150   47.0550   21.9220 C.2    48  GLU48       0.2260
     48  O         52.2870   47.9310   22.7240 O.2    48  GLU48      -0.2867
     49  CB        54.3410   45.6130   22.8740 C.3    48  GLU48       0.0388
     50  CG        54.9020   44.1820   23.0620 C.3    48  GLU48       0.1160
     51  CD        56.1120   44.0610   24.0210 C.2    48  GLU48       0.3649
     52  OE1       56.8830   45.0480   24.1810 O.co2  48  GLU48      -0.2457
     53  OE2       56.2980   42.9600   24.5980 O.co2  48  GLU48      -0.2457
     54  N         49.9860   47.7410   19.7230 N.3    50  SER50      -0.1217
     55  CA        48.5700   47.8270   19.3620 C.3    50  SER50       0.1889
     56  C         47.8570   48.9910   20.0300 C.2    50  SER50       0.2288
     57  O         48.0520   49.2750   21.1940 O.2    50  SER50      -0.2866
     58  CB        47.8490   46.5210   19.7250 C.3    50  SER50       0.2089
     59  OG        47.7850   46.3180   21.1470 O.3    50  SER50      -0.2183
     60  N         45.0710   36.7040   33.2200 N.3    80  ALA80      -0.1231
     61  CA        45.5530   36.8380   34.5660 C.3    80  ALA80       0.1694
     62  C         45.5640   38.3130   34.9040 C.2    80  ALA80       0.2593
     63  O         45.5430   39.1420   34.0130 O.2    80  ALA80      -0.2718
     64  CB        46.9790   36.1890   34.6890 C.3    80  ALA80       0.0304
     65  N         45.5330   38.6190   36.2000 N.am   81  THR81      -0.1939
     66  CA        45.6170   39.9640   36.7070 C.3    81  THR81       0.2028
     67  C         46.9140   40.6240   36.2460 C.2    81  THR81       0.2643
     68  O         48.0010   39.9960   36.2070 O.2    81  THR81      -0.2714
     69  CB        45.5590   39.9250   38.2410 C.3    81  THR81       0.1808
     70  OG1       44.3250   39.3420   38.6360 O.3    81  THR81      -0.2208
     71  CG2       45.4580   41.3060   38.8600 C.3    81  THR81       0.0379
     72  N         46.7910   41.9130   35.9230 N.am   82  GLY82      -0.1939
     73  CA        47.8530   42.6580   35.2710 C.3    82  GLY82       0.2014
     74  C         48.0610   42.4250   33.7850 C.2    82  GLY82       0.2639
     75  O         48.8390   43.1460   33.1950 O.2    82  GLY82      -0.2714
     76  N         47.3800   41.4840   33.1520 N.am   83  ALA83      -0.1963
     77  CA        47.6590   41.2470   31.7390 C.3    83  ALA83       0.1728
     78  C         47.0860   42.2860   30.7350 C.2    83  ALA83       0.2617
     79  O         47.6180   42.4350   29.6160 O.2    83  ALA83      -0.2715
     80  CB        47.2740   39.8970   31.3700 C.3    83  ALA83       0.0334
     81  N         46.0260   42.9890   31.0970 N.am   84  GLY84      -0.1940
     82  CA        45.3940   43.9560   30.1820 C.3    84  GLY84       0.2014
     83  C         43.8660   43.9940   29.9950 C.2    84  GLY84       0.2639
     84  O         43.3720   44.7090   29.1210 O.2    84  GLY84      -0.2714
     85  N         43.1150   43.2010   30.7530 N.am   85  LYS85      -0.1963
     86  CA        41.6810   43.0610   30.5240 C.3    85  LYS85       0.1728
     87  C         40.9970   44.4100   30.6490 C.2    85  LYS85       0.2617
     88  O         40.2430   44.8440   29.7790 O.2    85  LYS85      -0.2715
     89  CB        41.0570   42.0640   31.5170 C.3    85  LYS85       0.0311
     90  CG        41.6190   40.6630   31.4720 C.3    85  LYS85       0.0038
     91  CD        40.9240   39.6850   32.4350 C.3    85  LYS85       0.0206
     92  CE        41.2800   39.8830   33.9620 C.3    85  LYS85       0.1093
     93  NZ        42.7770   40.0720   34.2980 N.3    85  LYS85      -0.1314
     94  N         41.2610   45.0950   31.7590 N.am   86  THR86      -0.1937
     95  CA        40.6270   46.3820   31.9890 C.3    86  THR86       0.2028
     96  C         41.0430   47.4880   31.0400 C.2    86  THR86       0.2642
     97  O         40.2370   48.3460   30.7040 O.2    86  THR86      -0.2714
     98  CB        40.8210   46.8130   33.4200 C.3    86  THR86       0.1808
     99  OG1       40.1660   45.8700   34.2780 O.3    86  THR86      -0.2208
    100  CG2       40.0900   48.0990   33.6960 C.3    86  THR86       0.0379
    101  N         42.3110   47.5370   30.6860 N.am   87  HIS87      -0.1959
    102  CA        42.8350   48.5580   29.7910 C.3    87  HIS87       0.1787
    103  C         42.1640   48.3210   28.4460 C.2    87  HIS87       0.2620
    104  O         41.7900   49.2460   27.7560 O.2    87  HIS87      -0.2715
    105  CB        44.3490   48.3670   29.6300 C.3    87  HIS87       0.0785
    106  CG        44.9670   49.3090   28.6340 C.ar   87  HIS87       0.0821
    107  ND1       45.3460   50.5990   28.9620 N.ar   87  HIS87      -0.2267
    108  CD2       45.2430   49.1550   27.3210 C.ar   87  HIS87       0.1154
    109  CE1       45.8100   51.2020   27.8830 C.ar   87  HIS87       0.1986
    110  NE2       45.7660   50.3450   26.8740 N.ar   87  HIS87      -0.2212
    111  N         42.0440   47.0560   28.0660 N.am   88  THR88      -0.1951
    112  CA        41.3750   46.7130   26.8160 C.3    88  THR88       0.1897
    113  C         39.8950   47.0990   26.8190 C.2    88  THR88       0.2313
    114  O         39.4430   47.7060   25.8600 O.2    88  THR88      -0.2863
    115  CB        41.5420   45.2710   26.5370 C.3    88  THR88       0.1794
    116  OG1       42.9400   44.9990   26.2870 O.3    88  THR88      -0.2208
    117  CG2       40.8230   44.8700   25.2710 C.3    88  THR88       0.0378
    118  N         42.0750   53.8240   29.5170 N.3    92  SER92      -0.1217
    119  CA        42.4750   54.9250   30.4130 C.3    92  SER92       0.1889
    120  C         41.9550   56.2620   29.9040 C.2    92  SER92       0.2288
    121  O         41.3080   56.3380   28.8300 O.2    92  SER92      -0.2866
    122  CB        44.0020   54.9810   30.5270 C.3    92  SER92       0.2089
    123  OG        44.5890   55.0070   29.2320 O.3    92  SER92      -0.2183
    124  N         43.4070   56.7160   26.5360 N.3    95  GLU95      -0.1245
    125  CA        43.0180   55.7270   25.5480 C.3    95  GLU95       0.1567
    126  C         41.7430   54.9430   25.9470 C.2    95  GLU95       0.2260
    127  O         41.8320   53.8600   26.5030 O.2    95  GLU95      -0.2867
    128  CB        44.1750   54.7590   25.3600 C.3    95  GLU95       0.0388
    129  CG        45.4620   55.3520   24.8410 C.3    95  GLU95       0.1160
    130  CD        46.5500   54.3160   24.9120 C.2    95  GLU95       0.3649
    131  OE1       46.6610   53.4860   23.9830 O.co2  95  GLU95      -0.2457
    132  OE2       47.2240   54.3020   25.9490 O.co2  95  GLU95      -0.2457
@<TRIPOS>BOND
     1    55    54    1
     2    55    58    1
     3    55    56    1
     4    58    59    1
     5    56    57    2
     6    45    46    1
     7    47    46    1
     8    47    48    2
     9    46    49    1
    10    49    50    1
    11    18    16    1
    12     1     2    1
    13    50    51    1
    14     2     5    1
    15     2     3    1
    16    11     9    1
    17     8     9    2
    18     8     7    1
    19     6     5    1
    20     6     7    1
    21    16    17    1
    22    16    13    1
    23    12     3   am
    24    12    13    1
    25     9    10    1
    26    15    14    2
    27   131   130   ar
    28    51    52   ar
    29    51    53   ar
    30     3     4    2
    31    13    14    1
    32    14    19   am
    33   129   130    1
    34   129   128    1
    35   130   132   ar
    36   117   115    1
    37   128   125    1
    38   125   126    1
    39   125   124    1
    40   114   113    2
    41   126   127    2
    42    19    20    1
    43   116   115    1
    44    34    31    1
    45    34    35    1
    46    36    30    1
    47    36    35    1
    48   115   112    1
    49    30    21   am
    50    30    31    1
    51    20    21    1
    52    20    23    1
    53    21    22    2
    54    31    32    1
    55   112   113    1
    56   112   111    1
    57   110   108   ar
    58   110   109   ar
    59   108   106   ar
    60   104   103    2
    61   109   107   ar
    62    23    24    1
    63   111   103   am
    64    32    33    2
    65   103   102    1
    66   106   107   ar
    67   106   105    1
    68   121   120    2
    69    84    83    2
    70    24    25    1
    71   123   122    1
    72   118   119    1
    73    79    78    2
    74   105   102    1
    75    88    87    2
    76   102   101    1
    77   120   119    1
    78    83    82    1
    79    83    85   am
    80    82    81    1
    81   119   122    1
    82    25    26    1
    83    86    87    1
    84    86    85    1
    85    86    89    1
    86    87    94   am
    87   101    96   am
    88    97    96    2
    89    78    81   am
    90    78    77    1
    91    96    95    1
    92    28    27    1
    93    80    77    1
    94    90    89    1
    95    90    91    1
    96    26    27    2
    97    37    38    1
    98    77    76    1
    99    94    95    1
   100    27    29    1
   101    95    98    1
   102    38    39    1
   103    38    41    1
   104    91    92    1
   105    40    39    2
   106    76    74   am
   107    75    74    2
   108    60    61    1
   109    98   100    1
   110    98    99    1
   111    41    42    1
   112    74    73    1
   113    92    93    1
   114    63    62    2
   115    61    64    1
   116    61    62    1
   117    42    44   am
   118    42    43    2
   119    62    65   am
   120    73    72    1
   121    72    67   am
   122    65    66    1
   123    68    67    2
   124    67    66    1
   125    66    69    1
   126    69    70    1
   127    69    71    1
