@<TRIPOS>MOLECULE
tmp/3lreB00.pdb
 128 123 0 0 0
SMALL
GASTEIGER

@<TRIPOS>ATOM
      1  N         63.2260   82.6750   17.2150 N.3     8  ARG8       -0.1231
      2  CA        64.3310   83.4860   16.7140 C.3     8  ARG8        0.1694
      3  C         63.8930   84.2970   15.5210 C.2     8  ARG8        0.2592
      4  O         63.4770   83.7490   14.4910 O.2     8  ARG8       -0.2718
      5  CB        65.5280   82.5890   16.3470 C.3     8  ARG8        0.0321
      6  CG        66.7390   83.3800   16.0040 C.3     8  ARG8        0.0489
      7  CD        67.8980   82.5930   15.4810 C.3     8  ARG8        0.2205
      8  NE        69.0840   83.4480   15.5430 N.pl3   8  ARG8       -0.0865
      9  CZ        70.3170   83.0710   15.2010 C.cat   8  ARG8        0.5346
     10  NH1       70.5910   81.8440   14.7360 N.pl3   8  ARG8        0.1354
     11  NH2       71.3010   83.9230   15.3300 N.pl3   8  ARG8        0.1354
     12  N         63.9820   85.6080   15.6890 N.am    9  VAL9       -0.1966
     13  CA        63.5570   86.6140   14.7200 C.3     9  VAL9        0.1727
     14  C         64.7980   87.0770   14.0150 C.2     9  VAL9        0.2616
     15  O         65.7160   87.6120   14.6520 O.2     9  VAL9       -0.2715
     16  CB        62.9830   87.8760   15.4440 C.3     9  VAL9        0.0290
     17  CG1       62.4500   88.8810   14.4230 C.3     9  VAL9        0.0023
     18  CG2       61.9420   87.4890   16.5180 C.3     9  VAL9        0.0023
     19  N         64.8850   86.7810   12.7300 N.am   10  ARG10      -0.1964
     20  CA        66.0510   87.1570   11.9360 C.3    10  ARG10       0.1714
     21  C         66.0590   88.6390   11.5720 C.2    10  ARG10       0.2458
     22  O         64.9910   89.2600   11.5970 O.2    10  ARG10      -0.2730
     23  CB        66.0960   86.3560   10.6550 C.3    10  ARG10       0.0347
     24  CG        65.0470   86.6610    9.6740 C.3    10  ARG10       0.0492
     25  CD        65.4560   86.1410    8.2570 C.3    10  ARG10       0.2205
     26  NE        64.4030   86.2850    7.2510 N.pl3  10  ARG10      -0.0865
     27  CZ        64.1180   87.4220    6.6230 C.cat  10  ARG10       0.5346
     28  NH1       64.7490   88.5410    6.9410 N.pl3  10  ARG10       0.1354
     29  NH2       63.1710   87.4540    5.6990 N.pl3  10  ARG10       0.1354
     30  N         67.2330   89.1880   11.2430 N.am   11  PRO11      -0.2727
     31  CA        67.3120   90.5470   10.7070 C.3    11  PRO11       0.1402
     32  C         66.7790   90.5970    9.3010 C.2    11  PRO11       0.2269
     33  O         66.6990   89.5980    8.5750 O.2    11  PRO11      -0.2865
     34  CB        68.8110   90.8910   10.6990 C.3    11  PRO11       0.0296
     35  CG        69.5680   89.5980   10.9090 C.3    11  PRO11       0.0237
     36  CD        68.5540   88.5490   11.3440 C.3    11  PRO11       0.0939
     37  N         67.0460   91.5270    5.4700 N.3    13  ASN13      -0.1240
     38  CA        68.1400   91.6090    4.5000 C.3    13  ASN13       0.1653
     39  C         68.1700   93.0150    3.8210 C.2    13  ASN13       0.2266
     40  O         67.4100   93.9060    4.1950 O.2    13  ASN13      -0.2867
     41  CB        68.0710   90.4370    3.4940 C.3    13  ASN13       0.1155
     42  CG        66.8910   90.5430    2.5280 C.2    13  ASN13       0.2627
     43  OD1       66.7500   91.5350    1.8280 O.2    13  ASN13      -0.2716
     44  ND2       66.0470   89.5140    2.4860 N.am   13  ASN13      -0.0877
     45  N         66.9870   90.2180   16.4880 N.3    51  GLU51      -0.1245
     46  CA        67.7770   90.3110   15.2530 C.3    51  GLU51       0.1567
     47  C         69.2980   90.4040   15.4200 C.2    51  GLU51       0.2260
     48  O         70.0300   90.2410   14.4700 O.2    51  GLU51      -0.2867
     49  CB        67.3150   91.5250   14.4720 C.3    51  GLU51       0.0388
     50  CG        65.9180   91.4110   13.9100 C.3    51  GLU51       0.1160
     51  CD        65.4430   92.7030   13.2560 C.2    51  GLU51       0.3649
     52  OE1       66.3020   93.5780   12.9470 O.co2  51  GLU51      -0.2457
     53  OE2       64.2000   92.8310   13.0730 O.co2  51  GLU51      -0.2457
     54  N         70.9160   88.5540   17.7890 N.3    53  SER53      -0.1217
     55  CA        71.3690   87.3420   18.4780 C.3    53  SER53       0.1889
     56  C         72.4760   86.6460   17.7090 C.2    53  SER53       0.2288
     57  O         72.4910   86.6120   16.4870 O.2    53  SER53      -0.2866
     58  CB        70.2040   86.3850   18.6430 C.3    53  SER53       0.2089
     59  OG        69.6570   86.0890   17.3670 O.3    53  SER53      -0.2183
     60  N         60.1110   78.8440    4.9190 N.3    84  THR84      -0.1203
     61  CA        61.3090   79.0550    4.0900 C.3    84  THR84       0.1994
     62  C         61.7180   80.5220    4.1810 C.2    84  THR84       0.2618
     63  O         60.8620   81.4230    4.2280 O.2    84  THR84      -0.2717
     64  CB        60.9820   78.6320    2.6250 C.3    84  THR84       0.1784
     65  OG1       60.6860   77.2480    2.6250 O.3    84  THR84      -0.2211
     66  CG2       62.1870   78.7300    1.7040 C.3    84  THR84       0.0376
     67  N         63.0270   80.7610    4.2580 N.am   85  GLY85      -0.1942
     68  CA        63.5760   82.0950    4.4110 C.3    85  GLY85       0.2014
     69  C         63.7030   82.5970    5.8370 C.2    85  GLY85       0.2639
     70  O         64.2840   83.6460    6.0380 O.2    85  GLY85      -0.2714
     71  N         63.1820   81.8630    6.8330 N.am   86  ALA86      -0.1963
     72  CA        63.0690   82.4340    8.1910 C.3    86  ALA86       0.1728
     73  C         64.3130   82.3120    9.0490 C.2    86  ALA86       0.2617
     74  O         64.5170   83.1540    9.9150 O.2    86  ALA86      -0.2715
     75  CB        61.8770   81.8780    8.9380 C.3    86  ALA86       0.0334
     76  N         65.1590   81.3150    8.7860 N.am   87  GLY87      -0.1940
     77  CA        66.4350   81.1640    9.5000 C.3    87  GLY87       0.2014
     78  C         66.6790   79.7880   10.1480 C.2    87  GLY87       0.2639
     79  O         67.5370   79.6380   10.9880 O.2    87  GLY87      -0.2714
     80  N         65.9510   78.7690    9.7060 N.am   88  LYS88      -0.1963
     81  CA        66.2000   77.4080   10.1630 C.3    88  LYS88       0.1728
     82  C         67.6350   76.8750    9.8940 C.2    88  LYS88       0.2617
     83  O         68.3090   76.3790   10.7880 O.2    88  LYS88      -0.2715
     84  CB        65.1680   76.4930    9.5330 C.3    88  LYS88       0.0311
     85  CG        63.7440   76.6710    9.9740 C.3    88  LYS88       0.0038
     86  CD        62.8080   75.5540    9.3760 C.3    88  LYS88       0.0206
     87  CE        62.8080   75.5490    7.8100 C.3    88  LYS88       0.1093
     88  NZ        62.4480   76.8770    7.1920 N.3    88  LYS88      -0.1314
     89  N         68.1140   76.9980    8.6650 N.am   89  THR89      -0.1937
     90  CA        69.3900   76.4720    8.3050 C.3    89  THR89       0.2028
     91  C         70.4970   77.3390    8.8390 C.2    89  THR89       0.2642
     92  O         71.5290   76.8670    9.3020 O.2    89  THR89      -0.2714
     93  CB        69.4350   76.4080    6.8040 C.3    89  THR89       0.1808
     94  OG1       68.4020   75.5190    6.3290 O.3    89  THR89      -0.2208
     95  CG2       70.7630   75.8640    6.2910 C.3    89  THR89       0.0379
     96  N         70.3210   78.6400    8.7780 N.am   90  HIS90      -0.1959
     97  CA        71.2940   79.4990    9.4070 C.3    90  HIS90       0.1787
     98  C         71.4790   79.1920   10.8860 C.2    90  HIS90       0.2620
     99  O         72.5860   79.2700   11.3990 O.2    90  HIS90      -0.2715
    100  CB        70.8990   80.9400    9.3310 C.3    90  HIS90       0.0785
    101  CG        71.8510   81.8560   10.0590 C.ar   90  HIS90       0.0821
    102  ND1       72.6750   82.7290    9.4040 N.ar   90  HIS90      -0.2267
    103  CD2       72.1290   82.0070   11.3790 C.ar   90  HIS90       0.1154
    104  CE1       73.3760   83.4240   10.2880 C.ar   90  HIS90       0.1986
    105  NE2       73.0600   83.0120   11.4970 N.ar   90  HIS90      -0.2212
    106  N         70.3700   78.9250   11.5870 N.am   91  THR91      -0.1951
    107  CA        70.4620   78.5520   13.0170 C.3    91  THR91       0.1897
    108  C         71.1210   77.1880   13.2150 C.2    91  THR91       0.2313
    109  O         71.9300   77.0340   14.1490 O.2    91  THR91      -0.2863
    110  CB        69.0370   78.5880   13.6390 C.3    91  THR91       0.1794
    111  OG1       68.5190   79.9400   13.5750 O.3    91  THR91      -0.2208
    112  CG2       69.0480   78.2050   15.0840 C.3    91  THR91       0.0378
    113  N         79.9440   82.1250   10.8890 N.3    98  GLU98      -0.1245
    114  CA        79.0800   81.9560   12.0550 C.3    98  GLU98       0.1567
    115  C         78.4530   80.5500   12.0350 C.2    98  GLU98       0.2260
    116  O         77.2790   80.3630   11.6430 O.2    98  GLU98      -0.2867
    117  CB        77.9520   82.9860   11.9900 C.3    98  GLU98       0.0388
    118  CG        78.3590   84.4390   12.0790 C.3    98  GLU98       0.1160
    119  CD        77.1250   85.3190   12.0720 C.2    98  GLU98       0.3649
    120  OE1       76.5280   85.5260   13.1660 O.co2  98  GLU98      -0.2457
    121  OE2       76.6960   85.7130   10.9610 O.co2  98  GLU98      -0.2457
    122  N         66.1350   76.0340   -1.8780 N.3   188  THR188     -0.1218
    123  CA        66.5070   76.2010   -0.4820 C.3   188  THR188      0.1862
    124  C         66.2400   74.9290    0.3300 C.2   188  THR188      0.2287
    125  O         66.2210   74.9910    1.5520 O.2   188  THR188     -0.2866
    126  CB        65.6810   77.3510    0.1160 C.3   188  THR188      0.1770
    127  OG1       64.3190   77.1500   -0.2520 O.3   188  THR188     -0.2211
    128  CG2       66.0300   78.6830   -0.5200 C.3   188  THR188      0.0375
@<TRIPOS>BOND
     1   122   123    1
     2   128   126    1
     3   123   126    1
     4   123   124    1
     5   127   126    1
     6   124   125    2
     7    66    64    1
     8    43    42    2
     9    44    42   am
    10    42    41    1
    11    65    64    1
    12    64    61    1
    13    41    38    1
    14    39    40    2
    15    39    38    1
    16    61    62    1
    17    61    60    1
    18    62    63    2
    19    62    67   am
    20    67    68    1
    21    68    69    1
    22    38    37    1
    23    29    27    1
    24    69    70    2
    25    69    71   am
    26    95    93    1
    27    94    93    1
    28    27    28    1
    29    27    26    2
    30    93    90    1
    31    71    72    1
    32    88    87    1
    33    26    25    1
    34    87    86    1
    35    72    75    1
    36    72    73    1
    37    25    24    1
    38    90    89    1
    39    90    91    1
    40    33    32    2
    41    89    82   am
    42    96    91   am
    43    96    97    1
    44    76    73   am
    45    76    77    1
    46    91    92    2
    47    73    74    2
    48    32    31    1
    49   100    97    1
    50   100   101    1
    51    86    85    1
    52   102   101   ar
    53   102   104   ar
    54    97    98    1
    55    77    78    1
    56    84    85    1
    57    84    81    1
    58    24    23    1
    59    80    78   am
    60    80    81    1
    61    82    81    1
    62    82    83    2
    63   101   103   ar
    64    78    79    2
    65   104   105   ar
    66    23    20    1
    67    34    31    1
    68    34    35    1
    69    31    30    1
    70    98    99    2
    71    98   106   am
    72   113   114    1
    73    35    36    1
    74   121   119   ar
    75    30    36    1
    76    30    21   am
    77   103   105   ar
    78    21    22    2
    79    21    20    1
    80   106   107    1
    81   116   115    2
    82    20    19    1
    83   117   114    1
    84   117   118    1
    85   115   114    1
    86   119   118    1
    87   119   120   ar
    88    19    14   am
    89    52    51   ar
    90   107   108    1
    91   107   110    1
    92    53    51   ar
    93   108   109    2
    94    51    50    1
    95   111   110    1
    96   110   112    1
    97    50    49    1
    98    14    15    2
    99    14    13    1
   100    17    16    1
   101    48    47    2
   102    49    46    1
   103     4     3    2
   104    13    16    1
   105    13    12    1
   106    10     9    1
   107     9    11    1
   108     9     8    2
   109    46    47    1
   110    46    45    1
   111    16    18    1
   112     7     8    1
   113     7     6    1
   114     3    12   am
   115     3     2    1
   116     6     5    1
   117     5     2    1
   118    57    56    2
   119     2     1    1
   120    59    58    1
   121    56    55    1
   122    54    55    1
   123    55    58    1
