@<TRIPOS>MOLECULE
tmp/3lrlA05.pdb
 162 157 0 0 0
SMALL
GASTEIGER

@<TRIPOS>ATOM
      1  N          7.0850   16.8920   31.7830 N.3    19  TRP19      -0.1241
      2  CA         5.7810   17.3770   31.3460 C.3    19  TRP19       0.1605
      3  C          5.5210   17.1780   29.8530 C.2    19  TRP19       0.2264
      4  O          4.7000   16.3110   29.5100 O.2    19  TRP19      -0.2867
      5  CB         5.5050   18.8380   31.7490 C.3    19  TRP19       0.0550
      6  CG         4.0450   19.1660   31.5340 C.ar   19  TRP19       0.0003
      7  CD1        3.5040   19.8940   30.5040 C.ar   19  TRP19       0.0946
      8  CD2        2.9340   18.7120   32.3290 C.ar   19  TRP19       0.0152
      9  NE1        2.1310   19.9440   30.6270 N.ar   19  TRP19      -0.2442
     10  CE2        1.7550   19.2280   31.7360 C.ar   19  TRP19       0.0810
     11  CE3        2.8240   17.9440   33.4990 C.ar   19  TRP19       0.0012
     12  CZ2        0.4750   18.9940   32.2710 C.ar   19  TRP19       0.0191
     13  CZ3        1.5450   17.7110   34.0350 C.ar   19  TRP19       0.0001
     14  CH2        0.3900   18.2290   33.4110 C.ar   19  TRP19       0.0015
     15  N          7.3490   17.6630   37.5360 N.3    54  ASP54      -0.1225
     16  CA         6.5060   18.8140   37.2370 C.3    54  ASP54       0.1805
     17  C          5.1730   18.6670   37.9790 C.2    54  ASP54       0.2597
     18  O          5.1180   18.0110   39.0160 O.2    54  ASP54      -0.2718
     19  CB         6.3460   18.9730   35.7140 C.3    54  ASP54       0.1424
     20  CG         6.0110   20.3970   35.3040 C.2    54  ASP54       0.3668
     21  OD1        6.9460   21.1710   34.9770 O.co2  54  ASP54      -0.2456
     22  OD2        4.8070   20.7450   35.3280 O.co2  54  ASP54      -0.2456
     23  N          4.1070   19.2620   37.4600 N.am   55  ASP55      -0.1974
     24  CA         2.8080   19.2770   38.1400 C.3    55  ASP55       0.1709
     25  C          2.2670   17.8800   38.4700 C.2    55  ASP55       0.2293
     26  O          2.8210   16.8620   38.0350 O.2    55  ASP55      -0.2864
     27  CB         1.7980   20.0160   37.2600 C.3    55  ASP55       0.1436
     28  CG         0.7770   20.7990   38.0500 C.2    55  ASP55       0.3671
     29  OD1        0.4740   20.4740   39.2130 O.co2  55  ASP55      -0.2456
     30  OD2        0.2560   21.7580   37.4710 O.co2  55  ASP55      -0.2456
     31  N          8.2090   20.9570   41.6730 N.3    95  TYR95      -0.1241
     32  CA         7.3670   22.0000   41.1370 C.3    95  TYR95       0.1605
     33  C          6.2790   22.4010   42.1520 C.2    95  TYR95       0.2264
     34  O          5.7160   21.5550   42.8910 O.2    95  TYR95      -0.2867
     35  CB         6.7520   21.5120   39.8090 C.3    95  TYR95       0.0534
     36  CG         5.5600   22.2910   39.3410 C.ar   95  TYR95      -0.0201
     37  CD1        4.2880   22.0600   39.8880 C.ar   95  TYR95      -0.0009
     38  CD2        5.6920   23.2690   38.3640 C.ar   95  TYR95      -0.0009
     39  CE1        3.1910   22.7870   39.4830 C.ar   95  TYR95       0.0417
     40  CE2        4.5980   23.9990   37.9450 C.ar   95  TYR95       0.0417
     41  CZ         3.3560   23.7510   38.5050 C.ar   95  TYR95       0.1957
     42  OH         2.2810   24.4920   38.0930 O.3    95  TYR95      -0.2866
     43  N         -1.1380   24.9130   38.1970 N.3   103  CYS103     -0.1221
     44  CA        -1.9090   25.0520   36.9430 C.3   103  CYS103      0.1808
     45  C         -2.8650   23.9030   36.6750 C.2   103  CYS103      0.2601
     46  O         -3.9290   24.1210   36.1220 O.2   103  CYS103     -0.2717
     47  CB        -1.0110   25.2930   35.7400 C.3   103  CYS103      0.0970
     48  SG         0.0380   26.7290   35.9300 S.3   103  CYS103     -0.0800
     49  N         -2.5070   22.6880   37.0900 N.am  104  ALA104     -0.1979
     50  CA        -3.3880   21.5170   36.9370 C.3   104  ALA104      0.1597
     51  C         -4.3220   21.3000   38.1370 C.2   104  ALA104      0.2287
     52  O         -5.0120   20.2810   38.2200 O.2   104  ALA104     -0.2864
     53  CB        -2.5770   20.2700   36.6610 C.3   104  ALA104      0.0319
     54  N         10.9050   24.5870   40.3490 N.3   129  LYS129     -0.1245
     55  CA        10.1750   25.2990   39.3240 C.3   129  LYS129      0.1561
     56  C          8.9150   25.8970   39.9630 C.2   129  LYS129      0.2260
     57  O          8.0840   25.1810   40.5400 O.2   129  LYS129     -0.2867
     58  CB         9.8230   24.3790   38.1380 C.3   129  LYS129      0.0271
     59  CG         8.7380   24.9670   37.2170 C.3   129  LYS129      0.0035
     60  CD         8.5870   24.2350   35.8990 C.3   129  LYS129      0.0206
     61  CE         7.2600   24.6050   35.2260 C.3   129  LYS129      0.1093
     62  NZ         7.1050   23.8900   33.9130 N.3   129  LYS129     -0.1314
     63  N          5.6070   28.2020   39.6090 N.3   131  ASP131     -0.1239
     64  CA         4.6440   28.6490   38.5930 C.3   131  ASP131      0.1674
     65  C          3.8630   29.9170   39.0080 C.2   131  ASP131      0.2266
     66  O          4.1680   30.5220   40.0420 O.2   131  ASP131     -0.2867
     67  CB         3.6940   27.4820   38.2730 C.3   131  ASP131      0.1410
     68  CG         3.2720   27.4340   36.8110 C.2   131  ASP131      0.3668
     69  OD1        2.9660   28.4920   36.2160 O.co2 131  ASP131     -0.2456
     70  OD2        3.2230   26.3170   36.2650 O.co2 131  ASP131     -0.2456
     71  N          0.0740   30.2550   38.2950 N.3   133  CYS133     -0.1221
     72  CA        -1.3650   30.0180   38.1960 C.3   133  CYS133      0.1808
     73  C         -2.0620   30.3240   39.5230 C.2   133  CYS133      0.2601
     74  O         -1.5000   30.0930   40.5950 O.2   133  CYS133     -0.2717
     75  CB        -1.6440   28.5770   37.7340 C.3   133  CYS133      0.0970
     76  SG        -1.2640   28.3070   35.9540 S.3   133  CYS133     -0.0800
     77  N         -3.2760   30.8640   39.4220 N.am  134  TYR134     -0.1976
     78  CA        -4.1570   31.1520   40.5570 C.3   134  TYR134      0.1639
     79  C         -3.4490   31.9850   41.6310 C.2   134  TYR134      0.2290
     80  O         -3.4450   31.6460   42.8110 O.2   134  TYR134     -0.2864
     81  CB        -4.7940   29.8450   41.1070 C.3   134  TYR134      0.0560
     82  CG        -5.4690   29.0470   40.0110 C.ar  134  TYR134     -0.0198
     83  CD1       -4.8740   27.8900   39.4870 C.ar  134  TYR134     -0.0009
     84  CD2       -6.6880   29.4710   39.4670 C.ar  134  TYR134     -0.0009
     85  CE1       -5.4820   27.1690   38.4470 C.ar  134  TYR134      0.0417
     86  CE2       -7.3000   28.7730   38.4360 C.ar  134  TYR134      0.0417
     87  CZ        -6.6960   27.6260   37.9280 C.ar  134  TYR134      0.1957
     88  OH        -7.3160   26.9510   36.8950 O.3   134  TYR134     -0.2866
     89  N          8.6370   30.7900   37.1280 N.3   168  CYS168     -0.1235
     90  CA         7.7430   30.5140   36.0000 C.3   168  CYS168      0.1677
     91  C          6.5380   31.4570   36.1050 C.2   168  CYS168      0.2270
     92  O          5.4630   31.0670   36.5430 O.2   168  CYS168     -0.2867
     93  CB         7.3300   29.0440   36.0220 C.3   168  CYS168      0.0956
     94  SG         6.3970   28.4420   34.6040 S.3   168  CYS168     -0.0801
     95  N          6.1550   33.7790   33.3420 N.3   170  TRP170     -0.1241
     96  CA         5.8860   34.0890   31.9310 C.3   170  TRP170      0.1605
     97  C          6.2680   35.5230   31.5320 C.2   170  TRP170      0.2264
     98  O          5.6690   36.1250   30.6090 O.2   170  TRP170     -0.2867
     99  CB         4.4140   33.8320   31.6120 C.3   170  TRP170      0.0550
    100  CG         3.8230   32.6100   32.2890 C.ar  170  TRP170      0.0003
    101  CD1        4.3340   31.3370   32.2900 C.ar  170  TRP170      0.0946
    102  CD2        2.5870   32.5470   33.0150 C.ar  170  TRP170      0.0152
    103  NE1        3.5130   30.4990   32.9920 N.ar  170  TRP170     -0.2442
    104  CE2        2.4320   31.2110   33.4530 C.ar  170  TRP170      0.0810
    105  CE3        1.5970   33.4940   33.3500 C.ar  170  TRP170      0.0012
    106  CZ2        1.3260   30.7930   34.2140 C.ar  170  TRP170      0.0191
    107  CZ3        0.5040   33.0810   34.1070 C.ar  170  TRP170      0.0001
    108  CH2        0.3690   31.7310   34.5130 C.ar  170  TRP170      0.0015
    109  N         11.2360   32.3080   33.4670 N.3   187  ARG187     -0.1245
    110  CA        10.4610   32.2250   32.2270 C.3   187  ARG187      0.1563
    111  C         10.0960   33.6480   31.8450 C.2   187  ARG187      0.2260
    112  O          9.5770   34.4190   32.6780 O.2   187  ARG187     -0.2867
    113  CB         9.2240   31.3490   32.4190 C.3   187  ARG187      0.0307
    114  CG         9.5440   29.8500   32.4650 C.3   187  ARG187      0.0489
    115  CD         9.6350   29.2420   31.0490 C.3   187  ARG187      0.2205
    116  NE         8.3910   29.4880   30.3140 N.pl3 187  ARG187     -0.0865
    117  CZ         7.2760   28.7780   30.4620 C.cat 187  ARG187      0.5346
    118  NH1        7.2500   27.7390   31.2700 N.pl3 187  ARG187      0.1354
    119  NH2        6.1930   29.0940   29.7780 N.pl3 187  ARG187      0.1354
    120  N          3.9340   29.5240   27.5310 N.3   191  ASP191     -0.1239
    121  CA         4.5130   28.2280   27.1320 C.3   191  ASP191      0.1674
    122  C          4.8780   28.1120   25.6460 C.2   191  ASP191      0.2266
    123  O          4.1430   28.5980   24.7730 O.2   191  ASP191     -0.2867
    124  CB         3.5820   27.0750   27.4920 C.3   191  ASP191      0.1410
    125  CG         3.3250   26.9510   28.9810 C.2   191  ASP191      0.3668
    126  OD1        4.0420   27.5680   29.8360 O.co2 191  ASP191     -0.2456
    127  OD2        2.3990   26.1730   29.2930 O.co2 191  ASP191     -0.2456
    128  N         -0.9660   39.2970   28.6710 N.3   214  TYR214     -0.1241
    129  CA        -1.6140   37.9940   28.6060 C.3   214  TYR214      0.1605
    130  C         -0.6270   37.0400   27.9520 C.2   214  TYR214      0.2264
    131  O         -0.7240   36.7980   26.7480 O.2   214  TYR214     -0.2867
    132  CB        -2.9050   38.0600   27.7680 C.3   214  TYR214      0.0534
    133  CG        -3.9390   36.9680   28.0780 C.ar  214  TYR214     -0.0201
    134  CD1       -5.2570   37.0710   27.5880 C.ar  214  TYR214     -0.0009
    135  CD2       -3.6060   35.8400   28.8550 C.ar  214  TYR214     -0.0009
    136  CE1       -6.2160   36.0960   27.8710 C.ar  214  TYR214      0.0417
    137  CE2       -4.5520   34.8550   29.1430 C.ar  214  TYR214      0.0417
    138  CZ        -5.8600   34.9910   28.6450 C.ar  214  TYR214      0.1957
    139  OH        -6.8100   34.0310   28.9270 O.3   214  TYR214     -0.2866
    140  N         -0.2100   33.8280   27.9890 N.3   216  GLY216     -0.1210
    141  CA        -0.8690   32.6920   27.3470 C.3   216  GLY216      0.1956
    142  C          0.0170   31.4860   27.1890 C.2   216  GLY216      0.2611
    143  O          0.9040   31.2280   28.0160 O.2   216  GLY216     -0.2717
    144  N         -0.2330   30.7300   26.1260 N.am  217  PHE217     -0.1976
    145  CA         0.6010   29.5620   25.7880 C.3   217  PHE217      0.1639
    146  C          0.3940   29.1600   24.3290 C.2   217  PHE217      0.2290
    147  O         -0.2700   29.8740   23.5850 O.2   217  PHE217     -0.2864
    148  CB         0.4280   28.3820   26.7800 C.3   217  PHE217      0.0560
    149  CG        -0.9430   27.7010   26.7640 C.ar  217  PHE217     -0.0200
    150  CD1       -1.0550   26.3660   27.1850 C.ar  217  PHE217     -0.0042
    151  CD2       -2.1040   28.3760   26.3910 C.ar  217  PHE217     -0.0042
    152  CE1       -2.2900   25.7150   27.2190 C.ar  217  PHE217     -0.0003
    153  CE2       -3.3640   27.7350   26.4050 C.ar  217  PHE217     -0.0003
    154  CZ        -3.4680   26.4140   26.8190 C.ar  217  PHE217     -0.0000
    155  N         11.8770   28.5260   27.9660 N.3   244  ASP244     -0.1239
    156  CA        10.9960   27.3640   28.1520 C.3   244  ASP244      0.1674
    157  C         11.6890   26.1170   27.6260 C.2   244  ASP244      0.2266
    158  O         12.7240   26.2290   26.9250 O.2   244  ASP244     -0.2867
    159  CB         9.5890   27.5950   27.5460 C.3   244  ASP244      0.1410
    160  CG         8.5230   26.6510   28.1120 C.2   244  ASP244      0.3668
    161  OD1        8.7900   25.8150   29.0010 O.co2 244  ASP244     -0.2456
    162  OD2        7.3830   26.7370   27.6510 O.co2 244  ASP244     -0.2456
@<TRIPOS>BOND
     1   147   146    2
     2   146   145    1
     3   123   122    2
     4   122   121    1
     5   145   144    1
     6   145   148    1
     7   144   142   am
     8   151   153   ar
     9   151   149   ar
    10   153   154   ar
    11   131   130    2
    12   149   148    1
    13   149   150   ar
    14   154   152   ar
    15   158   157    2
    16   121   124    1
    17   121   120    1
    18   150   152   ar
    19   142   141    1
    20   142   143    2
    21   141   140    1
    22   124   125    1
    23   159   160    1
    24   159   156    1
    25   134   136   ar
    26   134   133   ar
    27   157   156    1
    28   162   160   ar
    29   132   133    1
    30   132   129    1
    31   136   138   ar
    32   130   129    1
    33   155   156    1
    34   133   135   ar
    35   160   161   ar
    36   129   128    1
    37   138   139    1
    38   138   137   ar
    39   135   137   ar
    40   125   127   ar
    41   125   126   ar
    42     4     3    2
    43   119   117    1
    44     3     2    1
    45   116   117    2
    46   116   115    1
    47   117   118    1
    48     7     9   ar
    49     7     6   ar
    50    98    97    2
    51     9    10   ar
    52   115   114    1
    53     2     5    1
    54     2     1    1
    55    97    96    1
    56     6     5    1
    57     6     8   ar
    58    99    96    1
    59    99   100    1
    60    10    12   ar
    61    10     8   ar
    62   111   110    1
    63   111   112    2
    64    96    95    1
    65   110   113    1
    66   110   109    1
    67    12    14   ar
    68   100   101   ar
    69   100   102   ar
    70   101   103   ar
    71     8    11   ar
    72   113   114    1
    73   103   104   ar
    74   102   105   ar
    75   102   104   ar
    76   105   107   ar
    77    14    13   ar
    78   104   106   ar
    79    11    13   ar
    80    62    61    1
    81   107   108   ar
    82   106   108   ar
    83    94    93    1
    84    21    20   ar
    85    61    60    1
    86    20    22   ar
    87    20    19    1
    88    19    16    1
    89    47    48    1
    90    47    44    1
    91    60    59    1
    92    48    76    1
    93    76    75    1
    94    90    93    1
    95    90    91    1
    96    90    89    1
    97    91    92    2
    98    46    45    2
    99    69    68   ar
   100    70    68   ar
   101    53    50    1
   102    45    44    1
   103    45    49   am
   104    68    67    1
   105    88    87    1
   106    50    49    1
   107    50    51    1
   108    44    43    1
   109    59    58    1
   110    16    15    1
   111    16    17    1
   112    27    28    1
   113    27    24    1
   114    23    17   am
   115    23    24    1
   116    30    28   ar
   117    75    72    1
   118    87    86   ar
   119    87    85   ar
   120    40    38   ar
   121    40    41   ar
   122    17    18    2
   123    26    25    2
   124    28    29   ar
   125    42    41    1
   126    51    52    2
   127    58    55    1
   128    24    25    1
   129    72    71    1
   130    72    73    1
   131    67    64    1
   132    38    36   ar
   133    86    84   ar
   134    85    83   ar
   135    41    39   ar
   136    64    65    1
   137    64    63    1
   138    65    66    2
   139    55    56    1
   140    55    54    1
   141    36    35    1
   142    36    37   ar
   143    77    73   am
   144    77    78    1
   145    84    82   ar
   146    39    37   ar
   147    83    82   ar
   148    73    74    2
   149    35    32    1
   150    56    57    2
   151    82    81    1
   152    78    81    1
   153    78    79    1
   154    32    31    1
   155    32    33    1
   156    79    80    2
   157    33    34    2
