@<TRIPOS>MOLECULE
tmp/3lrmC03.pdb
 74 67 0 0 0
SMALL
GASTEIGER

@<TRIPOS>ATOM
      1  N        -32.6280  -77.3230   26.1270 N.3    39  SER39      -0.1202
      2  CA       -33.4880  -78.2350   26.8620 C.3    39  SER39       0.2020
      3  C        -32.7110  -79.4430   27.3930 C.2    39  SER39       0.2618
      4  O        -32.8670  -79.8150   28.5520 O.2    39  SER39      -0.2717
      5  CB       -34.6510  -78.6910   25.9920 C.3    39  SER39       0.2103
      6  OG       -35.5610  -79.4470   26.7640 O.3    39  SER39      -0.2182
      7  N        -31.8640  -80.0340   26.5510 N.am   40  ASP40      -0.1973
      8  CA       -31.0940  -81.2230   26.9290 C.3    40  ASP40       0.1709
      9  C        -30.0950  -80.9570   28.0470 C.2    40  ASP40       0.2293
     10  O        -29.8930  -81.8020   28.9230 O.2    40  ASP40      -0.2864
     11  CB       -30.3740  -81.8150   25.7150 C.3    40  ASP40       0.1436
     12  CG       -31.3190  -82.5350   24.7670 C.2    40  ASP40       0.3671
     13  OD1      -32.4970  -82.7520   25.1340 O.co2  40  ASP40      -0.2456
     14  OD2      -30.8830  -82.8830   23.6490 O.co2  40  ASP40      -0.2456
     15  N        -30.5490  -78.9670   30.3400 N.3    42  GLY42      -0.1225
     16  CA       -31.3380  -78.7050   31.5440 C.3    42  GLY42       0.1811
     17  C        -31.4900  -77.2340   31.8910 C.2    42  GLY42       0.2280
     18  O        -32.0710  -76.8940   32.9280 O.2    42  GLY42      -0.2866
     19  N        -35.2460  -75.8470   31.9140 N.3    45  ASP45      -0.1239
     20  CA       -35.9540  -76.1110   33.1650 C.3    45  ASP45       0.1674
     21  C        -35.4130  -75.3270   34.3570 C.2    45  ASP45       0.2266
     22  O        -35.9600  -75.4130   35.4590 O.2    45  ASP45      -0.2867
     23  CB       -35.9790  -77.6160   33.4560 C.3    45  ASP45       0.1410
     24  CG       -36.8740  -78.3780   32.4940 C.2    45  ASP45       0.3668
     25  OD1      -38.0440  -77.9770   32.3120 O.co2  45  ASP45      -0.2456
     26  OD2      -36.4070  -79.3810   31.9170 O.co2  45  ASP45      -0.2456
     27  N        -28.0330  -83.8060   32.7620 N.3   398  ALA398     -0.1231
     28  CA       -28.1730  -82.7160   33.7230 C.3   398  ALA398      0.1694
     29  C        -29.1740  -83.0670   34.8260 C.2   398  ALA398      0.2593
     30  O        -29.0680  -82.5600   35.9480 O.2   398  ALA398     -0.2718
     31  CB       -28.5970  -81.4470   33.0110 C.3   398  ALA398      0.0304
     32  N        -30.1400  -83.9280   34.4920 N.am  399  THR399     -0.1939
     33  CA       -31.1630  -84.4050   35.4320 C.3   399  THR399      0.2028
     34  C        -30.5030  -84.9340   36.7080 C.2   399  THR399      0.2642
     35  O        -29.5670  -85.7390   36.6480 O.2   399  THR399     -0.2714
     36  CB       -32.0450  -85.5170   34.7990 C.3   399  THR399      0.1808
     37  OG1      -32.4150  -85.1510   33.4600 O.3   399  THR399     -0.2208
     38  CG2      -33.3100  -85.7590   35.6400 C.3   399  THR399      0.0379
     39  N        -30.9760  -84.4560   37.8560 N.am  400  GLY400     -0.1954
     40  CA       -30.4080  -84.8440   39.1430 C.3   400  GLY400      0.1869
     41  C        -29.1880  -84.0330   39.5510 C.2   400  GLY400      0.2309
     42  O        -28.7790  -84.0540   40.7160 O.2   400  GLY400     -0.2863
     43  N        -28.5810  -80.5000   37.9260 N.3   402  LEU402     -0.1245
     44  CA       -29.0600  -79.1160   37.9020 C.3   402  LEU402      0.1561
     45  C        -30.4350  -78.9950   38.5420 C.2   402  LEU402      0.2260
     46  O        -31.3020  -79.8530   38.3400 O.2   402  LEU402     -0.2867
     47  CB       -29.1130  -78.5640   36.4710 C.3   402  LEU402      0.0270
     48  CG       -27.8840  -78.5680   35.5560 C.3   402  LEU402      0.0019
     49  CD1      -28.1270  -77.6170   34.3940 C.3   402  LEU402      0.0001
     50  CD2      -26.6020  -78.1830   36.2800 C.3   402  LEU402      0.0001
     51  N        -34.1590  -78.0520   39.0860 N.3   404  ASN404     -0.1240
     52  CA       -35.2790  -78.0130   38.1530 C.3   404  ASN404      0.1653
     53  C        -36.3430  -77.0520   38.6740 C.2   404  ASN404      0.2266
     54  O        -37.0520  -77.3530   39.6390 O.2   404  ASN404     -0.2867
     55  CB       -35.8480  -79.4250   37.9520 C.3   404  ASN404      0.1155
     56  CG       -36.8700  -79.5020   36.8230 C.2   404  ASN404      0.2627
     57  OD1      -37.6040  -78.5410   36.5550 O.2   404  ASN404     -0.2716
     58  ND2      -36.9260  -80.6720   36.1600 N.am  404  ASN404     -0.0877
     59  N        -38.8790  -75.8820   36.8230 N.3   406  THR406     -0.1203
     60  CA       -40.1680  -76.3490   36.3060 C.3   406  THR406      0.1994
     61  C        -40.8310  -77.2780   37.3300 C.2   406  THR406      0.2617
     62  O        -42.0440  -77.2130   37.5490 O.2   406  THR406     -0.2717
     63  CB       -40.0140  -77.1000   34.9570 C.3   406  THR406      0.1784
     64  OG1      -39.1400  -76.3680   34.0870 O.3   406  THR406     -0.2211
     65  CG2      -41.3700  -77.2880   34.2710 C.3   406  THR406      0.0376
     66  N        -40.0170  -78.1280   37.9560 N.am  407  GLU407     -0.1979
     67  CA       -40.4760  -79.0710   38.9790 C.3   407  GLU407      0.1602
     68  C        -40.7980  -78.3730   40.2980 C.2   407  GLU407      0.2287
     69  O        -41.6950  -78.7920   41.0290 O.2   407  GLU407     -0.2864
     70  CB       -39.4020  -80.1320   39.2110 C.3   407  GLU407      0.0415
     71  CG       -39.8460  -81.3200   40.0290 C.3   407  GLU407      0.1163
     72  CD       -38.8110  -82.4340   40.0190 C.2   407  GLU407      0.3649
     73  OE1      -37.6160  -82.1530   40.2900 O.co2 407  GLU407     -0.2457
     74  OE2      -39.1930  -83.5920   39.7400 O.co2 407  GLU407     -0.2457
@<TRIPOS>BOND
     1    14    12   ar
     2    12    13   ar
     3    12    11    1
     4    11     8    1
     5     5     6    1
     6     5     2    1
     7     1     2    1
     8     7     8    1
     9     7     3   am
    10     2     3    1
    11     8     9    1
    12     3     4    2
    13     9    10    2
    14    15    16    1
    15    16    17    1
    16    17    18    2
    17    19    20    1
    18    26    24   ar
    19    25    24   ar
    20    24    23    1
    21    27    28    1
    22    31    28    1
    23    20    23    1
    24    20    21    1
    25    37    36    1
    26    28    29    1
    27    64    63    1
    28    65    63    1
    29    21    22    2
    30    49    48    1
    31    32    29   am
    32    32    33    1
    33    36    33    1
    34    36    38    1
    35    29    30    2
    36    63    60    1
    37    33    34    1
    38    48    50    1
    39    48    47    1
    40    58    56   am
    41    60    59    1
    42    60    61    1
    43    47    44    1
    44    57    56    2
    45    35    34    2
    46    34    39   am
    47    56    55    1
    48    61    62    2
    49    61    66   am
    50    39    40    1
    51    44    43    1
    52    44    45    1
    53    55    52    1
    54    66    67    1
    55    52    53    1
    56    52    51    1
    57    46    45    2
    58    53    54    2
    59    67    70    1
    60    67    68    1
    61    40    41    1
    62    70    71    1
    63    41    42    2
    64    74    72   ar
    65    72    71    1
    66    72    73   ar
    67    68    69    2
