@<TRIPOS>MOLECULE
tmp/3lrmA03.pdb
 76 68 0 0 0
SMALL
GASTEIGER

@<TRIPOS>ATOM
      1  N        -26.8800   15.2400   28.4900 N.3    39  SER39      -0.1202
      2  CA       -26.7160   16.2010   27.4080 C.3    39  SER39       0.2020
      3  C        -25.6840   17.2750   27.7630 C.2    39  SER39       0.2618
      4  O        -24.8330   17.6210   26.9400 O.2    39  SER39      -0.2717
      5  CB       -28.0490   16.8520   27.0590 C.3    39  SER39       0.2103
      6  OG       -27.9160   17.6520   25.8990 O.3    39  SER39      -0.2182
      7  N        -25.7540   17.7800   28.9930 N.am   40  ASP40      -0.1973
      8  CA       -24.8680   18.8510   29.4460 C.3    40  ASP40       0.1709
      9  C        -23.4200   18.4070   29.5450 C.2    40  ASP40       0.2293
     10  O        -22.5070   19.1800   29.2380 O.2    40  ASP40      -0.2864
     11  CB       -25.3250   19.4160   30.7950 C.3    40  ASP40       0.1436
     12  CG       -26.5590   20.2940   30.6760 C.2    40  ASP40       0.3671
     13  OD1      -26.9260   20.6760   29.5390 O.co2  40  ASP40      -0.2456
     14  OD2      -27.1620   20.5990   31.7290 O.co2  40  ASP40      -0.2456
     15  N        -22.0970   16.3550   27.6460 N.3    42  GLY42      -0.1225
     16  CA       -21.6190   16.1450   26.2830 C.3    42  GLY42       0.1811
     17  C        -21.6320   14.6980   25.8370 C.2    42  GLY42       0.2280
     18  O        -21.2170   14.3860   24.7180 O.2    42  GLY42      -0.2866
     19  N        -24.0580   13.7660   22.7620 N.3    45  ASP45      -0.1239
     20  CA       -23.4770   14.0510   21.4540 C.3    45  ASP45       0.1674
     21  C        -22.2950   13.1470   21.1050 C.2    45  ASP45       0.2266
     22  O        -21.7380   13.2370   20.0140 O.2    45  ASP45      -0.2867
     23  CB       -23.0950   15.5370   21.3530 C.3    45  ASP45       0.1410
     24  CG       -24.3170   16.4570   21.2980 C.2    45  ASP45       0.3668
     25  OD1      -25.1740   16.2610   20.4120 O.co2  45  ASP45      -0.2456
     26  OD2      -24.4130   17.3810   22.1350 O.co2  45  ASP45      -0.2456
     27  N        -33.1780   15.9980   21.4960 N.3    89  SER89      -0.1217
     28  CA       -32.5100   15.0900   20.5480 C.3    89  SER89       0.1889
     29  C        -32.1280   13.7260   21.1360 C.2    89  SER89       0.2288
     30  O        -31.2120   13.0610   20.6410 O.2    89  SER89      -0.2866
     31  CB       -31.2970   15.7610   19.8850 C.3    89  SER89       0.2089
     32  OG       -31.6960   16.7930   19.0010 O.3    89  SER89      -0.2183
     33  N        -18.1390   20.7520   28.4410 N.3   398  ALA398     -0.1231
     34  CA       -17.5820   19.6420   27.6740 C.3   398  ALA398      0.1694
     35  C        -17.2650   20.0650   26.2390 C.2   398  ALA398      0.2592
     36  O        -16.3580   19.5150   25.6120 O.2   398  ALA398     -0.2718
     37  CB       -18.5390   18.4590   27.6880 C.3   398  ALA398      0.0304
     38  N        -18.0160   21.0490   25.7400 N.am  399  THR399     -0.1953
     39  CA       -17.8390   21.5930   24.3930 C.3   399  THR399      0.1897
     40  C        -16.3790   21.9580   24.1680 C.2   399  THR399      0.2313
     41  O        -15.7740   22.6310   24.9980 O.2   399  THR399     -0.2863
     42  CB       -18.7360   22.8380   24.1610 C.3   399  THR399      0.1794
     43  OG1      -20.0620   22.5750   24.6430 O.3   399  THR399     -0.2208
     44  CG2      -18.8010   23.2030   22.6780 C.3   399  THR399      0.0378
     45  N        -14.7550   17.2430   24.6670 N.3   402  LEU402     -0.1245
     46  CA       -15.2340   15.9500   24.1820 C.3   402  LEU402      0.1561
     47  C        -15.5630   15.9800   22.6900 C.2   402  LEU402      0.2260
     48  O        -16.1150   16.9610   22.1840 O.2   402  LEU402     -0.2867
     49  CB       -16.4640   15.4890   24.9690 C.3   402  LEU402      0.0270
     50  CG       -16.4470   15.3740   26.5010 C.3   402  LEU402      0.0019
     51  CD1      -17.6230   14.5150   26.9570 C.3   402  LEU402      0.0001
     52  CD2      -15.1450   14.8100   27.0460 C.3   402  LEU402      0.0001
     53  N        -17.5090   15.4820   19.3730 N.3   404  ASN404     -0.1240
     54  CA       -18.9240   15.6190   19.0620 C.3   404  ASN404      0.1653
     55  C        -19.2800   14.7820   17.8360 C.2   404  ASN404      0.2266
     56  O        -18.9390   15.1340   16.7040 O.2   404  ASN404     -0.2867
     57  CB       -19.2690   17.1040   18.8650 C.3   404  ASN404      0.1155
     58  CG       -20.7640   17.3650   18.7220 C.2   404  ASN404      0.2627
     59  OD1      -21.5260   16.5130   18.2530 O.2   404  ASN404     -0.2716
     60  ND2      -21.1810   18.5680   19.1220 N.am  404  ASN404     -0.0877
     61  N        -22.3650   14.0820   16.8950 N.3   406  THR406     -0.1203
     62  CA       -23.5150   14.7050   16.2390 C.3   406  THR406      0.1994
     63  C        -23.0130   15.6390   15.1500 C.2   406  THR406      0.2617
     64  O        -23.5780   15.6970   14.0570 O.2   406  THR406     -0.2717
     65  CB       -24.3920   15.5010   17.2310 C.3   406  THR406      0.1784
     66  OG1      -24.6290   14.7100   18.4000 O.3   406  THR406     -0.2211
     67  CG2      -25.7390   15.8830   16.6040 C.3   406  THR406      0.0376
     68  N        -21.9330   16.3510   15.4600 N.am  407  GLU407     -0.1979
     69  CA       -21.2860   17.2760   14.5300 C.3   407  GLU407      0.1602
     70  C        -20.5200   16.5630   13.4140 C.2   407  GLU407      0.2287
     71  O        -20.4420   17.0570   12.2870 O.2   407  GLU407     -0.2864
     72  CB       -20.3270   18.1630   15.3050 C.3   407  GLU407      0.0415
     73  CG       -19.8030   19.3460   14.5310 C.3   407  GLU407      0.1163
     74  CD       -19.0860   20.3320   15.4290 C.2   407  GLU407      0.3649
     75  OE1      -18.1660   19.9100   16.1660 O.co2 407  GLU407     -0.2457
     76  OE2      -19.4460   21.5290   15.3990 O.co2 407  GLU407     -0.2457
@<TRIPOS>BOND
     1    71    70    2
     2    70    69    1
     3    64    63    2
     4    69    72    1
     5    69    68    1
     6    73    72    1
     7    73    74    1
     8    63    68   am
     9    63    62    1
    10    76    74   ar
    11    74    75   ar
    12    62    61    1
    13    62    65    1
    14    67    65    1
    15    56    55    2
    16    65    66    1
    17    55    54    1
    18    59    58    2
    19    58    57    1
    20    58    60   am
    21    57    54    1
    22    32    31    1
    23    54    53    1
    24    31    28    1
    25    22    21    2
    26    25    24   ar
    27    28    29    1
    28    28    27    1
    29    30    29    2
    30    21    20    1
    31    24    23    1
    32    24    26   ar
    33    23    20    1
    34    20    19    1
    35    48    47    2
    36    44    42    1
    37    47    46    1
    38    42    39    1
    39    42    43    1
    40    40    39    1
    41    40    41    2
    42    46    45    1
    43    46    49    1
    44    39    38    1
    45    18    17    2
    46    49    50    1
    47    36    35    2
    48    38    35   am
    49    17    16    1
    50     6     5    1
    51    35    34    1
    52    16    15    1
    53    50    51    1
    54    50    52    1
    55     4     3    2
    56     5     2    1
    57     2     3    1
    58     2     1    1
    59    34    37    1
    60    34    33    1
    61     3     7   am
    62     7     8    1
    63    10     9    2
    64     8     9    1
    65     8    11    1
    66    13    12   ar
    67    12    11    1
    68    12    14   ar
