@<TRIPOS>MOLECULE
tmp/3lrmA04.pdb
 173 167 0 0 0
SMALL
GASTEIGER

@<TRIPOS>ATOM
      1  N        -31.4030    1.2690   36.0960 N.3    19  TRP19      -0.1241
      2  CA       -31.3980    0.0830   36.9590 C.3    19  TRP19       0.1605
      3  C        -30.1830   -0.0290   37.8940 C.2    19  TRP19       0.2264
      4  O        -30.3530   -0.0420   39.1190 O.2    19  TRP19      -0.2867
      5  CB       -31.5670   -1.2100   36.1440 C.3    19  TRP19       0.0550
      6  CG       -31.8420   -2.3920   37.0210 C.ar   19  TRP19       0.0003
      7  CD1      -31.0200   -3.4730   37.2380 C.ar   19  TRP19       0.0946
      8  CD2      -33.0050   -2.6030   37.8340 C.ar   19  TRP19       0.0152
      9  NE1      -31.6130   -4.3470   38.1260 N.ar   19  TRP19      -0.2442
     10  CE2      -32.8290   -3.8380   38.5050 C.ar   19  TRP19       0.0810
     11  CE3      -34.1850   -1.8750   38.0510 C.ar   19  TRP19       0.0012
     12  CZ2      -33.7880   -4.3550   39.3880 C.ar   19  TRP19       0.0191
     13  CZ3      -35.1420   -2.3920   38.9290 C.ar   19  TRP19       0.0001
     14  CH2      -34.9350   -3.6200   39.5850 C.ar   19  TRP19       0.0015
     15  N        -35.8310    0.1840   41.3320 N.3    24  CYS24      -0.1235
     16  CA       -37.2580    0.5450   41.2460 C.3    24  CYS24       0.1677
     17  C        -37.5430    2.0290   41.4820 C.2    24  CYS24       0.2270
     18  O        -38.5460    2.5550   40.9850 O.2    24  CYS24      -0.2867
     19  CB       -38.0970   -0.2760   42.2280 C.3    24  CYS24       0.0956
     20  SG       -38.7300   -1.8440   41.6340 S.3    24  CYS24      -0.0801
     21  N        -36.3690    1.5890   32.9900 N.3    54  ASP54      -0.1225
     22  CA       -36.3970    0.1750   33.3090 C.3    54  ASP54       0.1805
     23  C        -37.7080   -0.2600   33.9860 C.2    54  ASP54       0.2597
     24  O        -38.7830    0.1960   33.6100 O.2    54  ASP54      -0.2718
     25  CB       -35.1810   -0.1810   34.1590 C.3    54  ASP54       0.1424
     26  CG       -34.7220   -1.5960   33.9370 C.2    54  ASP54       0.3668
     27  OD1      -34.0030   -1.8420   32.9460 O.co2  54  ASP54      -0.2456
     28  OD2      -35.0880   -2.4570   34.7590 O.co2  54  ASP54      -0.2456
     29  N        -37.6080   -1.1470   34.9710 N.am   55  ASP55      -0.1974
     30  CA       -38.7760   -1.7370   35.6270 C.3    55  ASP55       0.1709
     31  C        -39.4280   -0.7780   36.6270 C.2    55  ASP55       0.2293
     32  O        -38.9040    0.3020   36.9010 O.2    55  ASP55      -0.2864
     33  CB       -38.3720   -3.0420   36.3330 C.3    55  ASP55       0.1436
     34  CG       -39.4990   -4.0590   36.3920 C.2    55  ASP55       0.3671
     35  OD1      -40.6550   -3.6950   36.1190 O.co2  55  ASP55      -0.2456
     36  OD2      -39.2270   -5.2330   36.7100 O.co2  55  ASP55      -0.2456
     37  N        -39.4480   -0.5380   29.1400 N.3    95  TYR95      -0.1241
     38  CA       -39.1680   -1.8870   29.6070 C.3    95  TYR95       0.1605
     39  C        -40.4390   -2.7210   29.6910 C.2    95  TYR95       0.2264
     40  O        -41.5130   -2.2090   30.0120 O.2    95  TYR95      -0.2867
     41  CB       -38.4730   -1.8220   30.9770 C.3    95  TYR95       0.0534
     42  CG       -38.2910   -3.1470   31.6870 C.ar   95  TYR95      -0.0201
     43  CD1      -39.2860   -3.6540   32.5260 C.ar   95  TYR95      -0.0009
     44  CD2      -37.1140   -3.8860   31.5400 C.ar   95  TYR95      -0.0009
     45  CE1      -39.1220   -4.8700   33.1850 C.ar   95  TYR95       0.0417
     46  CE2      -36.9400   -5.1070   32.1960 C.ar   95  TYR95       0.0417
     47  CZ       -37.9470   -5.5920   33.0150 C.ar   95  TYR95       0.1957
     48  OH       -37.7790   -6.7940   33.6720 O.3    95  TYR95      -0.2866
     49  N        -39.7580   -8.5490   36.2010 N.3   103  CYS103     -0.1221
     50  CA       -38.8800   -9.0960   37.2290 C.3   103  CYS103      0.1808
     51  C        -39.1110   -8.4830   38.6070 C.2   103  CYS103      0.2601
     52  O        -38.7400   -9.0770   39.6240 O.2   103  CYS103     -0.2717
     53  CB       -37.4190   -8.9610   36.7940 C.3   103  CYS103      0.0970
     54  SG       -37.0910   -9.7760   35.2040 S.3   103  CYS103     -0.0800
     55  N        -39.7360   -7.3050   38.6380 N.am  104  ALA104     -0.1979
     56  CA       -40.0980   -6.6570   39.9030 C.3   104  ALA104      0.1597
     57  C        -41.5690   -6.8490   40.2850 C.2   104  ALA104      0.2287
     58  O        -42.0060   -6.3830   41.3380 O.2   104  ALA104     -0.2864
     59  CB       -39.7410   -5.1780   39.8740 C.3   104  ALA104      0.0319
     60  N        -36.6180   -2.6830   25.8290 N.3   129  LYS129     -0.1245
     61  CA       -35.8830   -3.7310   26.5250 C.3   129  LYS129      0.1561
     62  C        -36.8980   -4.7720   26.9950 C.2   129  LYS129      0.2260
     63  O        -37.7870   -4.4630   27.7950 O.2   129  LYS129     -0.2867
     64  CB       -35.0980   -3.1510   27.7020 C.3   129  LYS129      0.0271
     65  CG       -34.3630   -4.1880   28.5400 C.3   129  LYS129      0.0035
     66  CD       -33.6790   -3.5330   29.7150 C.3   129  LYS129      0.0206
     67  CE       -33.0310   -4.5570   30.6200 C.3   129  LYS129      0.1093
     68  NZ       -32.2630   -3.8920   31.7160 N.3   129  LYS129     -0.1314
     69  N        -37.6550   -8.3340   28.7130 N.3   131  ALA131     -0.1245
     70  CA       -37.0650   -9.2740   29.6720 C.3   131  ALA131      0.1562
     71  C        -37.6430  -10.6830   29.6130 C.2   131  ALA131      0.2260
     72  O        -38.4650  -10.9790   28.7530 O.2   131  ALA131     -0.2867
     73  CB       -37.1580   -8.7170   31.0780 C.3   131  ALA131      0.0290
     74  N        -38.6100  -12.6730   32.6660 N.3   133  CYS133     -0.1221
     75  CA       -39.1680  -13.1210   33.9410 C.3   133  CYS133      0.1808
     76  C        -40.6080  -13.6180   33.8260 C.2   133  CYS133      0.2601
     77  O        -41.4150  -13.0570   33.0710 O.2   133  CYS133     -0.2717
     78  CB       -39.0970  -12.0040   34.9710 C.3   133  CYS133      0.0970
     79  SG       -37.4450  -11.7350   35.6080 S.3   133  CYS133     -0.0800
     80  N        -40.9140  -14.6720   34.5860 N.am  134  TYR134     -0.1976
     81  CA       -42.2650  -15.2410   34.6850 C.3   134  TYR134      0.1639
     82  C        -42.8560  -15.6070   33.3240 C.2   134  TYR134      0.2290
     83  O        -43.9640  -15.2160   32.9870 O.2   134  TYR134     -0.2864
     84  CB       -43.1910  -14.3150   35.4950 C.3   134  TYR134      0.0560
     85  CG       -42.6270  -13.9660   36.8580 C.ar  134  TYR134     -0.0198
     86  CD1      -42.0550  -12.7210   37.1020 C.ar  134  TYR134     -0.0009
     87  CD2      -42.6410  -14.8920   37.8930 C.ar  134  TYR134     -0.0009
     88  CE1      -41.5250  -12.4100   38.3380 C.ar  134  TYR134      0.0417
     89  CE2      -42.1090  -14.5910   39.1320 C.ar  134  TYR134      0.0417
     90  CZ       -41.5510  -13.3490   39.3480 C.ar  134  TYR134      0.1957
     91  OH       -41.0260  -13.0460   40.5860 O.3   134  TYR134     -0.2866
     92  N        -33.8040   -9.4790   26.2620 N.3   168  CYS168     -0.1235
     93  CA       -33.1980   -9.6330   27.5730 C.3   168  CYS168      0.1677
     94  C        -33.5690  -11.0030   28.1540 C.2   168  CYS168      0.2270
     95  O        -34.2000  -11.0930   29.2060 O.2   168  CYS168     -0.2867
     96  CB       -33.6400   -8.4810   28.4820 C.3   168  CYS168      0.0956
     97  SG       -32.8840   -8.4060   30.1300 S.3   168  CYS168     -0.0801
     98  N        -31.1050  -13.3790   28.5710 N.3   170  TRP170     -0.1241
     99  CA       -29.8650  -13.8360   29.1990 C.3   170  TRP170      0.1605
    100  C        -29.1730  -14.9630   28.4380 C.2   170  TRP170      0.2264
    101  O        -28.4400  -15.7610   29.0260 O.2   170  TRP170     -0.2867
    102  CB       -30.0940  -14.2540   30.6590 C.3   170  TRP170      0.0550
    103  CG       -31.1050  -13.4390   31.4120 C.ar  170  TRP170      0.0003
    104  CD1      -31.0670  -12.0950   31.6610 C.ar  170  TRP170      0.0946
    105  CD2      -32.2990  -13.9280   32.0270 C.ar  170  TRP170      0.0152
    106  NE1      -32.1730  -11.7180   32.3810 N.ar  170  TRP170     -0.2442
    107  CE2      -32.9450  -12.8250   32.6220 C.ar  170  TRP170      0.0810
    108  CE3      -32.8890  -15.1950   32.1330 C.ar  170  TRP170      0.0012
    109  CZ2      -34.1520  -12.9510   33.3150 C.ar  170  TRP170      0.0191
    110  CZ3      -34.0840  -15.3180   32.8210 C.ar  170  TRP170      0.0001
    111  CH2      -34.7040  -14.2020   33.4000 C.ar  170  TRP170      0.0015
    112  N        -29.3560   -9.9200   25.1280 N.3   187  ARG187     -0.1245
    113  CA       -28.5630  -10.2670   26.2920 C.3   187  ARG187      0.1563
    114  C        -28.1320  -11.7210   26.1710 C.2   187  ARG187      0.2260
    115  O        -28.9410  -12.6010   25.8520 O.2   187  ARG187     -0.2867
    116  CB       -29.3640  -10.0390   27.5740 C.3   187  ARG187      0.0307
    117  CG       -29.5330   -8.5620   27.9530 C.3   187  ARG187      0.0489
    118  CD       -28.3240   -8.0300   28.7010 C.3   187  ARG187      0.2205
    119  NE       -28.0320   -8.8540   29.8670 N.pl3 187  ARG187     -0.0865
    120  CZ       -28.6140   -8.7190   31.0570 C.cat 187  ARG187      0.5346
    121  NH1      -29.5230   -7.7760   31.2690 N.pl3 187  ARG187      0.1354
    122  NH2      -28.2770   -9.5330   32.0430 N.pl3 187  ARG187      0.1354
    123  N        -27.2300  -10.9880   34.6130 N.3   191  ASP191     -0.1239
    124  CA       -26.8330   -9.6180   34.9220 C.3   191  ASP191      0.1674
    125  C        -25.3980   -9.4660   35.3910 C.2   191  ASP191      0.2266
    126  O        -24.8910  -10.2770   36.1600 O.2   191  ASP191     -0.2867
    127  CB       -27.7640   -9.0090   35.9690 C.3   191  ASP191      0.1410
    128  CG       -29.2150   -8.9640   35.5200 C.2   191  ASP191      0.3668
    129  OD1      -29.5400   -9.4500   34.4140 O.co2 191  ASP191     -0.2456
    130  OD2      -30.0390   -8.4400   36.2960 O.co2 191  ASP191     -0.2456
    131  N        -29.0950  -22.0140   33.8570 N.3   214  TYR214     -0.1241
    132  CA       -29.4900  -21.0930   34.9190 C.3   214  TYR214      0.1605
    133  C        -28.6200  -19.8440   34.8290 C.2   214  TYR214      0.2264
    134  O        -27.6250  -19.7180   35.5460 O.2   214  TYR214     -0.2867
    135  CB       -29.3220  -21.7470   36.2950 C.3   214  TYR214      0.0534
    136  CG       -30.1670  -21.1640   37.4050 C.ar  214  TYR214     -0.0201
    137  CD1      -30.2840  -21.8210   38.6250 C.ar  214  TYR214     -0.0009
    138  CD2      -30.8660  -19.9690   37.2360 C.ar  214  TYR214     -0.0009
    139  CE1      -31.0680  -21.2980   39.6600 C.ar  214  TYR214      0.0417
    140  CE2      -31.6470  -19.4320   38.2570 C.ar  214  TYR214      0.0417
    141  CZ       -31.7470  -20.1000   39.4640 C.ar  214  TYR214      0.1957
    142  OH       -32.5320  -19.5680   40.4670 O.3   214  TYR214     -0.2866
    143  N        -28.8690  -16.8140   35.8440 N.3   216  GLY216     -0.1210
    144  CA       -28.6730  -16.1220   37.1110 C.3   216  GLY216      0.1956
    145  C        -28.3400  -14.6520   36.9620 C.2   216  GLY216      0.2611
    146  O        -28.6860  -14.0220   35.9590 O.2   216  GLY216     -0.2717
    147  N        -27.6770  -14.1080   37.9780 N.am  217  PHE217     -0.1976
    148  CA       -27.2120  -12.7240   37.9700 C.3   217  PHE217      0.1639
    149  C        -26.0260  -12.5700   38.9190 C.2   217  PHE217      0.2290
    150  O        -25.5830  -13.5600   39.5050 O.2   217  PHE217     -0.2864
    151  CB       -28.3630  -11.7310   38.2610 C.3   217  PHE217      0.0560
    152  CG       -28.9370  -11.8030   39.6630 C.ar  217  PHE217     -0.0200
    153  CD1      -29.4450  -10.6560   40.2630 C.ar  217  PHE217     -0.0042
    154  CD2      -28.9900  -13.0000   40.3760 C.ar  217  PHE217     -0.0042
    155  CE1      -29.9880  -10.6950   41.5440 C.ar  217  PHE217     -0.0003
    156  CE2      -29.5320  -13.0470   41.6580 C.ar  217  PHE217     -0.0003
    157  CZ       -30.0310  -11.8930   42.2410 C.ar  217  PHE217     -0.0000
    158  N        -24.6970   -6.6980   28.7190 N.3   244  ASP244     -0.1225
    159  CA       -25.3190   -5.9580   29.8290 C.3   244  ASP244      0.1805
    160  C        -24.7180   -4.5730   30.0240 C.2   244  ASP244      0.2597
    161  O        -23.6280   -4.2880   29.5390 O.2   244  ASP244     -0.2718
    162  CB       -25.2790   -6.7660   31.1330 C.3   244  ASP244      0.1424
    163  CG       -26.3500   -6.3500   32.1240 C.2   244  ASP244      0.3668
    164  OD1      -27.2040   -5.5020   31.7940 O.co2 244  ASP244     -0.2456
    165  OD2      -26.3430   -6.8860   33.2460 O.co2 244  ASP244     -0.2456
    166  N        -25.4490   -3.7190   30.7370 N.am  245  ASN245     -0.1974
    167  CA       -25.0640   -2.3300   30.9650 C.3   245  ASN245      0.1688
    168  C        -23.6770   -2.1970   31.5720 C.2   245  ASN245      0.2292
    169  O        -23.2180   -3.0730   32.2950 O.2   245  ASN245     -0.2864
    170  CB       -26.0880   -1.6230   31.8600 C.3   245  ASN245      0.1181
    171  CG       -27.5200   -1.7370   31.3380 C.2   245  ASN245      0.2629
    172  OD1      -27.7550   -2.0200   30.1550 O.2   245  ASN245     -0.2716
    173  ND2      -28.4870   -1.5090   32.2260 N.am  245  ASN245     -0.0877
@<TRIPOS>BOND
     1   112   113    1
     2    60    61    1
     3   115   114    2
     4   114   113    1
     5    92    93    1
     6   113   116    1
     7    61    62    1
     8    61    64    1
     9    62    63    2
    10    93    94    1
    11    93    96    1
    12   116   117    1
    13    64    65    1
    14   117   118    1
    15    94    95    2
    16   100   101    2
    17   100    99    1
    18    96    97    1
    19    65    66    1
    20    98    99    1
    21   118   119    1
    22    69    70    1
    23   158   159    1
    24    72    71    2
    25    37    38    1
    26    99   102    1
    27   161   160    2
    28    38    39    1
    29    38    41    1
    30    71    70    1
    31    70    73    1
    32    39    40    2
    33    66    67    1
    34   159   160    1
    35   159   162    1
    36   119   120    2
    37   160   166   am
    38   172   171    2
    39    67    68    1
    40   102   103    1
    41   166   167    1
    42   167   168    1
    43   167   170    1
    44    41    42    1
    45   120   121    1
    46   120   122    1
    47   162   163    1
    48   171   170    1
    49   171   173   am
    50   103   104   ar
    51   103   105   ar
    52    44    42   ar
    53    44    46   ar
    54   168   169    2
    55   104   106   ar
    56    42    43   ar
    57   164   163   ar
    58   105   108   ar
    59   105   107   ar
    60   163   165   ar
    61   108   110   ar
    62    46    47   ar
    63   106   107   ar
    64    43    45   ar
    65   107   109   ar
    66    74    75    1
    67   110   111   ar
    68    27    26   ar
    69    83    82    2
    70    21    22    1
    71    47    45   ar
    72    47    48    1
    73    77    76    2
    74    22    23    1
    75    22    25    1
    76   109   111   ar
    77    82    81    1
    78    24    23    2
    79    76    75    1
    80    76    80   am
    81   131   132    1
    82    26    25    1
    83    26    28   ar
    84    75    78    1
    85    23    29   am
    86   129   128   ar
    87    80    81    1
    88   123   124    1
    89    81    84    1
    90   133   132    1
    91   133   134    2
    92   132   135    1
    93   124   125    1
    94   124   127    1
    95    29    30    1
    96    78    79    1
    97    54    79    1
    98    54    53    1
    99   125   126    2
   100    84    85    1
   101   128   127    1
   102   128   130   ar
   103    30    33    1
   104    30    31    1
   105   143   144    1
   106   146   145    2
   107     1     2    1
   108    35    34   ar
   109     5     2    1
   110     5     6    1
   111    49    50    1
   112   135   136    1
   113    33    34    1
   114    34    36   ar
   115    31    32    2
   116    53    50    1
   117    85    86   ar
   118    85    87   ar
   119     2     3    1
   120   145   144    1
   121   145   147   am
   122     6     7   ar
   123     6     8   ar
   124    86    88   ar
   125    50    51    1
   126   138   136   ar
   127   138   140   ar
   128     7     9   ar
   129   136   137   ar
   130     8    11   ar
   131     8    10   ar
   132    87    89   ar
   133     3     4    2
   134   148   147    1
   135   148   151    1
   136   148   149    1
   137    11    13   ar
   138     9    10   ar
   139   140   141   ar
   140   151   152    1
   141    88    90   ar
   142    10    12   ar
   143    51    55   am
   144    51    52    2
   145   137   139   ar
   146    55    56    1
   147   149   150    2
   148    13    14   ar
   149    89    90   ar
   150    90    91    1
   151    12    14   ar
   152   141   139   ar
   153   141   142    1
   154   152   153   ar
   155   152   154   ar
   156    59    56    1
   157    56    57    1
   158   153   155   ar
   159    57    58    2
   160   154   156   ar
   161    18    17    2
   162    16    15    1
   163    16    17    1
   164    16    19    1
   165   155   157   ar
   166    20    19    1
   167   156   157   ar
