@<TRIPOS>MOLECULE
tmp/3lrpA00.pdb
 104 99 0 0 0
SMALL
GASTEIGER

@<TRIPOS>ATOM
      1  N         17.5320   44.8830   12.1740 N.3    26  ASP26      -0.1225
      2  CA        18.3730   45.6890   13.0390 C.3    26  ASP26       0.1805
      3  C         19.8230   45.5140   12.5860 C.2    26  ASP26       0.2598
      4  O         20.1970   44.4720   12.0500 O.2    26  ASP26      -0.2718
      5  CB        18.2360   45.2420   14.4870 C.3    26  ASP26       0.1424
      6  CG        18.9210   43.9310   14.7450 C.2    26  ASP26       0.3668
      7  OD1       18.4840   42.9120   14.1680 O.co2  26  ASP26      -0.2456
      8  OD2       19.9070   43.9240   15.5170 O.co2  26  ASP26      -0.2456
      9  N         20.6220   46.5550   12.7940 N.am   27  ALA27      -0.1966
     10  CA        22.0380   46.5760   12.4410 C.3    27  ALA27       0.1728
     11  C         22.3300   46.6440   10.9370 C.2    27  ALA27       0.2616
     12  O         23.4610   46.4210   10.5170 O.2    27  ALA27      -0.2715
     13  CB        22.7500   45.3780   13.0660 C.3    27  ALA27       0.0334
     14  N         21.3230   46.9670   10.1310 N.am   28  ALA28      -0.1963
     15  CA        21.5180   47.0750    8.6840 C.3    28  ALA28       0.1728
     16  C         22.1680   48.4100    8.3110 C.2    28  ALA28       0.2617
     17  O         22.8330   48.5170    7.2750 O.2    28  ALA28      -0.2715
     18  CB        20.1850   46.9230    7.9590 C.3    28  ALA28       0.0334
     19  N         21.9710   49.4200    9.1580 N.am   29  GLY29      -0.1940
     20  CA        22.5400   50.7370    8.9130 C.3    29  GLY29       0.2014
     21  C         21.5630   51.9070    8.8100 C.2    29  GLY29       0.2639
     22  O         21.9590   52.9960    8.3800 O.2    29  GLY29      -0.2714
     23  N         20.3030   51.7030    9.1950 N.am   30  LYS30      -0.1963
     24  CA        19.2830   52.7590    9.1290 C.3    30  LYS30       0.1728
     25  C         19.6300   54.0420    9.8900 C.2    30  LYS30       0.2617
     26  O         19.6520   55.1360    9.3210 O.2    30  LYS30      -0.2715
     27  CB        17.9370   52.2290    9.6410 C.3    30  LYS30       0.0311
     28  CG        17.3040   51.1890    8.7400 C.3    30  LYS30       0.0038
     29  CD        15.9660   50.7020    9.2740 C.3    30  LYS30       0.0206
     30  CE        16.1190   50.0790   10.6390 C.3    30  LYS30       0.1093
     31  NZ        17.2000   49.0600   10.6540 N.3    30  LYS30      -0.1314
     32  N         19.8870   53.8980   11.1830 N.am   31  THR31      -0.1937
     33  CA        20.2240   55.0240   12.0390 C.3    31  THR31       0.2028
     34  C         21.4460   55.7920   11.5150 C.2    31  THR31       0.2642
     35  O         21.4750   57.0280   11.5430 O.2    31  THR31      -0.2714
     36  CB        20.4920   54.5300   13.4820 C.3    31  THR31       0.1808
     37  OG1       19.3000   53.9350   14.0090 O.3    31  THR31      -0.2208
     38  CG2       20.9320   55.6770   14.3790 C.3    31  THR31       0.0379
     39  N         22.4500   55.0590   11.0410 N.am   32  THR32      -0.1950
     40  CA        23.6590   55.6830   10.5210 C.3    32  THR32       0.1897
     41  C         23.3180   56.6220    9.3750 C.2    32  THR32       0.2313
     42  O         23.7840   57.7660    9.3510 O.2    32  THR32      -0.2863
     43  CB        24.6840   54.6300   10.0320 C.3    32  THR32       0.1794
     44  OG1       25.0570   53.7880   11.1250 O.3    32  THR32      -0.2208
     45  CG2       25.9410   55.3080    9.4980 C.3    32  THR32       0.0378
     46  N         13.0350   49.1460   13.0090 N.3    67  ASP67      -0.1239
     47  CA        13.5920   47.8600   12.6390 C.3    67  ASP67       0.1674
     48  C         12.5220   46.7990   12.4030 C.2    67  ASP67       0.2266
     49  O         11.5580   46.6960   13.1600 O.2    67  ASP67      -0.2867
     50  CB        14.5570   47.3880   13.7300 C.3    67  ASP67       0.1410
     51  CG        15.5820   48.4450   14.0910 C.2    67  ASP67       0.3668
     52  OD1       16.2000   49.0100   13.1660 O.co2  67  ASP67      -0.2456
     53  OD2       15.7720   48.7200   15.2920 O.co2  67  ASP67      -0.2456
     54  N         23.7710   48.1930    1.8600 N.3   126  ASN126     -0.1225
     55  CA        24.7590   48.8290    2.7060 C.3   126  ASN126      0.1785
     56  C         25.9160   47.9570    3.1610 C.2   126  ASN126      0.2597
     57  O         25.8580   46.7340    3.0920 O.2   126  ASN126     -0.2718
     58  CB        24.0280   49.4310    3.9080 C.3   126  ASN126      0.1169
     59  CG        24.8480   50.4650    4.6290 C.2   126  ASN126      0.2627
     60  OD1       25.4960   51.3080    4.0040 O.2   126  ASN126     -0.2716
     61  ND2       24.8150   50.4240    5.9530 N.am  126  ASN126     -0.0877
     62  N         26.9740   48.6140    3.6170 N.am  127  LYS127     -0.1980
     63  CA        28.1810   47.9530    4.0980 C.3   127  LYS127      0.1596
     64  C         28.9960   47.3450    2.9670 C.2   127  LYS127      0.2287
     65  O         29.6460   46.3100    3.1440 O.2   127  LYS127     -0.2864
     66  CB        27.8370   46.8810    5.1430 C.3   127  LYS127      0.0298
     67  CG        27.1120   47.4430    6.3600 C.3   127  LYS127      0.0038
     68  CD        26.9760   46.4330    7.4840 C.3   127  LYS127      0.0206
     69  CE        26.1470   47.0210    8.6190 C.3   127  LYS127      0.1093
     70  NZ        26.2060   46.2230    9.8750 N.3   127  LYS127     -0.1314
     71  N         31.5580   48.4270    1.9270 N.3   129  ASP129     -0.1225
     72  CA        32.9520   48.6670    2.2950 C.3   129  ASP129      0.1805
     73  C         33.6260   47.4240    2.8680 C.2   129  ASP129      0.2597
     74  O         34.8440   47.2700    2.7830 O.2   129  ASP129     -0.2718
     75  CB        33.0240   49.7780    3.3370 C.3   129  ASP129      0.1424
     76  CG        32.2650   49.4300    4.5950 C.2   129  ASP129      0.3668
     77  OD1       31.0290   49.2880    4.5140 O.co2 129  ASP129     -0.2456
     78  OD2       32.9010   49.2900    5.6610 O.co2 129  ASP129     -0.2456
     79  N         32.8350   46.5480    3.4710 N.am  130  LEU130     -0.1979
     80  CA        33.3750   45.3360    4.0560 C.3   130  LEU130      0.1596
     81  C         33.8730   44.3630    2.9920 C.2   130  LEU130      0.2287
     82  O         33.2250   44.1430    1.9670 O.2   130  LEU130     -0.2864
     83  CB        32.3250   44.6760    4.9510 C.3   130  LEU130      0.0297
     84  CG        31.9940   45.5320    6.1810 C.3   130  LEU130      0.0022
     85  CD1       30.8700   44.9150    6.9900 C.3   130  LEU130      0.0001
     86  CD2       33.2500   45.6770    7.0260 C.3   130  LEU130      0.0001
     87  N         27.7620   52.8230    1.6660 N.3   159  CYS159     -0.1221
     88  CA        28.6410   52.7040    2.8030 C.3   159  CYS159      0.1808
     89  C         28.1350   53.8680    3.6440 C.2   159  CYS159      0.2601
     90  O         28.6750   54.9770    3.5870 O.2   159  CYS159     -0.2717
     91  CB        30.1010   52.9240    2.4140 C.3   159  CYS159      0.0970
     92  SG        31.1750   53.0010    3.8700 S.3   159  CYS159     -0.0800
     93  N         27.0590   53.6110    4.3840 N.am  160  ALA160     -0.1965
     94  CA        26.4220   54.6130    5.2310 C.3   160  ALA160      0.1728
     95  C         27.4340   55.3600    6.0880 C.2   160  ALA160      0.2616
     96  O         27.3310   56.5780    6.2630 O.2   160  ALA160     -0.2715
     97  CB        25.3730   53.9500    6.1190 C.3   160  ALA160      0.0334
     98  N         28.4130   54.6270    6.6120 N.am  161  THR161     -0.1951
     99  CA        29.4370   55.2240    7.4590 C.3   161  THR161      0.1897
    100  C         30.2640   56.3070    6.7740 C.2   161  THR161      0.2313
    101  O         30.7160   57.2400    7.4330 O.2   161  THR161     -0.2863
    102  CB        30.3710   54.1570    8.0180 C.3   161  THR161      0.1794
    103  OG1       30.7310   53.2420    6.9800 O.3   161  THR161     -0.2208
    104  CG2       29.6880   53.4140    9.1310 C.3   161  THR161      0.0378
@<TRIPOS>BOND
     1    87    88    1
     2    54    55    1
     3    71    72    1
     4    82    81    2
     5    72    73    1
     6    72    75    1
     7    91    88    1
     8    91    92    1
     9    55    56    1
    10    55    58    1
    11    74    73    2
    12    88    89    1
    13    73    79   am
    14    64    65    2
    15    64    63    1
    16    81    80    1
    17    57    56    2
    18    56    62   am
    19    75    76    1
    20    79    80    1
    21    90    89    2
    22    62    63    1
    23    89    93   am
    24    58    59    1
    25    60    59    2
    26    80    83    1
    27    63    66    1
    28    93    94    1
    29    77    76   ar
    30    76    78   ar
    31    59    61   am
    32    83    84    1
    33    66    67    1
    34    94    95    1
    35    94    97    1
    36    95    96    2
    37    95    98   am
    38    84    85    1
    39    84    86    1
    40    67    68    1
    41    98    99    1
    42   100   101    2
    43   100    99    1
    44   103   102    1
    45    17    16    2
    46    99   102    1
    47    68    69    1
    48    18    15    1
    49   102   104    1
    50    16    15    1
    51    16    19   am
    52    22    21    2
    53    69    70    1
    54    15    14    1
    55    28    29    1
    56    28    27    1
    57    21    20    1
    58    21    23   am
    59    20    19    1
    60    24    23    1
    61    24    27    1
    62    24    25    1
    63    29    30    1
    64    26    25    2
    65    42    41    2
    66    41    40    1
    67    45    43    1
    68    25    32   am
    69    43    40    1
    70    43    44    1
    71    14    11   am
    72    12    11    2
    73    40    39    1
    74    30    31    1
    75    11    10    1
    76    39    34   am
    77    32    33    1
    78    34    35    2
    79    34    33    1
    80    33    36    1
    81     4     3    2
    82     1     2    1
    83    48    47    1
    84    48    49    2
    85    10     9    1
    86    10    13    1
    87     3     9   am
    88     3     2    1
    89    47    46    1
    90    47    50    1
    91     2     5    1
    92    52    51   ar
    93    36    37    1
    94    36    38    1
    95    50    51    1
    96    51    53   ar
    97     7     6   ar
    98     5     6    1
    99     6     8   ar
