@<TRIPOS>MOLECULE
tmp/3ls3C01.pdb
 92 90 0 0 0
SMALL
GASTEIGER

@<TRIPOS>ATOM
      1  N        -36.4260   21.6070  -40.9200 N.3    92  GLU92      -0.1231
      2  CA       -35.7050   21.3630  -42.1640 C.3    92  GLU92       0.1699
      3  C        -34.5240   22.2870  -42.4350 C.2    92  GLU92       0.2592
      4  O        -33.6850   21.9560  -43.2830 O.2    92  GLU92      -0.2718
      5  CB       -36.6490   21.3790  -43.3650 C.3    92  GLU92       0.0402
      6  CG       -37.3460   22.6890  -43.6170 C.3    92  GLU92       0.1161
      7  CD       -38.1290   22.6420  -44.9110 C.2    92  GLU92       0.3649
      8  OE1      -37.5080   22.4140  -45.9740 O.co2  92  GLU92      -0.2457
      9  OE2      -39.3610   22.8180  -44.8620 O.co2  92  GLU92      -0.2457
     10  N        -34.4500   23.4210  -41.7240 N.am   93  ASP93      -0.1974
     11  CA       -33.3490   24.3760  -41.9520 C.3    93  ASP93       0.1709
     12  C        -32.2660   24.2620  -40.8930 C.2    93  ASP93       0.2293
     13  O        -31.3620   25.1150  -40.8500 O.2    93  ASP93      -0.2864
     14  CB       -33.8300   25.8290  -42.1580 C.3    93  ASP93       0.1436
     15  CG       -34.5740   26.3940  -40.9400 C.2    93  ASP93       0.3671
     16  OD1      -34.8750   25.6240  -39.9960 O.co2  93  ASP93      -0.2456
     17  OD2      -34.8510   27.6140  -40.9500 O.co2  93  ASP93      -0.2456
     18  N        -31.7170   29.7090  -38.0720 N.3   122  PRO122     -0.2116
     19  CA       -31.0820   30.7880  -38.8050 C.3   122  PRO122      0.1372
     20  C        -31.7340   32.1750  -38.6460 C.2   122  PRO122      0.2244
     21  O        -32.9570   32.2730  -38.5890 O.2   122  PRO122     -0.2868
     22  CB       -31.2240   30.3450  -40.2760 C.3   122  PRO122      0.0268
     23  CG       -31.5980   28.9110  -40.2790 C.3   122  PRO122      0.0207
     24  CD       -32.3400   28.7000  -38.9590 C.3   122  PRO122      0.0892
     25  N        -32.3520   34.5610  -40.6160 N.3   124  ASN124     -0.1225
     26  CA       -33.2580   34.9640  -41.7000 C.3   124  ASN124      0.1785
     27  C        -34.3430   33.9310  -42.0040 C.2   124  ASN124      0.2598
     28  O        -35.0570   34.0520  -43.0210 O.2   124  ASN124     -0.2718
     29  CB       -32.4550   35.2290  -42.9840 C.3   124  ASN124      0.1169
     30  CG       -31.8530   33.9550  -43.5620 C.2   124  ASN124      0.2627
     31  OD1      -31.9540   32.8800  -42.9590 O.2   124  ASN124     -0.2716
     32  ND2      -31.2120   34.0660  -44.7070 N.am  124  ASN124     -0.0877
     33  N        -34.4370   32.9020  -41.1610 N.am  125  GLY125     -0.1943
     34  CA       -35.4300   31.8390  -41.3250 C.3   125  GLY125      0.1998
     35  C        -36.8000   32.2610  -40.7820 C.2   125  GLY125      0.2480
     36  O        -36.9310   33.3270  -40.1440 O.2   125  GLY125     -0.2729
     37  N        -37.8290   31.4270  -41.0260 N.am  126  PRO126     -0.2726
     38  CA       -39.1920   31.8100  -40.7060 C.3   126  PRO126      0.1402
     39  C        -39.4750   31.8430  -39.2280 C.2   126  PRO126      0.2269
     40  O        -40.4350   32.5050  -38.8360 O.2   126  PRO126     -0.2865
     41  CB       -40.0480   30.7260  -41.3920 C.3   126  PRO126      0.0296
     42  CG       -39.1340   29.5730  -41.6790 C.3   126  PRO126      0.0237
     43  CD       -37.7730   30.2020  -41.8540 C.3   126  PRO126      0.0939
     44  N        -42.4570   34.4240  -39.4720 N.3   131  ARG131     -0.1245
     45  CA       -43.0970   34.3110  -40.7740 C.3   131  ARG131      0.1563
     46  C        -44.0610   33.1350  -40.8510 C.2   131  ARG131      0.2260
     47  O        -44.4670   32.7470  -41.9370 O.2   131  ARG131     -0.2867
     48  CB       -42.0230   34.0830  -41.8480 C.3   131  ARG131      0.0307
     49  CG       -41.1430   35.2670  -42.1330 C.3   131  ARG131      0.0489
     50  CD       -40.5430   35.1900  -43.5160 C.3   131  ARG131      0.2205
     51  NE       -39.2420   34.5230  -43.5380 N.pl3 131  ARG131     -0.0865
     52  CZ       -38.9970   33.3620  -44.1400 C.cat 131  ARG131      0.5346
     53  NH1      -37.7780   32.8490  -44.1110 N.pl3 131  ARG131      0.1354
     54  NH2      -39.9640   32.7110  -44.7680 N.pl3 131  ARG131      0.1354
     55  N        -46.4700   29.0490  -44.2300 N.3   159  LEU159     -0.1245
     56  CA       -45.7270   30.3030  -44.0930 C.3   159  LEU159      0.1561
     57  C        -46.4910   31.4920  -44.6940 C.2   159  LEU159      0.2260
     58  O        -47.3370   31.3070  -45.5690 O.2   159  LEU159     -0.2867
     59  CB       -44.3750   30.1690  -44.7740 C.3   159  LEU159      0.0270
     60  CG       -43.4370   29.0870  -44.2220 C.3   159  LEU159      0.0019
     61  CD1      -42.1680   28.9650  -45.0480 C.3   159  LEU159      0.0001
     62  CD2      -43.1270   29.3390  -42.7260 C.3   159  LEU159      0.0001
     63  N        -47.1400   31.8950  -48.5060 N.3   162  GLY162     -0.1210
     64  CA       -47.2560   30.5790  -49.1350 C.3   162  GLY162      0.1956
     65  C        -46.0960   29.6720  -48.7910 C.2   162  GLY162      0.2612
     66  O        -45.0920   30.1260  -48.2180 O.2   162  GLY162     -0.2717
     67  N        -46.2410   28.3970  -49.1390 N.am  163  GLY163     -0.1942
     68  CA       -45.2270   27.4060  -48.8070 C.3   163  GLY163      0.2014
     69  C        -45.3390   26.8420  -47.4210 C.2   163  GLY163      0.2639
     70  O        -46.1560   27.2870  -46.5810 O.2   163  GLY163     -0.2714
     71  N        -44.5280   25.8160  -47.1970 N.am  164  HIS164     -0.1959
     72  CA       -44.4990   25.1340  -45.9290 C.3   164  HIS164      0.1787
     73  C        -43.1080   25.0050  -45.3680 C.2   164  HIS164      0.2620
     74  O        -42.1290   25.0370  -46.0900 O.2   164  HIS164     -0.2715
     75  CB       -45.1600   23.7710  -46.0810 C.3   164  HIS164      0.0785
     76  CG       -46.6480   23.8650  -46.2150 C.ar  164  HIS164      0.0821
     77  ND1      -47.2930   23.9960  -47.4300 N.ar  164  HIS164     -0.2267
     78  CD2      -47.6090   23.9160  -45.2680 C.ar  164  HIS164      0.1154
     79  CE1      -48.5940   24.0830  -47.2200 C.ar  164  HIS164      0.1986
     80  NE2      -48.8090   24.0260  -45.9130 N.ar  164  HIS164     -0.2212
     81  N        -43.0460   24.8650  -44.0470 N.am  165  TYR165     -0.1974
     82  CA       -41.7830   24.6920  -43.3110 C.3   165  TYR165      0.1639
     83  C        -41.9600   23.4120  -42.4880 C.2   165  TYR165      0.2290
     84  O        -42.8520   23.3170  -41.6410 O.2   165  TYR165     -0.2864
     85  CB       -41.5960   25.9210  -42.4450 C.3   165  TYR165      0.0560
     86  CG       -40.3900   25.9420  -41.5540 C.ar  165  TYR165     -0.0198
     87  CD1      -39.1020   25.7490  -42.0490 C.ar  165  TYR165     -0.0009
     88  CD2      -40.5500   26.2370  -40.2150 C.ar  165  TYR165     -0.0009
     89  CE1      -37.9950   25.8100  -41.1610 C.ar  165  TYR165      0.0417
     90  CE2      -39.5000   26.2980  -39.3550 C.ar  165  TYR165      0.0417
     91  CZ       -38.2260   26.0960  -39.8230 C.ar  165  TYR165      0.1957
     92  OH       -37.1870   26.1840  -38.9380 O.3   165  TYR165     -0.2866
@<TRIPOS>BOND
     1    67    68    1
     2    67    65   am
     3    64    65    1
     4    64    63    1
     5    68    69    1
     6    65    66    2
     7    77    79   ar
     8    77    76   ar
     9    69    71   am
    10    69    70    2
    11    79    80   ar
    12    71    72    1
    13    76    75    1
    14    76    78   ar
    15    74    73    2
    16    75    72    1
    17     8     7   ar
    18    72    73    1
    19    80    78   ar
    20    58    57    2
    21    73    81   am
    22    61    60    1
    23     7     9   ar
    24     7     6    1
    25    59    60    1
    26    59    56    1
    27    54    52    1
    28    32    30   am
    29    57    56    1
    30    55    56    1
    31    60    62    1
    32    52    53    1
    33    52    51    2
    34    81    82    1
    35     6     5    1
    36    30    29    1
    37    30    31    2
    38    51    50    1
    39    50    49    1
    40     5     2    1
    41    82    83    1
    42    82    85    1
    43     4     3    2
    44    28    27    2
    45    29    26    1
    46    83    84    2
    47    85    86    1
    48     3     2    1
    49     3    10   am
    50     2     1    1
    51    14    11    1
    52    14    15    1
    53    49    48    1
    54    87    86   ar
    55    87    89   ar
    56    27    26    1
    57    27    33   am
    58    11    10    1
    59    11    12    1
    60    47    46    2
    61    43    42    1
    62    43    37    1
    63    48    45    1
    64    26    25    1
    65    42    41    1
    66    86    88   ar
    67    41    38    1
    68    34    33    1
    69    34    35    1
    70    89    91   ar
    71    37    35   am
    72    37    38    1
    73    17    15   ar
    74    15    16   ar
    75    12    13    2
    76    46    45    1
    77    35    36    2
    78    45    44    1
    79    38    39    1
    80    23    22    1
    81    23    24    1
    82    22    19    1
    83    88    90   ar
    84    91    90   ar
    85    91    92    1
    86    39    40    2
    87    24    18    1
    88    19    20    1
    89    19    18    1
    90    20    21    2
