@<TRIPOS>MOLECULE
tmp/3ls4B00.pdb
 115 109 0 0 0
SMALL
GASTEIGER

@<TRIPOS>ATOM
      1  N         34.6960   25.1210  -33.1890 N.3    33  VAL33      -0.1245
      2  CA        33.6450   24.8430  -32.2250 C.3    33  VAL33       0.1561
      3  C         34.2380   23.8660  -31.1990 C.2    33  VAL33       0.2260
      4  O         34.9450   22.9050  -31.5650 O.2    33  VAL33      -0.2867
      5  CB        32.4470   24.1830  -32.9030 C.3    33  VAL33       0.0252
      6  CG1       31.3720   23.8390  -31.9070 C.3    33  VAL33       0.0019
      7  CG2       31.9230   25.0750  -34.0340 C.3    33  VAL33       0.0019
      8  N         33.3810   21.6200  -27.4260 N.3    35  VAL35      -0.1245
      9  CA        32.2140   20.8880  -26.9240 C.3    35  VAL35       0.1561
     10  C         32.5480   20.1510  -25.6050 C.2    35  VAL35       0.2260
     11  O         33.6970   19.7490  -25.4010 O.2    35  VAL35      -0.2867
     12  CB        31.7940   19.9100  -28.0270 C.3    35  VAL35       0.0252
     13  CG1       31.0950   18.7040  -27.4740 C.3    35  VAL35       0.0019
     14  CG2       30.9970   20.6330  -29.1180 C.3    35  VAL35       0.0019
     15  N         31.1930   16.7840  -23.5350 N.3    37  LEU37      -0.1245
     16  CA        30.4060   15.5860  -23.5120 C.3    37  LEU37       0.1561
     17  C         30.6060   14.9470  -22.1450 C.2    37  LEU37       0.2260
     18  O         31.5030   15.3220  -21.3930 O.2    37  LEU37      -0.2867
     19  CB        30.8670   14.6170  -24.6040 C.3    37  LEU37       0.0270
     20  CG        31.0060   15.1070  -26.0410 C.3    37  LEU37       0.0019
     21  CD1       31.5060   13.9490  -26.9180 C.3    37  LEU37       0.0001
     22  CD2       29.7130   15.6600  -26.5640 C.3    37  LEU37       0.0001
     23  N         25.7940   14.4420  -24.9960 N.3    47  TRP47      -0.1241
     24  CA        26.1860   15.8020  -25.3260 C.3    47  TRP47       0.1605
     25  C         25.8060   16.7330  -24.1660 C.2    47  TRP47       0.2264
     26  O         24.6900   16.6830  -23.6740 O.2    47  TRP47      -0.2867
     27  CB        25.4650   16.2080  -26.5990 C.3    47  TRP47       0.0550
     28  CG        25.7040   17.6170  -26.9820 C.ar   47  TRP47       0.0003
     29  CD1       26.9230   18.2410  -27.1320 C.ar   47  TRP47       0.0946
     30  CD2       24.7030   18.5980  -27.2610 C.ar   47  TRP47       0.0152
     31  NE1       26.7310   19.5590  -27.5230 N.ar   47  TRP47      -0.2442
     32  CE2       25.3730   19.8050  -27.5980 C.ar   47  TRP47       0.0810
     33  CE3       23.2880   18.5830  -27.2560 C.ar   47  TRP47       0.0012
     34  CZ2       24.6870   20.9930  -27.9300 C.ar   47  TRP47       0.0191
     35  CZ3       22.5910   19.7780  -27.5910 C.ar   47  TRP47       0.0001
     36  CH2       23.3020   20.9560  -27.9270 C.ar   47  TRP47       0.0015
     37  N         27.6890   22.9160  -26.4960 N.3    50  SER50      -0.1217
     38  CA        28.6160   23.3940  -27.5250 C.3    50  SER50       0.1889
     39  C         28.7770   24.9010  -27.4600 C.2    50  SER50       0.2288
     40  O         27.8700   25.6410  -26.9640 O.2    50  SER50      -0.2866
     41  CB        28.1780   23.0360  -28.9440 C.3    50  SER50       0.2089
     42  OG        27.5800   21.7660  -29.0370 O.3    50  SER50      -0.2183
     43  N         30.2150   27.9340  -30.2350 N.3    52  SER52      -0.1217
     44  CA        30.8270   28.3790  -31.4810 C.3    52  SER52       0.1889
     45  C         32.1480   29.1230  -31.2490 C.2    52  SER52       0.2288
     46  O         32.4680   29.5220  -30.1280 O.2    52  SER52      -0.2866
     47  CB        29.8640   29.3020  -32.2530 C.3    52  SER52       0.2089
     48  OG        29.7190   30.5460  -31.5740 O.3    52  SER52      -0.2183
     49  N         24.9590   26.3520  -26.9920 N.3    58  TYR58      -0.1241
     50  CA        23.8360   25.4350  -27.1810 C.3    58  TYR58       0.1605
     51  C         23.8680   24.3420  -26.1540 C.2    58  TYR58       0.2264
     52  O         24.9460   23.8510  -25.8100 O.2    58  TYR58      -0.2867
     53  CB        23.8800   24.7800  -28.5480 C.3    58  TYR58       0.0534
     54  CG        24.1660   25.7520  -29.6660 C.ar   58  TYR58      -0.0201
     55  CD1       25.4730   26.1980  -29.8860 C.ar   58  TYR58      -0.0009
     56  CD2       23.1410   26.2400  -30.4820 C.ar   58  TYR58      -0.0009
     57  CE1       25.7690   27.0770  -30.8820 C.ar   58  TYR58       0.0417
     58  CE2       23.4390   27.1260  -31.5100 C.ar   58  TYR58       0.0417
     59  CZ        24.7630   27.5360  -31.6940 C.ar   58  TYR58       0.1957
     60  OH        25.0940   28.4060  -32.7080 O.3    58  TYR58      -0.2866
     61  N         35.9620   18.1620  -26.0420 N.3    96  VAL96      -0.1245
     62  CA        36.0620   17.6410  -27.3920 C.3    96  VAL96       0.1561
     63  C         36.0990   18.7430  -28.4580 C.2    96  VAL96       0.2260
     64  O         35.3710   19.7280  -28.3600 O.2    96  VAL96      -0.2867
     65  CB        34.8880   16.6900  -27.6340 C.3    96  VAL96       0.0252
     66  CG1       34.9230   16.1240  -29.0290 C.3    96  VAL96       0.0019
     67  CG2       34.8930   15.5500  -26.5470 C.3    96  VAL96       0.0019
     68  N         35.2230   20.0060  -32.1510 N.3    98  GLY98      -0.1210
     69  CA        34.1690   19.6940  -33.0890 C.3    98  GLY98       0.1956
     70  C         34.5760   19.9860  -34.5080 C.2    98  GLY98       0.2613
     71  O         35.3290   20.9250  -34.7470 O.2    98  GLY98      -0.2717
     72  N         34.0650   19.2100  -35.4630 N.am   99  THR99      -0.1938
     73  CA        34.3140   19.5390  -36.8620 C.3    99  THR99       0.2028
     74  C         33.0780   20.1770  -37.5070 C.2    99  THR99       0.2642
     75  O         31.9720   20.2510  -36.9150 O.2    99  THR99      -0.2714
     76  CB        34.6960   18.3080  -37.6880 C.3    99  THR99       0.1808
     77  OG1       33.5480   17.4660  -37.7880 O.3    99  THR99      -0.2208
     78  CG2       35.8090   17.5530  -37.0200 C.3    99  THR99       0.0379
     79  N         33.2460   20.5890  -38.7550 N.am  100  THR100     -0.1950
     80  CA        32.1650   21.2630  -39.4600 C.3   100  THR100      0.1897
     81  C         30.9960   20.3340  -39.8230 C.2   100  THR100      0.2313
     82  O         29.8870   20.7960  -40.1490 O.2   100  THR100     -0.2863
     83  CB        32.7000   22.0140  -40.6860 C.3   100  THR100      0.1794
     84  OG1       33.4150   21.1050  -41.5360 O.3   100  THR100     -0.2208
     85  CG2       33.6430   23.1100  -40.2190 C.3   100  THR100      0.0378
     86  N         30.0240   18.0870  -37.4970 N.3   102  VAL102     -0.1231
     87  CA        29.4790   17.7180  -36.2020 C.3   102  VAL102      0.1692
     88  C         29.9770   16.3170  -35.7540 C.2   102  VAL102      0.2592
     89  O         29.2460   15.5380  -35.1370 O.2   102  VAL102     -0.2718
     90  CB        27.9310   17.8380  -36.2070 C.3   102  VAL102      0.0266
     91  CG1       27.3640   17.7160  -34.8080 C.3   102  VAL102      0.0020
     92  CG2       27.5010   19.2100  -36.8070 C.3   102  VAL102      0.0020
     93  N         31.2510   16.0550  -36.0370 N.am  103  ALA103     -0.1966
     94  CA        31.9960   14.9420  -35.4190 C.3   103  ALA103      0.1728
     95  C         32.9420   15.5230  -34.3720 C.2   103  ALA103      0.2616
     96  O         33.1950   16.6990  -34.3890 O.2   103  ALA103     -0.2715
     97  CB        32.8080   14.1740  -36.4870 C.3   103  ALA103      0.0334
     98  N         33.4990   14.6900  -33.4890 N.am  104  GLY104     -0.1955
     99  CA        34.4560   15.1610  -32.5000 C.3   104  GLY104      0.1869
    100  C         35.7830   14.4970  -32.7940 C.2   104  GLY104      0.2309
    101  O         35.9340   13.2800  -32.6160 O.2   104  GLY104     -0.2863
    102  N         39.7450   14.3130  -28.4810 N.3   107  TRP107     -0.1241
    103  CA        39.1230   14.1860  -27.1680 C.3   107  TRP107      0.1605
    104  C         40.1820   14.2530  -26.0790 C.2   107  TRP107      0.2264
    105  O         41.2880   13.7460  -26.2550 O.2   107  TRP107     -0.2867
    106  CB        38.4510   12.8220  -27.0350 C.3   107  TRP107      0.0550
    107  CG        37.2610   12.5440  -27.9230 C.ar  107  TRP107      0.0003
    108  CD1       37.2180   12.5810  -29.2810 C.ar  107  TRP107      0.0946
    109  CD2       35.9760   12.0740  -27.4890 C.ar  107  TRP107      0.0152
    110  NE1       35.9670   12.1910  -29.7230 N.ar  107  TRP107     -0.2442
    111  CE2       35.1900   11.9000  -28.6350 C.ar  107  TRP107      0.0810
    112  CE3       35.4200   11.8150  -26.2450 C.ar  107  TRP107      0.0012
    113  CZ2       33.8740   11.4620  -28.5610 C.ar  107  TRP107      0.0191
    114  CZ3       34.1110   11.4040  -26.1790 C.ar  107  TRP107      0.0001
    115  CH2       33.3560   11.2090  -27.3240 C.ar  107  TRP107      0.0015
@<TRIPOS>BOND
     1    84    83    1
     2    83    85    1
     3    83    80    1
     4    82    81    2
     5    81    80    1
     6    80    79    1
     7    79    74   am
     8    77    76    1
     9    76    78    1
    10    76    73    1
    11    74    75    2
    12    74    73    1
    13    86    87    1
    14    73    72    1
    15    92    90    1
    16    97    94    1
    17    90    87    1
    18    90    91    1
    19    87    88    1
    20    93    88   am
    21    93    94    1
    22    88    89    2
    23    72    70   am
    24    94    95    1
    25    71    70    2
    26    70    69    1
    27    96    95    2
    28    95    98   am
    29     7     5    1
    30    98    99    1
    31     1     2    1
    32    69    68    1
    33     5     2    1
    34     5     6    1
    35   100   101    2
    36   100    99    1
    37    60    59    1
    38    47    48    1
    39    47    44    1
    40     2     3    1
    41    59    58   ar
    42    59    57   ar
    43     4     3    2
    44    58    56   ar
    45    44    45    1
    46    44    43    1
    47    45    46    2
    48    57    55   ar
    49    56    54   ar
    50    55    54   ar
    51   110   108   ar
    52   110   111   ar
    53    54    53    1
    54   108   107   ar
    55    14    12    1
    56    42    41    1
    57    66    65    1
    58    41    38    1
    59   111   113   ar
    60   111   109   ar
    61   113   115   ar
    62    53    50    1
    63   102   103    1
    64    63    64    2
    65    63    62    1
    66    12    13    1
    67    12     9    1
    68    34    36   ar
    69    34    32   ar
    70    36    35   ar
    71   107   109   ar
    72   107   106    1
    73    65    62    1
    74    65    67    1
    75    32    31   ar
    76    32    30   ar
    77    35    33   ar
    78    38    39    1
    79    38    37    1
    80    31    29   ar
    81   109   112   ar
    82    39    40    2
    83     8     9    1
    84    62    61    1
    85   115   114   ar
    86    30    33   ar
    87    30    28   ar
    88    50    49    1
    89    50    51    1
    90   103   106    1
    91   103   104    1
    92    29    28   ar
    93    28    27    1
    94     9    10    1
    95    21    20    1
    96    27    24    1
    97    22    20    1
    98   105   104    2
    99   112   114   ar
   100    51    52    2
   101    20    19    1
   102    10    11    2
   103    24    23    1
   104    24    25    1
   105    19    16    1
   106    25    26    2
   107    15    16    1
   108    16    17    1
   109    17    18    2
