@<TRIPOS>MOLECULE
tmp/3ls8A00.pdb
 148 140 0 0 0
SMALL
GASTEIGER

@<TRIPOS>ATOM
      1  N        -18.8620   47.1080  -42.0180 N.3   288  PHE288     -0.1241
      2  CA       -20.2270   47.5920  -41.8160 C.3   288  PHE288      0.1605
      3  C        -20.1680   49.0670  -41.4650 C.2   288  PHE288      0.2264
      4  O        -19.1920   49.5380  -40.8670 O.2   288  PHE288     -0.2867
      5  CB       -20.9450   46.8350  -40.6850 C.3   288  PHE288      0.0534
      6  CG       -21.4640   45.4710  -41.0770 C.ar  288  PHE288     -0.0203
      7  CD1      -22.7700   45.3120  -41.5290 C.ar  288  PHE288     -0.0042
      8  CD2      -20.6580   44.3500  -40.9770 C.ar  288  PHE288     -0.0042
      9  CE1      -23.2630   44.0510  -41.8920 C.ar  288  PHE288     -0.0003
     10  CE2      -21.1430   43.0850  -41.3270 C.ar  288  PHE288     -0.0003
     11  CZ       -22.4560   42.9410  -41.7850 C.ar  288  PHE288     -0.0000
     12  N        -19.3290   37.7620  -39.1900 N.3   310  ILE310     -0.1245
     13  CA       -19.0450   39.1060  -38.7680 C.3   310  ILE310      0.1561
     14  C        -17.9820   38.9920  -37.6910 C.2   310  ILE310      0.2260
     15  O        -18.2030   38.3180  -36.6790 O.2   310  ILE310     -0.2867
     16  CB       -20.2880   39.7930  -38.1630 C.3   310  ILE310      0.0252
     17  CG1      -21.4380   39.8240  -39.1680 C.3   310  ILE310      0.0019
     18  CG2      -19.9480   41.2010  -37.7000 C.3   310  ILE310      0.0019
     19  CD1      -22.6820   40.5590  -38.6450 C.3   310  ILE310      0.0001
     20  N        -16.1360   41.1850  -34.9220 N.3   312  LYS312     -0.1245
     21  CA       -16.2640   42.4430  -34.1840 C.3   312  LYS312      0.1561
     22  C        -15.0350   42.6630  -33.3220 C.2   312  LYS312      0.2260
     23  O        -14.6130   41.7520  -32.6110 O.2   312  LYS312     -0.2867
     24  CB       -17.4780   42.4070  -33.2490 C.3   312  LYS312      0.0271
     25  CG       -18.8260   42.2660  -33.9190 C.3   312  LYS312      0.0035
     26  CD       -19.9460   42.3990  -32.8720 C.3   312  LYS312      0.0206
     27  CE       -21.1020   43.2810  -33.3380 C.3   312  LYS312      0.1093
     28  NZ       -21.6160   44.1540  -32.2260 N.3   312  LYS312     -0.1314
     29  N        -24.3720   38.4500  -25.6900 N.3   320  ASP320     -0.1239
     30  CA       -24.9210   37.8290  -26.9040 C.3   320  ASP320      0.1674
     31  C        -24.5910   36.3350  -27.0470 C.2   320  ASP320      0.2266
     32  O        -25.4210   35.5640  -27.4970 O.2   320  ASP320     -0.2867
     33  CB       -24.4990   38.6080  -28.1540 C.3   320  ASP320      0.1410
     34  CG       -25.3900   39.8280  -28.3890 C.2   320  ASP320      0.3668
     35  OD1      -25.2940   40.8170  -27.6210 O.co2 320  ASP320     -0.2456
     36  OD2      -26.2090   39.7880  -29.3270 O.co2 320  ASP320     -0.2456
     37  N        -27.6130   33.3690  -27.3140 N.3   324  LEU324     -0.1245
     38  CA       -27.6880   32.4720  -28.4700 C.3   324  LEU324      0.1561
     39  C        -27.4160   31.0110  -28.0700 C.2   324  LEU324      0.2260
     40  O        -27.9320   30.0810  -28.7090 O.2   324  LEU324     -0.2867
     41  CB       -26.7480   32.9130  -29.6020 C.3   324  LEU324      0.0270
     42  CG       -27.2960   33.8610  -30.6880 C.3   324  LEU324      0.0019
     43  CD1      -28.6900   33.4070  -31.1920 C.3   324  LEU324      0.0001
     44  CD2      -27.3300   35.3130  -30.2600 C.3   324  LEU324      0.0001
     45  N        -28.1350   31.4290  -34.4940 N.3   346  TYR346     -0.1241
     46  CA       -26.8620   31.6570  -35.1520 C.3   346  TYR346      0.1605
     47  C        -25.7060   31.6150  -34.1670 C.2   346  TYR346      0.2264
     48  O        -25.8600   31.9310  -32.9790 O.2   346  TYR346     -0.2867
     49  CB       -26.8670   32.9640  -35.9390 C.3   346  TYR346      0.0534
     50  CG       -27.1380   34.1920  -35.1220 C.ar  346  TYR346     -0.0201
     51  CD1      -26.0980   34.8740  -34.5090 C.ar  346  TYR346     -0.0009
     52  CD2      -28.4360   34.6750  -34.9590 C.ar  346  TYR346     -0.0009
     53  CE1      -26.3290   36.0040  -33.7550 C.ar  346  TYR346      0.0417
     54  CE2      -28.6830   35.8250  -34.1920 C.ar  346  TYR346      0.0417
     55  CZ       -27.6150   36.4880  -33.6030 C.ar  346  TYR346      0.1957
     56  OH       -27.7970   37.6230  -32.8480 O.3   346  TYR346     -0.2866
     57  N        -19.5080   36.2780  -35.1730 N.3   358  MET358     -0.1230
     58  CA       -20.8920   35.8670  -35.2990 C.3   358  MET358      0.1702
     59  C        -21.1610   35.3420  -36.7010 C.2   358  MET358      0.2592
     60  O        -20.6290   35.8480  -37.6830 O.2   358  MET358     -0.2718
     61  CB       -21.8320   37.0170  -35.0420 C.3   358  MET358      0.0401
     62  CG       -21.6630   37.6380  -33.6890 C.3   358  MET358      0.0596
     63  SD       -22.9310   38.8810  -33.4400 S.3   358  MET358     -0.1393
     64  CE       -22.7980   39.0640  -31.6530 C.3   358  MET358      0.0692
     65  N        -22.0190   34.3370  -36.7670 N.am  359  GLN359     -0.1966
     66  CA       -22.4220   33.7410  -38.0160 C.3   359  GLN359      0.1733
     67  C        -23.3190   34.7290  -38.7640 C.2   359  GLN359      0.2616
     68  O        -24.2740   35.2460  -38.2030 O.2   359  GLN359     -0.2715
     69  CB       -23.1440   32.4280  -37.7310 C.3   359  GLN359      0.0408
     70  CG       -23.4810   31.6010  -38.9570 C.3   359  GLN359      0.0908
     71  CD       -24.3740   30.4050  -38.6400 C.2   359  GLN359      0.2608
     72  OE1      -24.7610   30.1780  -37.4890 O.2   359  GLN359     -0.2717
     73  NE2      -24.7260   29.6470  -39.6750 N.am  359  GLN359     -0.0878
     74  N        -22.9780   35.0260  -40.0120 N.am  360  PHE360     -0.1960
     75  CA       -23.8100   35.8730  -40.8490 C.3   360  PHE360      0.1771
     76  C        -24.8810   35.0260  -41.5220 C.2   360  PHE360      0.2619
     77  O        -24.5640   34.1430  -42.3170 O.2   360  PHE360     -0.2715
     78  CB       -22.9820   36.5940  -41.9160 C.3   360  PHE360      0.0574
     79  CG       -23.7800   37.5860  -42.7220 C.ar  360  PHE360     -0.0200
     80  CD1      -23.9450   38.8890  -42.2740 C.ar  360  PHE360     -0.0042
     81  CD2      -24.4120   37.2020  -43.9000 C.ar  360  PHE360     -0.0042
     82  CE1      -24.7070   39.8090  -43.0030 C.ar  360  PHE360     -0.0003
     83  CE2      -25.1850   38.1140  -44.6320 C.ar  360  PHE360     -0.0003
     84  CZ       -25.3320   39.4130  -44.1780 C.ar  360  PHE360     -0.0000
     85  N        -26.1400   35.3060  -41.1910 N.am  361  ILE361     -0.1977
     86  CA       -27.3080   34.6850  -41.8180 C.3   361  ILE361      0.1596
     87  C        -27.8720   35.6020  -42.9090 C.2   361  ILE361      0.2287
     88  O        -28.1810   36.7710  -42.6450 O.2   361  ILE361     -0.2864
     89  CB       -28.4420   34.4470  -40.7920 C.3   361  ILE361      0.0276
     90  CG1      -27.9620   33.5680  -39.6350 C.3   361  ILE361      0.0022
     91  CG2      -29.6440   33.7960  -41.4700 C.3   361  ILE361      0.0022
     92  CD1      -27.5990   32.1480  -40.0290 C.3   361  ILE361      0.0001
     93  N        -30.3930   37.4280  -44.9230 N.3   363  SER363     -0.1217
     94  CA       -31.6130   37.9470  -44.3410 C.3   363  SER363      0.1889
     95  C        -31.7030   39.4470  -44.5990 C.2   363  SER363      0.2288
     96  O        -30.7230   40.0790  -45.0090 O.2   363  SER363     -0.2866
     97  CB       -31.6370   37.6870  -42.8210 C.3   363  SER363      0.2089
     98  OG       -30.4790   38.2100  -42.1720 O.3   363  SER363     -0.2183
     99  N        -33.2840   43.0720  -42.6420 N.3   365  PRO365     -0.2116
    100  CA       -33.9030   43.7280  -41.4850 C.3   365  PRO365      0.1372
    101  C        -35.3230   44.1480  -41.8060 C.2   365  PRO365      0.2244
    102  O        -35.5690   44.6390  -42.9090 O.2   365  PRO365     -0.2868
    103  CB       -33.0310   44.9790  -41.2730 C.3   365  PRO365      0.0268
    104  CG       -31.7320   44.6710  -41.8880 C.3   365  PRO365      0.0207
    105  CD       -32.0090   43.7170  -43.0240 C.3   365  PRO365      0.0892
    106  N        -34.8770   47.2640  -36.9130 N.3   423  ASP423     -0.1239
    107  CA       -33.4990   46.9700  -37.3630 C.3   423  ASP423      0.1674
    108  C        -32.8320   45.8130  -36.6110 C.2   423  ASP423      0.2266
    109  O        -31.7730   45.3690  -37.0100 O.2   423  ASP423     -0.2867
    110  CB       -32.6110   48.2200  -37.2920 C.3   423  ASP423      0.1410
    111  CG       -32.8510   49.1730  -38.4540 C.2   423  ASP423      0.3668
    112  OD1      -32.6880   48.7620  -39.6350 O.co2 423  ASP423     -0.2456
    113  OD2      -33.2070   50.3370  -38.1890 O.co2 423  ASP423     -0.2456
    114  N        -35.0530   40.4200  -37.9590 N.3   426  LEU426     -0.1245
    115  CA       -34.6080   40.0530  -39.3140 C.3   426  LEU426      0.1561
    116  C        -35.4920   38.9890  -39.9360 C.2   426  LEU426      0.2260
    117  O        -36.1520   38.2370  -39.2310 O.2   426  LEU426     -0.2867
    118  CB       -33.1440   39.5850  -39.2940 C.3   426  LEU426      0.0270
    119  CG       -32.0670   40.6680  -39.4340 C.3   426  LEU426      0.0019
    120  CD1      -32.3300   41.8610  -38.5140 C.3   426  LEU426      0.0001
    121  CD2      -30.6640   40.0980  -39.1830 C.3   426  LEU426      0.0001
    122  N        -36.3560   36.2500  -37.1490 N.3   434  PHE434     -0.1241
    123  CA       -35.5020   36.1050  -35.9760 C.3   434  PHE434      0.1605
    124  C        -34.9930   37.4120  -35.4070 C.2   434  PHE434      0.2264
    125  O        -35.0840   38.4670  -36.0440 O.2   434  PHE434     -0.2867
    126  CB       -34.3480   35.1300  -36.2390 C.3   434  PHE434      0.0534
    127  CG       -33.3700   35.5830  -37.2900 C.ar  434  PHE434     -0.0203
    128  CD1      -33.6590   35.4420  -38.6410 C.ar  434  PHE434     -0.0042
    129  CD2      -32.1330   36.1030  -36.9290 C.ar  434  PHE434     -0.0042
    130  CE1      -32.7410   35.8410  -39.6090 C.ar  434  PHE434     -0.0003
    131  CE2      -31.2140   36.4970  -37.9010 C.ar  434  PHE434     -0.0003
    132  CZ       -31.5170   36.3680  -39.2240 C.ar  434  PHE434     -0.0000
    133  N        -31.8150   39.6450  -33.4150 N.3   436  ILE436     -0.1231
    134  CA       -30.3850   39.8470  -33.1930 C.3   436  ILE436      0.1692
    135  C        -30.1610   40.9160  -32.1090 C.2   436  ILE436      0.2592
    136  O        -31.0840   41.6420  -31.7380 O.2   436  ILE436     -0.2718
    137  CB       -29.6510   40.3110  -34.4750 C.3   436  ILE436      0.0266
    138  CG1      -30.1940   41.6640  -34.9810 C.3   436  ILE436      0.0019
    139  CG2      -29.7190   39.2360  -35.5680 C.3   436  ILE436      0.0020
    140  CD1      -29.3110   42.3400  -36.0870 C.3   436  ILE436      0.0001
    141  N        -28.9270   40.9880  -31.6200 N.am  437  ASP437     -0.1974
    142  CA       -28.4140   42.1040  -30.8190 C.3   437  ASP437      0.1709
    143  C        -29.0300   42.2180  -29.4360 C.2   437  ASP437      0.2293
    144  O        -29.8310   43.1060  -29.1800 O.2   437  ASP437     -0.2864
    145  CB       -28.5160   43.4430  -31.5690 C.3   437  ASP437      0.1436
    146  CG       -27.6800   44.5580  -30.9090 C.2   437  ASP437      0.3671
    147  OD1      -27.2570   44.4180  -29.7420 O.co2 437  ASP437     -0.2456
    148  OD2      -27.4410   45.5930  -31.5530 O.co2 437  ASP437     -0.2456
@<TRIPOS>BOND
     1    96    95    2
     2    93    94    1
     3    83    84   ar
     4    83    81   ar
     5    95    94    1
     6    94    97    1
     7    84    82   ar
     8    81    79   ar
     9   105    99    1
    10   105   104    1
    11    82    80   ar
    12    87    88    2
    13    87    86    1
    14   102   101    2
    15    97    98    1
    16    79    80   ar
    17    79    78    1
    18    99   100    1
    19    77    76    2
    20     1     2    1
    21    78    75    1
    22     9    11   ar
    23     9     7   ar
    24   104   103    1
    25    86    85    1
    26    86    89    1
    27     2     3    1
    28     2     5    1
    29   101   100    1
    30    11    10   ar
    31     7     6   ar
    32    76    85   am
    33    76    75    1
    34   100   103    1
    35    91    89    1
    36     3     4    2
    37    10     8   ar
    38     6     8   ar
    39     6     5    1
    40    75    74    1
    41    89    90    1
    42    92    90    1
    43    74    67   am
    44   116   115    1
    45   116   117    2
    46    73    71   am
    47   112   111   ar
    48   130   132   ar
    49   130   128   ar
    50   119   118    1
    51   119   121    1
    52   119   120    1
    53   115   118    1
    54   115   114    1
    55   132   131   ar
    56    12    13    1
    57    17    19    1
    58    17    16    1
    59    70    71    1
    60    70    69    1
    61    13    16    1
    62    13    14    1
    63    67    68    2
    64    67    66    1
    65   128   127   ar
    66    71    72    2
    67   111   113   ar
    68   111   110    1
    69    16    18    1
    70    66    69    1
    71    66    65    1
    72   131   129   ar
    73    14    15    2
    74    60    59    2
    75   107   110    1
    76   107   106    1
    77   107   108    1
    78   127   129   ar
    79   127   126    1
    80   122   123    1
    81   109   108    2
    82    65    59   am
    83    59    58    1
    84   126   123    1
    85   140   138    1
    86   125   124    2
    87   123   124    1
    88    49    46    1
    89    49    50    1
    90   139   137    1
    91    58    57    1
    92    58    61    1
    93    46    45    1
    94    46    47    1
    95    50    52   ar
    96    50    51   ar
    97    61    62    1
    98   138   137    1
    99    52    54   ar
   100    20    21    1
   101    51    53   ar
   102   137   134    1
   103    54    55   ar
   104    21    22    1
   105    21    24    1
   106    47    48    2
   107    25    24    1
   108    25    26    1
   109    53    55   ar
   110    62    63    1
   111    55    56    1
   112    63    64    1
   113   133   134    1
   114    27    26    1
   115    27    28    1
   116    22    23    2
   117   134   135    1
   118   135   136    2
   119   135   141   am
   120   141   142    1
   121   145   146    1
   122   145   142    1
   123   148   146   ar
   124    43    42    1
   125   146   147   ar
   126   142   143    1
   127    42    44    1
   128    42    41    1
   129    41    38    1
   130   143   144    2
   131    36    34   ar
   132    40    39    2
   133    38    39    1
   134    38    37    1
   135    34    33    1
   136    34    35   ar
   137    33    30    1
   138    32    31    2
   139    31    30    1
   140    30    29    1
