@<TRIPOS>MOLECULE
tmp/3lsbA00.pdb
 190 182 0 0 0
SMALL
GASTEIGER

@<TRIPOS>ATOM
      1  N         31.3840   45.5280    4.4980 N.3    65  HIS65      -0.1241
      2  CA        32.8110   45.6880    4.8370 C.3    65  HIS65       0.1621
      3  C         33.2790   46.9300    4.0990 C.2    65  HIS65       0.2264
      4  O         33.6540   46.8570    2.9280 O.2    65  HIS65      -0.2867
      5  CB        33.6570   44.4950    4.3870 C.3    65  HIS65       0.0745
      6  CG        33.1360   43.1720    4.8470 C.ar   65  HIS65       0.0817
      7  ND1       33.1060   42.8040    6.1730 N.ar   65  HIS65      -0.2268
      8  CD2       32.6180   42.1310    4.1550 C.ar   65  HIS65       0.1154
      9  CE1       32.5900   41.5930    6.2790 C.ar   65  HIS65       0.1986
     10  NE2       32.2880   41.1620    5.0680 N.ar   65  HIS65      -0.2212
     11  N         35.7750   48.9740    3.9890 N.3    67  TYR67      -0.1227
     12  CA        37.1150   49.1340    3.4330 C.3    67  TYR67       0.1736
     13  C         37.2820   48.4880    2.0500 C.2    67  TYR67       0.2595
     14  O         38.1660   48.8690    1.2880 O.2    67  TYR67      -0.2718
     15  CB        38.1710   48.6350    4.4290 C.3    67  TYR67       0.0548
     16  CG        38.4900   47.1620    4.3650 C.ar   67  TYR67      -0.0200
     17  CD1       39.7610   46.7340    4.0100 C.ar   67  TYR67      -0.0009
     18  CD2       37.5390   46.2010    4.6800 C.ar   67  TYR67      -0.0009
     19  CE1       40.0780   45.3960    3.9490 C.ar   67  TYR67       0.0417
     20  CE2       37.8410   44.8450    4.6150 C.ar   67  TYR67       0.0417
     21  CZ        39.1180   44.4540    4.2520 C.ar   67  TYR67       0.1957
     22  OH        39.4610   43.1230    4.1910 O.3    67  TYR67      -0.2866
     23  N         36.4190   47.5290    1.7170 N.am   68  GLU68      -0.1979
     24  CA        36.4440   46.9240    0.3870 C.3    68  GLU68       0.1602
     25  C         35.9900   47.8950   -0.7170 C.2    68  GLU68       0.2287
     26  O         36.1170   47.5970   -1.9010 O.2    68  GLU68      -0.2864
     27  CB        35.6050   45.6420    0.3470 C.3    68  GLU68       0.0415
     28  CG        36.1300   44.5200    1.2450 C.3    68  GLU68       0.1163
     29  CD        35.2800   43.2670    1.1520 C.2    68  GLU68       0.3649
     30  OE1       34.3390   43.2230    0.3050 O.co2  68  GLU68      -0.2457
     31  OE2       35.5550   42.3200    1.9220 O.co2  68  GLU68      -0.2457
     32  N         35.8680   31.3770   -3.9640 N.3    82  MET82      -0.1245
     33  CA        36.1170   31.9740   -2.6540 C.3    82  MET82       0.1570
     34  C         37.5850   31.9460   -2.2690 C.2    82  MET82       0.2261
     35  O         38.1460   32.9660   -1.8760 O.2    82  MET82      -0.2867
     36  CB        35.3050   31.2590   -1.5750 C.3    82  MET82       0.0387
     37  CG        35.4650   31.8670   -0.1820 C.3    82  MET82       0.0595
     38  SD        34.9440   33.5980   -0.1410 S.3    82  MET82      -0.1393
     39  CE        35.1580   33.9730    1.6010 C.3    82  MET82       0.0692
     40  N         39.6140   34.3750   -4.1830 N.3    85  TRP85      -0.1227
     41  CA        39.1070   35.7010   -3.8840 C.3    85  TRP85       0.1737
     42  C         39.6500   36.1930   -2.5430 C.2    85  TRP85       0.2595
     43  O         40.1690   37.3100   -2.4430 O.2    85  TRP85      -0.2718
     44  CB        37.5780   35.6940   -3.8740 C.3    85  TRP85       0.0564
     45  CG        36.9910   37.0250   -3.5470 C.ar   85  TRP85       0.0003
     46  CD1       36.6340   38.0060   -4.4290 C.ar   85  TRP85       0.0946
     47  CD2       36.6960   37.5310   -2.2390 C.ar   85  TRP85       0.0152
     48  NE1       36.1310   39.0910   -3.7470 N.ar   85  TRP85      -0.2442
     49  CE2       36.1550   38.8220   -2.4030 C.ar   85  TRP85       0.0810
     50  CE3       36.8160   37.0090   -0.9470 C.ar   85  TRP85       0.0012
     51  CZ2       35.7500   39.6050   -1.3210 C.ar   85  TRP85       0.0191
     52  CZ3       36.4140   37.7890    0.1270 C.ar   85  TRP85       0.0001
     53  CH2       35.8850   39.0720   -0.0700 C.ar   85  TRP85       0.0015
     54  N         39.5310   35.3570   -1.5170 N.am   86  LEU86      -0.1980
     55  CA        39.9680   35.7440   -0.1790 C.3    86  LEU86       0.1596
     56  C         41.4860   35.9770   -0.1120 C.2    86  LEU86       0.2287
     57  O         41.9390   36.9230    0.5240 O.2    86  LEU86      -0.2864
     58  CB        39.5050   34.7290    0.8670 C.3    86  LEU86       0.0297
     59  CG        39.7970   35.0990    2.3230 C.3    86  LEU86       0.0022
     60  CD1       39.1940   36.4580    2.6870 C.3    86  LEU86       0.0001
     61  CD2       39.2850   34.0070    3.2520 C.3    86  LEU86       0.0001
     62  N         42.1720   39.3950   -1.7900 N.3    89  VAL89      -0.1231
     63  CA        41.7870   40.5630   -1.0160 C.3    89  VAL89       0.1692
     64  C         42.7470   40.7840    0.1610 C.2    89  VAL89       0.2591
     65  O         43.2650   41.8880    0.3600 O.2    89  VAL89      -0.2718
     66  CB        40.3330   40.4180   -0.5140 C.3    89  VAL89       0.0266
     67  CG1       40.0010   41.4750    0.5310 C.3    89  VAL89       0.0020
     68  CG2       39.3580   40.4910   -1.7050 C.3    89  VAL89       0.0020
     69  N         42.9850   39.7310    0.9310 N.am   90  LEU90      -0.1980
     70  CA        43.9210   39.8100    2.0550 C.3    90  LEU90       0.1596
     71  C         45.3180   40.2370    1.5920 C.2    90  LEU90       0.2287
     72  O         45.9470   41.1160    2.1860 O.2    90  LEU90      -0.2864
     73  CB        43.9910   38.4650    2.7730 C.3    90  LEU90       0.0297
     74  CG        42.6610   37.9800    3.3500 C.3    90  LEU90       0.0022
     75  CD1       42.8060   36.5840    3.9360 C.3    90  LEU90       0.0001
     76  CD2       42.1520   38.9610    4.3960 C.3    90  LEU90       0.0001
     77  N         31.3560   45.3560    9.2690 N.3   129  GLN129     -0.1245
     78  CA        32.2220   44.3910    9.9300 C.3   129  GLN129      0.1566
     79  C         33.6510   44.6200    9.4500 C.2   129  GLN129      0.2260
     80  O         34.0260   44.1980    8.3590 O.2   129  GLN129     -0.2867
     81  CB        31.7630   42.9590    9.6200 C.3   129  GLN129      0.0367
     82  CG        32.3250   41.9090   10.5760 C.3   129  GLN129      0.0905
     83  CD        31.9200   40.4920   10.2060 C.2   129  GLN129      0.2608
     84  OE1       31.6180   40.1960    9.0420 O.2   129  GLN129     -0.2717
     85  NE2       31.9210   39.6020   11.1970 N.am  129  GLN129     -0.0878
     86  N         37.5440   43.8260    9.8020 N.3   131  LEU131     -0.1245
     87  CA        38.4540   42.8450   10.4090 C.3   131  LEU131      0.1561
     88  C         39.9410   43.1190   10.1930 C.2   131  LEU131      0.2260
     89  O         40.7870   42.3770   10.7020 O.2   131  LEU131     -0.2867
     90  CB        38.1290   41.4250    9.9410 C.3   131  LEU131      0.0270
     91  CG        38.1120   41.1490    8.4360 C.3   131  LEU131      0.0019
     92  CD1       39.4630   41.4480    7.7900 C.3   131  LEU131      0.0001
     93  CD2       37.7200   39.7020    8.2010 C.3   131  LEU131      0.0001
     94  N         40.5670   37.8190   12.8940 N.3   163  MET163     -0.1245
     95  CA        40.8700   36.4520   12.5100 C.3   163  MET163      0.1570
     96  C         41.8760   35.8660   13.4950 C.2   163  MET163      0.2261
     97  O         43.0770   35.9360   13.2590 O.2   163  MET163     -0.2867
     98  CB        41.4090   36.4040   11.0870 C.3   163  MET163      0.0387
     99  CG        40.3660   36.7690   10.0380 C.3   163  MET163      0.0595
    100  SD        41.0570   36.6800    8.3910 S.3   163  MET163     -0.1393
    101  CE        40.8640   34.9440    8.0190 C.3   163  MET163      0.0692
    102  N         35.0850   36.8730   12.5340 N.3   211  CYS211     -0.1235
    103  CA        34.9420   36.5980   11.1160 C.3   211  CYS211      0.1677
    104  C         34.1320   35.3300   10.8480 C.2   211  CYS211      0.2270
    105  O         33.3510   35.2780    9.8980 O.2   211  CYS211     -0.2867
    106  CB        36.2980   36.5150   10.4300 C.3   211  CYS211      0.0956
    107  SG        36.1340   36.3880    8.6350 S.3   211  CYS211     -0.0801
    108  N         37.6510   30.8180   11.2920 N.3   215  TYR215     -0.1241
    109  CA        38.6560   31.8780   11.3080 C.3   215  TYR215      0.1605
    110  C         39.0200   32.3910   12.6980 C.2   215  TYR215      0.2264
    111  O         39.9820   33.1440   12.8560 O.2   215  TYR215     -0.2867
    112  CB        38.1870   33.0480   10.4520 C.3   215  TYR215      0.0534
    113  CG        37.6840   32.6370    9.0940 C.ar  215  TYR215     -0.0201
    114  CD1       38.5690   32.2960    8.0830 C.ar  215  TYR215     -0.0009
    115  CD2       36.3210   32.5910    8.8180 C.ar  215  TYR215     -0.0009
    116  CE1       38.1130   31.9180    6.8260 C.ar  215  TYR215      0.0417
    117  CE2       35.8510   32.2150    7.5560 C.ar  215  TYR215      0.0417
    118  CZ        36.7550   31.8790    6.5680 C.ar  215  TYR215      0.1957
    119  OH        36.3130   31.5010    5.3170 O.3   215  TYR215     -0.2866
    120  N         29.7950   35.4060   10.2560 N.3   238  HIS238     -0.1241
    121  CA        29.4400   34.7300    9.0040 C.3   238  HIS238      0.1621
    122  C         28.9180   33.3330    9.3080 C.2   238  HIS238      0.2264
    123  O         29.3100   32.7230   10.3000 O.2   238  HIS238     -0.2867
    124  CB        30.6360   34.6360    8.0630 C.3   238  HIS238      0.0745
    125  CG        31.0590   35.9500    7.4940 C.ar  238  HIS238      0.0817
    126  ND1       32.0090   36.7490    8.0910 N.ar  238  HIS238     -0.2268
    127  CD2       30.6520   36.6120    6.3860 C.ar  238  HIS238      0.1154
    128  CE1       32.1720   37.8450    7.3710 C.ar  238  HIS238      0.1986
    129  NE2       31.3670   37.7810    6.3290 N.ar  238  HIS238     -0.2212
    130  N         28.5800   29.6050    4.9350 N.3   241  GLN241     -0.1245
    131  CA        29.0740   29.7370    3.5780 C.3   241  GLN241      0.1566
    132  C         29.4630   28.3140    3.1850 C.2   241  GLN241      0.2260
    133  O         29.7290   27.4830    4.0620 O.2   241  GLN241     -0.2867
    134  CB        30.2770   30.6770    3.5290 C.3   241  GLN241      0.0367
    135  CG        30.0440   32.0150    4.2130 C.3   241  GLN241      0.0905
    136  CD        31.0990   33.0450    3.8460 C.2   241  GLN241      0.2608
    137  OE1       30.8070   34.2400    3.7130 O.2   241  GLN241     -0.2717
    138  NE2       32.3290   32.5840    3.6490 N.am  241  GLN241     -0.0878
    139  N         24.6680   35.6530    5.5670 N.3   274  HIS274     -0.1241
    140  CA        24.6030   34.6660    4.4820 C.3   274  HIS274      0.1621
    141  C         23.6600   33.4970    4.7710 C.2   274  HIS274      0.2264
    142  O         22.5320   33.4290    4.2330 O.2   274  HIS274     -0.2867
    143  CB        25.9930   34.1290    4.0940 C.3   274  HIS274      0.0745
    144  CG        26.9400   35.1730    3.5790 C.ar  274  HIS274      0.0817
    145  ND1       26.8490   35.7130    2.3110 N.ar  274  HIS274     -0.2268
    146  CD2       28.0270   35.7440    4.1540 C.ar  274  HIS274      0.1154
    147  CE1       27.8220   36.5940    2.1420 C.ar  274  HIS274      0.1986
    148  NE2       28.5540   36.6260    3.2430 N.ar  274  HIS274     -0.2212
    149  N         26.5930   38.6710   -3.0490 N.3   299  PRO299     -0.2116
    150  CA        27.7930   37.8580   -2.8170 C.3   299  PRO299      0.1372
    151  C         27.5410   36.3810   -3.1010 C.2   299  PRO299      0.2244
    152  O         28.3950   35.7080   -3.6820 O.2   299  PRO299     -0.2868
    153  CB        28.0450   38.0000   -1.3080 C.3   299  PRO299      0.0268
    154  CG        27.1720   39.0820   -0.8370 C.3   299  PRO299      0.0207
    155  CD        26.1070   39.3330   -1.8280 C.3   299  PRO299      0.0892
    156  N         29.8690   34.5200   -5.8620 N.3   303  MET303     -0.1245
    157  CA        30.8300   33.4890   -5.4820 C.3   303  MET303      0.1570
    158  C         30.4760   32.1180   -6.0390 C.2   303  MET303      0.2261
    159  O         31.2310   31.1630   -5.8550 O.2   303  MET303     -0.2867
    160  CB        30.9180   33.3990   -3.9570 C.3   303  MET303      0.0387
    161  CG        31.5290   34.6230   -3.3220 C.3   303  MET303      0.0595
    162  SD        33.1640   34.8700   -4.0100 S.3   303  MET303     -0.1393
    163  CE        33.6810   36.2960   -3.0600 C.3   303  MET303      0.0692
    164  N         27.6960   30.4930   -5.1310 N.3   305  TRP305     -0.1241
    165  CA        27.1280   29.7300   -4.0180 C.3   305  TRP305      0.1605
    166  C         25.6610   29.3520   -4.1860 C.2   305  TRP305      0.2264
    167  O         25.2460   28.2640   -3.7900 O.2   305  TRP305     -0.2867
    168  CB        27.2880   30.4960   -2.7140 C.3   305  TRP305      0.0550
    169  CG        28.7100   30.6380   -2.2700 C.ar  305  TRP305      0.0003
    170  CD1       29.7930   29.9530   -2.7440 C.ar  305  TRP305      0.0946
    171  CD2       29.1990   31.5170   -1.2610 C.ar  305  TRP305      0.0152
    172  NE1       30.9330   30.3510   -2.0820 N.ar  305  TRP305     -0.2442
    173  CE2       30.5940   31.3070   -1.1620 C.ar  305  TRP305      0.0810
    174  CE3       28.5950   32.4490   -0.4120 C.ar  305  TRP305      0.0012
    175  CZ2       31.3890   32.0080   -0.2660 C.ar  305  TRP305      0.0191
    176  CZ3       29.3860   33.1440    0.4780 C.ar  305  TRP305      0.0001
    177  CH2       30.7700   32.9160    0.5490 C.ar  305  TRP305      0.0015
    178  N         26.9560   42.9900    1.6950 N.3   325  THR325     -0.1218
    179  CA        28.3750   42.6740    1.9450 C.3   325  THR325      0.1862
    180  C         29.2700   43.7680    1.3710 C.2   325  THR325      0.2287
    181  O         28.7800   44.7710    0.8480 O.2   325  THR325     -0.2866
    182  CB        28.8330   41.2800    1.4170 C.3   325  THR325      0.1770
    183  OG1       29.9570   40.8310    2.1750 O.3   325  THR325     -0.2211
    184  CG2       29.2560   41.3540   -0.0500 C.3   325  THR325      0.0375
    185  N         33.0110   42.2110   -3.2080 N.3   329  SER329     -0.1217
    186  CA        32.2100   41.0500   -3.5680 C.3   329  SER329      0.1889
    187  C         30.7640   41.4600   -3.8210 C.2   329  SER329      0.2288
    188  O         29.8500   40.8610   -3.2660 O.2   329  SER329     -0.2866
    189  CB        32.2410   40.0160   -2.4370 C.3   329  SER329      0.2089
    190  OG        31.5770   38.8270   -2.8260 O.3   329  SER329     -0.2183
@<TRIPOS>BOND
     1   158   159    2
     2   158   157    1
     3   156   157    1
     4   157   160    1
     5   164   165    1
     6    46    48   ar
     7    46    45   ar
     8   166   165    1
     9   166   167    2
    10    40    41    1
    11   165   168    1
    12   162   161    1
    13   162   163    1
    14    32    33    1
    15   160   161    1
    16    41    44    1
    17    41    42    1
    18    44    45    1
    19   187   186    1
    20   187   188    2
    21    48    49   ar
    22   152   151    2
    23   186   185    1
    24   186   189    1
    25    45    47   ar
    26   151   150    1
    27   149   150    1
    28   149   155    1
    29   190   189    1
    30   150   153    1
    31   170   169   ar
    32   170   172   ar
    33   168   169    1
    34    33    34    1
    35    33    36    1
    36    42    43    2
    37    42    54   am
    38    49    47   ar
    39    49    51   ar
    40   169   171   ar
    41    34    35    2
    42    47    50   ar
    43   172   173   ar
    44    26    25    2
    45   155   154    1
    46    62    63    1
    47    68    66    1
    48    36    37    1
    49    54    55    1
    50    51    53   ar
    51   153   154    1
    52   171   173   ar
    53   171   174   ar
    54   173   175   ar
    55    63    66    1
    56    63    64    1
    57    50    52   ar
    58    25    24    1
    59    66    67    1
    60   174   176   ar
    61   175   177   ar
    62    37    38    1
    63    55    56    1
    64    55    58    1
    65    38    39    1
    66    56    57    2
    67    53    52   ar
    68   184   182    1
    69    64    65    2
    70    64    69   am
    71    30    29   ar
    72    27    24    1
    73    27    28    1
    74    24    23    1
    75   176   177   ar
    76   181   180    2
    77    58    59    1
    78    69    70    1
    79    29    28    1
    80    29    31   ar
    81    14    13    2
    82   180   179    1
    83   182   179    1
    84   182   183    1
    85    71    70    1
    86    71    72    2
    87   178   179    1
    88    23    13   am
    89    13    12    1
    90    70    73    1
    91   147   145   ar
    92   147   148   ar
    93   145   144   ar
    94    59    60    1
    95    59    61    1
    96    73    74    1
    97     4     3    2
    98   132   131    1
    99   132   133    2
   100   148   146   ar
   101    74    75    1
   102    74    76    1
   103    12    11    1
   104    12    15    1
   105   134   131    1
   106   134   135    1
   107   131   130    1
   108   144   143    1
   109   144   146   ar
   110   138   136   am
   111   137   136    2
   112   136   135    1
   113    19    17   ar
   114    19    21   ar
   115    17    16   ar
   116   143   140    1
   117     3     2    1
   118     8     6   ar
   119     8    10   ar
   120    22    21    1
   121   142   141    2
   122    21    20   ar
   123    16    15    1
   124    16    18   ar
   125     5     2    1
   126     5     6    1
   127   140   141    1
   128   140   139    1
   129     1     2    1
   130    20    18   ar
   131     6     7   ar
   132    10     9   ar
   133   119   118    1
   134     7     9   ar
   135   129   127   ar
   136   129   128   ar
   137   127   125   ar
   138   118   116   ar
   139   118   117   ar
   140   116   114   ar
   141   128   126   ar
   142   125   124    1
   143   125   126   ar
   144   117   115   ar
   145    92    91    1
   146   101   100    1
   147   124   121    1
   148   114   113   ar
   149    93    91    1
   150    80    79    2
   151   100    99    1
   152    91    90    1
   153   107   106    1
   154   115   113   ar
   155   121   122    1
   156   121   120    1
   157    84    83    2
   158   113   112    1
   159    77    78    1
   160   122   123    2
   161    79    78    1
   162    81    78    1
   163    81    82    1
   164    86    87    1
   165   105   104    2
   166    90    87    1
   167    99    98    1
   168    88    87    1
   169    88    89    2
   170    83    82    1
   171    83    85   am
   172   106   103    1
   173   112   109    1
   174   104   103    1
   175    98    95    1
   176   103   102    1
   177   108   109    1
   178   109   110    1
   179    95    94    1
   180    95    96    1
   181   110   111    2
   182    97    96    2
