@<TRIPOS>MOLECULE
tmp/3lscA00.pdb
 190 182 0 0 0
SMALL
GASTEIGER

@<TRIPOS>ATOM
      1  N         31.6730   45.5900    4.5100 N.3    65  HIS65      -0.1241
      2  CA        33.1130   45.6540    4.7750 C.3    65  HIS65       0.1621
      3  C         33.5910   46.9030    4.0430 C.2    65  HIS65       0.2264
      4  O         34.0040   46.8460    2.8680 O.2    65  HIS65      -0.2867
      5  CB        33.8480   44.4260    4.2410 C.3    65  HIS65       0.0745
      6  CG        33.3440   43.1290    4.7910 C.ar   65  HIS65       0.0817
      7  ND1       33.2700   42.8760    6.1440 N.ar   65  HIS65      -0.2268
      8  CD2       32.9050   42.0090    4.1740 C.ar   65  HIS65       0.1154
      9  CE1       32.7960   41.6580    6.3360 C.ar   65  HIS65       0.1986
     10  NE2       32.5680   41.1100    5.1550 N.ar   65  HIS65      -0.2212
     11  N         36.0990   48.9360    4.0390 N.3    67  TYR67      -0.1227
     12  CA        37.4460   49.1350    3.4940 C.3    67  TYR67       0.1736
     13  C         37.6220   48.5290    2.0950 C.2    67  TYR67       0.2595
     14  O         38.5160   48.9280    1.3470 O.2    67  TYR67      -0.2718
     15  CB        38.5350   48.6650    4.4700 C.3    67  TYR67       0.0548
     16  CG        38.8730   47.1950    4.4040 C.ar   67  TYR67      -0.0200
     17  CD1       40.1780   46.7780    4.1760 C.ar   67  TYR67      -0.0009
     18  CD2       37.9020   46.2240    4.5880 C.ar   67  TYR67      -0.0009
     19  CE1       40.5040   45.4370    4.1200 C.ar   67  TYR67       0.0417
     20  CE2       38.2170   44.8710    4.5310 C.ar   67  TYR67       0.0417
     21  CZ        39.5240   44.4880    4.2980 C.ar   67  TYR67       0.1957
     22  OH        39.8670   43.1550    4.2450 O.3    67  TYR67      -0.2866
     23  N         36.7460   47.5970    1.7320 N.am   68  GLU68      -0.1979
     24  CA        36.7610   47.0000    0.3900 C.3    68  GLU68       0.1602
     25  C         36.3290   47.9440   -0.7460 C.2    68  GLU68       0.2287
     26  O         36.4290   47.5900   -1.9180 O.2    68  GLU68      -0.2864
     27  CB        35.9270   45.7160    0.3540 C.3    68  GLU68       0.0415
     28  CG        36.4470   44.6150    1.2730 C.3    68  GLU68       0.1163
     29  CD        35.6250   43.3540    1.2110 C.2    68  GLU68       0.3649
     30  OE1       34.6640   43.2920    0.4080 O.co2  68  GLU68      -0.2457
     31  OE2       35.9460   42.4160    1.9740 O.co2  68  GLU68      -0.2457
     32  N         36.1520   31.3330   -3.8440 N.3    82  MET82      -0.1245
     33  CA        36.4150   31.9480   -2.5410 C.3    82  MET82       0.1570
     34  C         37.8860   31.9510   -2.1160 C.2    82  MET82       0.2261
     35  O         38.3960   32.9670   -1.6440 O.2    82  MET82      -0.2867
     36  CB        35.5730   31.2830   -1.4520 C.3    82  MET82       0.0387
     37  CG        35.8200   31.8750   -0.0720 C.3    82  MET82       0.0595
     38  SD        35.4640   33.6430   -0.0980 S.3    82  MET82      -0.1393
     39  CE        35.5270   34.0100    1.6560 C.3    82  MET82       0.0692
     40  N         39.9160   34.3880   -3.9970 N.3    85  TRP85      -0.1227
     41  CA        39.4260   35.7160   -3.6730 C.3    85  TRP85       0.1737
     42  C         39.9670   36.2100   -2.3430 C.2    85  TRP85       0.2595
     43  O         40.4820   37.3270   -2.2520 O.2    85  TRP85      -0.2718
     44  CB        37.8990   35.7090   -3.6350 C.3    85  TRP85       0.0564
     45  CG        37.2990   37.0480   -3.3460 C.ar   85  TRP85       0.0003
     46  CD1       36.9200   37.9920   -4.2580 C.ar   85  TRP85       0.0946
     47  CD2       37.0000   37.5880   -2.0550 C.ar   85  TRP85       0.0152
     48  NE1       36.4070   39.0920   -3.6120 N.ar   85  TRP85      -0.2442
     49  CE2       36.4490   38.8700   -2.2570 C.ar   85  TRP85       0.0810
     50  CE3       37.1500   37.1110   -0.7430 C.ar   85  TRP85       0.0012
     51  CZ2       36.0340   39.6800   -1.2010 C.ar   85  TRP85       0.0191
     52  CZ3       36.7480   37.9160    0.3060 C.ar   85  TRP85       0.0001
     53  CH2       36.1970   39.1920    0.0720 C.ar   85  TRP85       0.0015
     54  N         39.8510   35.3690   -1.3180 N.am   86  LEU86      -0.1980
     55  CA        40.2470   35.7500    0.0330 C.3    86  LEU86       0.1596
     56  C         41.7500   36.0110    0.0850 C.2    86  LEU86       0.2287
     57  O         42.2010   36.9970    0.6750 O.2    86  LEU86      -0.2864
     58  CB        39.8290   34.6740    1.0420 C.3    86  LEU86       0.0297
     59  CG        39.9750   35.0250    2.5250 C.3    86  LEU86       0.0022
     60  CD1       39.2090   36.2900    2.8740 C.3    86  LEU86       0.0001
     61  CD2       39.5200   33.8540    3.3940 C.3    86  LEU86       0.0001
     62  N         42.4140   39.4080   -1.6000 N.3    89  VAL89      -0.1231
     63  CA        42.0130   40.5630   -0.8140 C.3    89  VAL89       0.1692
     64  C         42.9830   40.8010    0.3480 C.2    89  VAL89       0.2591
     65  O         43.3930   41.9380    0.6060 O.2    89  VAL89      -0.2718
     66  CB        40.5770   40.3980   -0.2750 C.3    89  VAL89       0.0266
     67  CG1       40.2650   41.4660    0.7600 C.3    89  VAL89       0.0020
     68  CG2       39.5780   40.4550   -1.4250 C.3    89  VAL89       0.0020
     69  N         43.3490   39.7200    1.0340 N.am   90  LEU90      -0.1980
     70  CA        44.2470   39.8100    2.1870 C.3    90  LEU90       0.1596
     71  C         45.6480   40.2240    1.7600 C.2    90  LEU90       0.2287
     72  O         46.2930   41.0470    2.4160 O.2    90  LEU90      -0.2864
     73  CB        44.2860   38.4820    2.9500 C.3    90  LEU90       0.0297
     74  CG        42.9710   38.0820    3.6220 C.3    90  LEU90       0.0022
     75  CD1       43.0870   36.7120    4.2750 C.3    90  LEU90       0.0001
     76  CD2       42.5400   39.1370    4.6350 C.3    90  LEU90       0.0001
     77  N         31.7310   45.4380    9.3310 N.3   129  GLN129     -0.1245
     78  CA        32.5570   44.4490   10.0110 C.3   129  GLN129      0.1566
     79  C         33.9880   44.5830    9.4980 C.2   129  GLN129      0.2260
     80  O         34.3220   44.1290    8.3930 O.2   129  GLN129     -0.2867
     81  CB        32.0100   43.0360    9.7800 C.3   129  GLN129      0.0367
     82  CG        32.7320   41.9500   10.5810 C.3   129  GLN129      0.0905
     83  CD        32.2660   40.5550   10.2120 C.2   129  GLN129      0.2608
     84  OE1       31.9290   40.2830    9.0570 O.2   129  GLN129     -0.2717
     85  NE2       32.2500   39.6570   11.1950 N.am  129  GLN129     -0.0878
     86  N         37.9140   43.7550    9.9560 N.3   131  LEU131     -0.1245
     87  CA        38.8620   42.8230   10.5750 C.3   131  LEU131      0.1561
     88  C         40.3370   43.1710   10.3500 C.2   131  LEU131      0.2260
     89  O         41.2210   42.5250   10.9170 O.2   131  LEU131     -0.2867
     90  CB        38.5960   41.3890   10.1020 C.3   131  LEU131      0.0270
     91  CG        38.7420   41.0920    8.6050 C.3   131  LEU131      0.0019
     92  CD1       40.1990   41.2060    8.1580 C.3   131  LEU131      0.0001
     93  CD2       38.2140   39.7020    8.2960 C.3   131  LEU131      0.0001
     94  N         40.8770   37.9320   12.7240 N.3   163  MET163     -0.1245
     95  CA        41.2200   36.5610   12.3760 C.3   163  MET163      0.1570
     96  C         42.1910   36.0980   13.4470 C.2   163  MET163      0.2261
     97  O         43.3620   36.4680   13.4280 O.2   163  MET163     -0.2867
     98  CB        41.8540   36.4730   10.9860 C.3   163  MET163      0.0387
     99  CG        40.9960   37.0560    9.8690 C.3   163  MET163      0.0595
    100  SD        41.3910   36.3480    8.2500 S.3   163  MET163     -0.1393
    101  CE        40.9470   34.6520    8.5450 C.3   163  MET163      0.0692
    102  N         35.3860   36.9620   12.4760 N.3   211  CYS211     -0.1235
    103  CA        35.2190   36.6680   11.0610 C.3   211  CYS211      0.1677
    104  C         34.4500   35.3620   10.8700 C.2   211  CYS211      0.2270
    105  O         33.5590   35.2670   10.0310 O.2   211  CYS211     -0.2867
    106  CB        36.5670   36.6230   10.3580 C.3   211  CYS211      0.0956
    107  SG        36.3630   36.6090    8.5700 S.3   211  CYS211     -0.0801
    108  N         38.0000   30.9590   11.1570 N.3   215  TYR215     -0.1241
    109  CA        38.9600   32.0540   11.2070 C.3   215  TYR215      0.1605
    110  C         39.3230   32.5270   12.6020 C.2   215  TYR215      0.2264
    111  O         40.2400   33.3290   12.7580 O.2   215  TYR215     -0.2867
    112  CB        38.4270   33.2470   10.4210 C.3   215  TYR215      0.0534
    113  CG        37.9500   32.8860    9.0470 C.ar  215  TYR215     -0.0201
    114  CD1       38.8540   32.6040    8.0340 C.ar  215  TYR215     -0.0009
    115  CD2       36.5980   32.8080    8.7620 C.ar  215  TYR215     -0.0009
    116  CE1       38.4260   32.2700    6.7660 C.ar  215  TYR215      0.0417
    117  CE2       36.1560   32.4700    7.4980 C.ar  215  TYR215      0.0417
    118  CZ        37.0780   32.1980    6.5040 C.ar  215  TYR215      0.1957
    119  OH        36.6530   31.8600    5.2390 O.3   215  TYR215     -0.2866
    120  N         30.1180   35.4760   10.1850 N.3   238  HIS238     -0.1241
    121  CA        29.7360   34.7770    8.9550 C.3   238  HIS238      0.1621
    122  C         29.2070   33.3800    9.2890 C.2   238  HIS238      0.2264
    123  O         29.5720   32.7990   10.3130 O.2   238  HIS238     -0.2867
    124  CB        30.9200   34.6770    7.9990 C.3   238  HIS238      0.0745
    125  CG        31.3800   35.9960    7.4670 C.ar  238  HIS238      0.0817
    126  ND1       32.4910   36.6500    7.9550 N.ar  238  HIS238     -0.2268
    127  CD2       30.8740   36.7870    6.4920 C.ar  238  HIS238      0.1154
    128  CE1       32.6560   37.7830    7.2950 C.ar  238  HIS238      0.1986
    129  NE2       31.6860   37.8900    6.4070 N.ar  238  HIS238     -0.2212
    130  N         28.9430   29.6650    4.8880 N.3   241  GLN241     -0.1245
    131  CA        29.4850   29.7960    3.5520 C.3   241  GLN241      0.1566
    132  C         29.8870   28.3830    3.1380 C.2   241  GLN241      0.2260
    133  O         30.2830   27.5790    3.9850 O.2   241  GLN241     -0.2867
    134  CB        30.6850   30.7400    3.5480 C.3   241  GLN241      0.0367
    135  CG        30.3500   32.1520    4.0570 C.3   241  GLN241      0.0905
    136  CD        31.4660   33.1590    3.8090 C.2   241  GLN241      0.2608
    137  OE1       31.2210   34.3650    3.6540 O.2   241  GLN241     -0.2717
    138  NE2       32.6970   32.6690    3.7580 N.am  241  GLN241     -0.0878
    139  N         25.0000   35.6520    5.5430 N.3   274  HIS274     -0.1241
    140  CA        24.9100   34.6480    4.4630 C.3   274  HIS274      0.1621
    141  C         23.9700   33.4780    4.7580 C.2   274  HIS274      0.2264
    142  O         22.8820   33.3890    4.1860 O.2   274  HIS274     -0.2867
    143  CB        26.2840   34.1060    4.0390 C.3   274  HIS274      0.0745
    144  CG        27.2350   35.1540    3.5470 C.ar  274  HIS274      0.0817
    145  ND1       27.2060   35.6450    2.2570 N.ar  274  HIS274     -0.2268
    146  CD2       28.2450   35.8060    4.1770 C.ar  274  HIS274      0.1154
    147  CE1       28.1680   36.5430    2.1130 C.ar  274  HIS274      0.1986
    148  NE2       28.8000   36.6710    3.2660 N.ar  274  HIS274     -0.2212
    149  N         26.9540   38.7240   -3.0650 N.3   299  PRO299     -0.2116
    150  CA        28.1550   37.8870   -2.9100 C.3   299  PRO299      0.1372
    151  C         27.8680   36.3800   -3.0740 C.2   299  PRO299      0.2244
    152  O         28.7150   35.6500   -3.6100 O.2   299  PRO299     -0.2868
    153  CB        28.6240   38.1910   -1.4790 C.3   299  PRO299      0.0268
    154  CG        27.4350   38.7530   -0.7730 C.3   299  PRO299      0.0207
    155  CD        26.6350   39.4820   -1.8440 C.3   299  PRO299      0.0892
    156  N         30.1500   34.5100   -5.8460 N.3   303  MET303     -0.1245
    157  CA        31.1060   33.4620   -5.4920 C.3   303  MET303      0.1570
    158  C         30.7030   32.1040   -6.0380 C.2   303  MET303      0.2261
    159  O         31.4380   31.1250   -5.8710 O.2   303  MET303     -0.2867
    160  CB        31.2850   33.3790   -3.9720 C.3   303  MET303      0.0387
    161  CG        31.8290   34.6370   -3.3720 C.3   303  MET303      0.0595
    162  SD        33.5280   34.8670   -3.9160 S.3   303  MET303     -0.1393
    163  CE        33.4210   36.5520   -4.4660 C.3   303  MET303      0.0692
    164  N         28.0230   30.4960   -5.0200 N.3   305  TRP305     -0.1241
    165  CA        27.5030   29.7330   -3.8870 C.3   305  TRP305      0.1605
    166  C         26.0540   29.3250   -4.0740 C.2   305  TRP305      0.2264
    167  O         25.6530   28.2360   -3.6850 O.2   305  TRP305     -0.2867
    168  CB        27.6420   30.5380   -2.5980 C.3   305  TRP305      0.0550
    169  CG        29.0560   30.7300   -2.1860 C.ar  305  TRP305      0.0003
    170  CD1       30.1420   30.0480   -2.6540 C.ar  305  TRP305      0.0946
    171  CD2       29.5500   31.6540   -1.2130 C.ar  305  TRP305      0.0152
    172  NE1       31.2840   30.4880   -2.0290 N.ar  305  TRP305     -0.2442
    173  CE2       30.9480   31.4750   -1.1400 C.ar  305  TRP305      0.0810
    174  CE3       28.9470   32.6130   -0.3900 C.ar  305  TRP305      0.0012
    175  CZ2       31.7520   32.2200   -0.2800 C.ar  305  TRP305      0.0191
    176  CZ3       29.7450   33.3480    0.4630 C.ar  305  TRP305      0.0001
    177  CH2       31.1350   33.1470    0.5120 C.ar  305  TRP305      0.0015
    178  N         27.2870   43.0160    1.7280 N.3   325  THR325     -0.1218
    179  CA        28.7060   42.7300    1.9610 C.3   325  THR325      0.1862
    180  C         29.6040   43.8380    1.4080 C.2   325  THR325      0.2287
    181  O         29.1090   44.8470    0.8960 O.2   325  THR325     -0.2866
    182  CB        29.1710   41.3040    1.5030 C.3   325  THR325      0.1770
    183  OG1       30.2900   40.9210    2.3050 O.3   325  THR325     -0.2211
    184  CG2       29.6060   41.2690    0.0370 C.3   325  THR325      0.0375
    185  N         33.3610   42.0660   -3.1380 N.3   329  SER329     -0.1217
    186  CA        32.5330   40.9190   -3.5180 C.3   329  SER329      0.1889
    187  C         31.1050   41.3750   -3.7480 C.2   329  SER329      0.2288
    188  O         30.1640   40.7920   -3.2140 O.2   329  SER329     -0.2866
    189  CB        32.5480   39.8390   -2.4300 C.3   329  SER329      0.2089
    190  OG        31.7750   38.7230   -2.8500 O.3   329  SER329     -0.2183
@<TRIPOS>BOND
     1   158   159    2
     2   158   157    1
     3   156   157    1
     4   157   160    1
     5   164   165    1
     6   163   162    1
     7    46    48   ar
     8    46    45   ar
     9   166   165    1
    10   166   167    2
    11    40    41    1
    12   160   161    1
    13   162   161    1
    14   165   168    1
    15    32    33    1
    16   187   186    1
    17   187   188    2
    18    41    44    1
    19    41    42    1
    20    44    45    1
    21    48    49   ar
    22   152   151    2
    23   186   185    1
    24   186   189    1
    25    45    47   ar
    26   151   150    1
    27   149   150    1
    28   149   155    1
    29   150   153    1
    30   190   189    1
    31   170   169   ar
    32   170   172   ar
    33   168   169    1
    34    33    34    1
    35    33    36    1
    36    42    43    2
    37    42    54   am
    38    49    47   ar
    39    49    51   ar
    40   169   171   ar
    41    34    35    2
    42    47    50   ar
    43   172   173   ar
    44    26    25    2
    45   155   154    1
    46    62    63    1
    47   153   154    1
    48    36    37    1
    49    68    66    1
    50    54    55    1
    51   171   173   ar
    52   171   174   ar
    53    51    53   ar
    54   173   175   ar
    55    63    66    1
    56    63    64    1
    57    25    24    1
    58    50    52   ar
    59   174   176   ar
    60   175   177   ar
    61    66    67    1
    62    38    37    1
    63    38    39    1
    64    55    56    1
    65    55    58    1
    66   184   182    1
    67    53    52   ar
    68    56    57    2
    69    64    65    2
    70    64    69   am
    71    27    24    1
    72    27    28    1
    73    24    23    1
    74    30    29   ar
    75   176   177   ar
    76   181   180    2
    77    69    70    1
    78    58    59    1
    79    29    28    1
    80    29    31   ar
    81    14    13    2
    82   180   179    1
    83   182   179    1
    84   182   183    1
    85   178   179    1
    86    23    13   am
    87    71    70    1
    88    71    72    2
    89    13    12    1
    90   147   145   ar
    91   147   148   ar
    92    70    73    1
    93   145   144   ar
    94    59    60    1
    95    59    61    1
    96     4     3    2
    97    73    74    1
    98   132   131    1
    99   132   133    2
   100   148   146   ar
   101    12    11    1
   102    12    15    1
   103   144   143    1
   104   144   146   ar
   105   134   131    1
   106   134   135    1
   107   131   130    1
   108    74    75    1
   109    74    76    1
   110   137   136    2
   111   138   136   am
   112   136   135    1
   113   143   140    1
   114     3     2    1
   115    19    17   ar
   116    19    21   ar
   117     8     6   ar
   118     8    10   ar
   119    17    16   ar
   120   142   141    2
   121     5     2    1
   122     5     6    1
   123    22    21    1
   124    21    20   ar
   125    16    15    1
   126    16    18   ar
   127   140   141    1
   128   140   139    1
   129     1     2    1
   130    20    18   ar
   131     6     7   ar
   132    10     9   ar
   133   119   118    1
   134     7     9   ar
   135   129   127   ar
   136   129   128   ar
   137   127   125   ar
   138   118   116   ar
   139   118   117   ar
   140   116   114   ar
   141   128   126   ar
   142   125   126   ar
   143   125   124    1
   144   117   115   ar
   145   124   121    1
   146   114   113   ar
   147    92    91    1
   148   100   101    1
   149   100    99    1
   150    93    91    1
   151    80    79    2
   152   107   106    1
   153    91    90    1
   154   115   113   ar
   155   121   122    1
   156   121   120    1
   157   113   112    1
   158    84    83    2
   159   122   123    2
   160    77    78    1
   161    79    78    1
   162    81    78    1
   163    81    82    1
   164    99    98    1
   165    86    87    1
   166   105   104    2
   167    90    87    1
   168    83    82    1
   169    83    85   am
   170    88    87    1
   171    88    89    2
   172   106   103    1
   173   112   109    1
   174   104   103    1
   175    98    95    1
   176   103   102    1
   177   108   109    1
   178   109   110    1
   179    95    94    1
   180    95    96    1
   181   110   111    2
   182    97    96    2
