@<TRIPOS>MOLECULE
tmp/3lsjA02.pdb
 118 110 0 0 0
SMALL
GASTEIGER

@<TRIPOS>ATOM
      1  N        -17.2410   33.4230   -8.7050 N.3    78  ARG78      -0.1245
      2  CA       -16.4870   33.4370   -7.4430 C.3    78  ARG78       0.1563
      3  C        -16.9810   34.4680   -6.4030 C.2    78  ARG78       0.2260
      4  O        -16.5190   34.4820   -5.2550 O.2    78  ARG78      -0.2867
      5  CB       -14.9750   33.5510   -7.7100 C.3    78  ARG78       0.0307
      6  CG       -14.3700   32.2830   -8.3430 C.3    78  ARG78       0.0489
      7  CD       -12.8470   32.2470   -8.3060 C.3    78  ARG78       0.2205
      8  NE       -12.2430   33.1980   -9.2420 N.pl3  78  ARG78      -0.0865
      9  CZ       -11.6940   32.8880  -10.4190 C.cat  78  ARG78       0.5346
     10  NH1      -11.6430   31.6320  -10.8460 N.pl3  78  ARG78       0.1354
     11  NH2      -11.1810   33.8490  -11.1740 N.pl3  78  ARG78       0.1354
     12  N        -18.9660   26.7100    0.9490 N.3    82  LEU82      -0.1231
     13  CA       -18.2520   25.6070    1.5910 C.3    82  LEU82       0.1693
     14  C        -18.2930   24.3370    0.7320 C.2    82  LEU82       0.2592
     15  O        -19.1080   23.4360    0.9710 O.2    82  LEU82      -0.2718
     16  CB       -18.8110   25.3420    3.0020 C.3    82  LEU82       0.0284
     17  CG       -18.7320   26.4540    4.0580 C.3    82  LEU82       0.0019
     18  CD1      -19.4340   26.0310    5.3520 C.3    82  LEU82       0.0001
     19  CD2      -17.2920   26.8800    4.3370 C.3    82  LEU82       0.0001
     20  N        -17.4090   24.2800   -0.2650 N.am   83  GLY83      -0.1957
     21  CA       -17.3620   23.1690   -1.2270 C.3    83  GLY83       0.1869
     22  C        -18.1800   23.4300   -2.4830 C.2    83  GLY83       0.2309
     23  O        -18.0620   22.7040   -3.4760 O.2    83  GLY83      -0.2863
     24  N        -18.2450   26.2970   -4.5440 N.3    85  LEU85      -0.1231
     25  CA       -17.5970   27.0310   -5.6390 C.3    85  LEU85       0.1693
     26  C        -16.8070   26.1070   -6.5910 C.2    85  LEU85       0.2591
     27  O        -16.6320   26.4190   -7.7680 O.2    85  LEU85      -0.2718
     28  CB       -16.6860   28.1320   -5.0780 C.3    85  LEU85       0.0284
     29  CG       -16.4920   29.5060   -5.7560 C.3    85  LEU85       0.0019
     30  CD1      -16.7800   29.4940   -7.2650 C.3    85  LEU85       0.0001
     31  CD2      -17.3120   30.6000   -5.0690 C.3    85  LEU85       0.0001
     32  N        -16.3370   24.9770   -6.0720 N.am   86  ILE86      -0.1980
     33  CA       -15.6170   23.9940   -6.8760 C.3    86  ILE86       0.1595
     34  C        -16.5440   23.4220   -7.9400 C.2    86  ILE86       0.2287
     35  O        -16.2560   23.5240   -9.1340 O.2    86  ILE86      -0.2864
     36  CB       -14.9640   22.8820   -5.9940 C.3    86  ILE86       0.0276
     37  CG1      -13.7320   23.4490   -5.2830 C.3    86  ILE86       0.0022
     38  CG2      -14.5780   21.6500   -6.8310 C.3    86  ILE86       0.0022
     39  CD1      -13.4310   22.8040   -3.9490 C.3    86  ILE86       0.0001
     40  N         -8.3980   34.5820   -5.1330 N.3   137  LEU137     -0.1245
     41  CA        -7.9500   33.8520   -3.9470 C.3   137  LEU137      0.1561
     42  C         -7.4590   34.8000   -2.8520 C.2   137  LEU137      0.2260
     43  O         -7.7840   34.6210   -1.6700 O.2   137  LEU137     -0.2867
     44  CB        -6.8560   32.8420   -4.3220 C.3   137  LEU137      0.0270
     45  CG        -7.1650   31.3470   -4.5460 C.3   137  LEU137      0.0019
     46  CD1       -8.6510   30.9830   -4.7270 C.3   137  LEU137      0.0001
     47  CD2       -6.3250   30.8090   -5.6960 C.3   137  LEU137      0.0001
     48  N        -10.6300   36.7320   -1.6030 N.3   140  LEU140     -0.1245
     49  CA       -11.3580   35.8530   -0.6850 C.3   140  LEU140      0.1561
     50  C        -10.6400   35.6880    0.6530 C.2   140  LEU140      0.2260
     51  O        -11.2880   35.6250    1.6980 O.2   140  LEU140     -0.2867
     52  CB       -11.6300   34.4810   -1.3150 C.3   140  LEU140      0.0270
     53  CG       -12.6680   34.3790   -2.4420 C.3   140  LEU140      0.0019
     54  CD1      -12.6400   32.9850   -3.0780 C.3   140  LEU140      0.0001
     55  CD2      -14.0710   34.7260   -1.9510 C.3   140  LEU140      0.0001
     56  N         -8.8930   33.2910    2.1930 N.3   142  LYS142     -0.1231
     57  CA        -9.1000   32.0690    2.9820 C.3   142  LYS142      0.1693
     58  C         -7.8080   31.2490    3.1150 C.2   142  LYS142      0.2591
     59  O         -7.7930   30.1870    3.7540 O.2   142  LYS142     -0.2718
     60  CB       -10.2210   31.2130    2.3890 C.3   142  LYS142      0.0285
     61  CG       -11.5450   31.9390    2.1720 C.3   142  LYS142      0.0035
     62  CD       -12.3800   32.0240    3.4480 C.3   142  LYS142      0.0206
     63  CE       -13.5620   32.9740    3.2740 C.3   142  LYS142      0.1093
     64  NZ       -14.4700   32.5730    2.1550 N.3   142  LYS142     -0.1314
     65  N         -6.7370   31.7430    2.4900 N.am  143  MET143     -0.1979
     66  CA        -5.3800   31.2630    2.7490 C.3   143  MET143      0.1605
     67  C         -4.4570   32.4680    2.9650 C.2   143  MET143      0.2287
     68  O         -3.6080   32.7560    2.1130 O.2   143  MET143     -0.2864
     69  CB        -4.8750   30.3740    1.6030 C.3   143  MET143      0.0413
     70  CG        -5.6220   29.0490    1.4540 C.3   143  MET143      0.0598
     71  SD        -5.2890   28.1480   -0.0770 S.3   143  MET143     -0.1393
     72  CE        -5.8450   29.2930   -1.3460 C.3   143  MET143      0.0692
     73  N        -10.7190   19.5740   -4.6910 N.3   192  ARG192     -0.1245
     74  CA       -10.9710   19.5390   -3.2430 C.3   192  ARG192      0.1563
     75  C         -9.6810   19.1920   -2.5200 C.2   192  ARG192      0.2260
     76  O         -9.3220   19.8200   -1.5240 O.2   192  ARG192     -0.2867
     77  CB       -12.1060   18.5630   -2.8870 C.3   192  ARG192      0.0307
     78  CG       -13.4610   19.0490   -3.4280 C.3   192  ARG192      0.0489
     79  CD       -14.6920   18.4350   -2.7270 C.3   192  ARG192      0.2205
     80  NE       -15.7950   19.3870   -2.9320 N.pl3 192  ARG192     -0.0865
     81  CZ       -16.9670   19.1340   -3.5260 C.cat 192  ARG192      0.5346
     82  NH1      -17.3240   17.8970   -3.8910 N.pl3 192  ARG192      0.1354
     83  NH2      -17.8430   20.1510   -3.6670 N.pl3 192  ARG192      0.1354
     84  N         -7.4630   22.3370   -2.5590 N.3   195  MET195     -0.1230
     85  CA        -7.9320   23.3040   -1.5630 C.3   195  MET195      0.1702
     86  C         -7.6060   22.8830   -0.1280 C.2   195  MET195      0.2592
     87  O         -7.2180   23.7260    0.6760 O.2   195  MET195     -0.2718
     88  CB        -9.4320   23.5890   -1.7090 C.3   195  MET195      0.0401
     89  CG        -9.8480   24.2280   -3.0420 C.3   195  MET195      0.0596
     90  SD        -8.7440   25.5060   -3.7010 S.3   195  MET195     -0.1393
     91  CE        -8.8720   26.7950   -2.4610 C.3   195  MET195      0.0692
     92  N         -7.7530   21.5890    0.1750 N.am  196  ILE196     -0.1980
     93  CA        -7.3380   21.0240    1.4660 C.3   196  ILE196      0.1595
     94  C         -5.8370   21.2140    1.6710 C.2   196  ILE196      0.2287
     95  O         -5.4130   21.7150    2.7110 O.2   196  ILE196     -0.2864
     96  CB        -7.7160   19.5180    1.6040 C.3   196  ILE196      0.0276
     97  CG1       -9.2350   19.3500    1.7120 C.3   196  ILE196      0.0022
     98  CG2       -7.0520   18.8820    2.8330 C.3   196  ILE196      0.0022
     99  CD1       -9.7450   17.9920    1.2280 C.3   196  ILE196      0.0001
    100  N         -4.5270   24.5950    2.8340 N.3   199  LYS199     -0.1231
    101  CA        -4.5920   24.9230    4.2610 C.3   199  LYS199      0.1693
    102  C         -3.2490   24.7190    4.9420 C.2   199  LYS199      0.2592
    103  O         -2.8290   25.5390    5.7550 O.2   199  LYS199     -0.2718
    104  CB        -5.6160   24.0500    4.9970 C.3   199  LYS199      0.0285
    105  CG        -7.0590   24.1090    4.5060 C.3   199  LYS199      0.0035
    106  CD        -8.0600   23.9540    5.6780 C.3   199  LYS199      0.0206
    107  CE        -7.8230   22.7140    6.5590 C.3   199  LYS199      0.1093
    108  NZ        -8.1850   21.4190    5.9000 N.3   199  LYS199     -0.1314
    109  N         -2.5890   23.6150    4.5960 N.am  200  HIS200     -0.1976
    110  CA        -1.4140   23.1270    5.3150 C.3   200  HIS200      0.1656
    111  C         -0.0800   23.4770    4.6490 C.2   200  HIS200      0.2291
    112  O          0.9880   23.1600    5.1750 O.2   200  HIS200     -0.2864
    113  CB        -1.5360   21.6150    5.5060 C.3   200  HIS200      0.0771
    114  CG        -2.8710   21.1830    6.0360 C.ar  200  HIS200      0.0820
    115  ND1       -3.1730   21.1800    7.3820 N.ar  200  HIS200     -0.2267
    116  CD2       -3.9870   20.7550    5.3990 C.ar  200  HIS200      0.1154
    117  CE1       -4.4150   20.7630    7.5510 C.ar  200  HIS200      0.1986
    118  NE2       -4.9320   20.4990    6.3640 N.ar  200  HIS200     -0.2212
@<TRIPOS>BOND
     1    11     9    1
     2    10     9    1
     3     9     8    2
     4     8     7    1
     5    35    34    2
     6     1     2    1
     7     6     7    1
     8     6     5    1
     9    34    33    1
    10    27    26    2
    11     5     2    1
    12     2     3    1
    13    30    29    1
    14    33    32    1
    15    33    36    1
    16    38    36    1
    17    26    32   am
    18    26    25    1
    19     3     4    2
    20    36    37    1
    21    29    28    1
    22    29    31    1
    23    47    45    1
    24    25    28    1
    25    25    24    1
    26    37    39    1
    27    40    41    1
    28    46    45    1
    29    73    74    1
    30    45    44    1
    31    44    41    1
    32    41    42    1
    33    82    81    1
    34    90    89    1
    35    90    91    1
    36    83    81    1
    37    81    80    2
    38    23    22    2
    39    78    77    1
    40    78    79    1
    41    74    77    1
    42    74    75    1
    43    54    53    1
    44    89    88    1
    45    80    79    1
    46    42    43    2
    47    84    85    1
    48    75    76    2
    49    22    21    1
    50    53    55    1
    51    53    52    1
    52    88    85    1
    53    48    49    1
    54    85    86    1
    55    72    71    1
    56    52    49    1
    57    21    20    1
    58    49    50    1
    59    20    14   am
    60    86    92   am
    61    86    87    2
    62    71    70    1
    63    92    93    1
    64    50    51    2
    65    14    15    2
    66    14    13    1
    67    12    13    1
    68    99    97    1
    69    70    69    1
    70    93    96    1
    71    93    94    1
    72    13    16    1
    73    69    66    1
    74    96    97    1
    75    96    98    1
    76    94    95    2
    77    68    67    2
    78    64    63    1
    79    61    60    1
    80    61    62    1
    81    56    57    1
    82    60    57    1
    83    65    66    1
    84    65    58   am
    85    66    67    1
    86   100   101    1
    87    57    58    1
    88    16    17    1
    89    58    59    2
    90    63    62    1
    91    17    19    1
    92    17    18    1
    93   101   102    1
    94   101   104    1
    95   105   104    1
    96   105   106    1
    97   109   102   am
    98   109   110    1
    99   111   112    2
   100   111   110    1
   101   102   103    2
   102   110   113    1
   103   116   114   ar
   104   116   118   ar
   105   113   114    1
   106   106   107    1
   107   108   107    1
   108   114   115   ar
   109   118   117   ar
   110   115   117   ar
