@<TRIPOS>MOLECULE
tmp/3lsjA00.pdb
 196 181 0 0 0
SMALL
GASTEIGER

@<TRIPOS>ATOM
      1  N        -12.3310   33.7040  -26.8020 N.3    66  VAL66      -0.1245
      2  CA       -12.5220   33.1180  -25.4690 C.3    66  VAL66       0.1561
      3  C        -12.3930   34.1760  -24.3650 C.2    66  VAL66       0.2260
      4  O        -13.0890   34.1160  -23.3430 O.2    66  VAL66      -0.2867
      5  CB       -11.5310   31.9460  -25.2000 C.3    66  VAL66       0.0252
      6  CG1      -11.9650   31.1190  -23.9720 C.3    66  VAL66       0.0019
      7  CG2      -11.3940   31.0560  -26.4360 C.3    66  VAL66       0.0019
      8  N        -15.7050   33.3450  -21.8230 N.3    70  PHE70      -0.1241
      9  CA       -15.4590   32.3390  -20.7960 C.3    70  PHE70       0.1605
     10  C        -14.8210   32.9080  -19.5420 C.2    70  PHE70       0.2264
     11  O        -15.2360   32.6070  -18.4180 O.2    70  PHE70      -0.2867
     12  CB       -14.5590   31.2630  -21.3900 C.3    70  PHE70       0.0534
     13  CG       -14.2990   30.1110  -20.4800 C.ar   70  PHE70      -0.0203
     14  CD1      -15.3520   29.4010  -19.9080 C.ar   70  PHE70      -0.0042
     15  CD2      -13.0010   29.7150  -20.2120 C.ar   70  PHE70      -0.0042
     16  CE1      -15.1070   28.3260  -19.0760 C.ar   70  PHE70      -0.0003
     17  CE2      -12.7480   28.6350  -19.3870 C.ar   70  PHE70      -0.0003
     18  CZ       -13.8010   27.9400  -18.8160 C.ar   70  PHE70      -0.0000
     19  N        -16.0410   32.6730  -15.2310 N.3    74  LEU74      -0.1245
     20  CA       -15.2590   32.0580  -14.1680 C.3    74  LEU74       0.1561
     21  C        -15.0170   33.0260  -13.0270 C.2    74  LEU74       0.2260
     22  O        -15.0850   32.6480  -11.8580 O.2    74  LEU74      -0.2867
     23  CB       -13.9190   31.5720  -14.7070 C.3    74  LEU74       0.0270
     24  CG       -13.9100   30.3180  -15.5690 C.3    74  LEU74       0.0019
     25  CD1      -12.5270   30.1680  -16.1560 C.3    74  LEU74       0.0001
     26  CD2      -14.2870   29.0950  -14.7500 C.3    74  LEU74       0.0001
     27  N        -17.2410   33.4230   -8.7050 N.3    78  ARG78      -0.1245
     28  CA       -16.4870   33.4370   -7.4430 C.3    78  ARG78       0.1563
     29  C        -16.9810   34.4680   -6.4030 C.2    78  ARG78       0.2260
     30  O        -16.5190   34.4820   -5.2550 O.2    78  ARG78      -0.2867
     31  CB       -14.9750   33.5510   -7.7100 C.3    78  ARG78       0.0307
     32  CG       -14.3700   32.2830   -8.3430 C.3    78  ARG78       0.0489
     33  CD       -12.8470   32.2470   -8.3060 C.3    78  ARG78       0.2205
     34  NE       -12.2430   33.1980   -9.2420 N.pl3  78  ARG78      -0.0865
     35  CZ       -11.6940   32.8880  -10.4190 C.cat  78  ARG78       0.5346
     36  NH1      -11.6430   31.6320  -10.8460 N.pl3  78  ARG78       0.1354
     37  NH2      -11.1810   33.8490  -11.1740 N.pl3  78  ARG78       0.1354
     38  N        -18.2450   26.2970   -4.5440 N.3    85  LEU85      -0.1231
     39  CA       -17.5970   27.0310   -5.6390 C.3    85  LEU85       0.1693
     40  C        -16.8070   26.1070   -6.5910 C.2    85  LEU85       0.2591
     41  O        -16.6320   26.4190   -7.7680 O.2    85  LEU85      -0.2718
     42  CB       -16.6860   28.1320   -5.0780 C.3    85  LEU85       0.0284
     43  CG       -16.4920   29.5060   -5.7560 C.3    85  LEU85       0.0019
     44  CD1      -16.7800   29.4940   -7.2650 C.3    85  LEU85       0.0001
     45  CD2      -17.3120   30.6000   -5.0690 C.3    85  LEU85       0.0001
     46  N        -16.3370   24.9770   -6.0720 N.am   86  ILE86      -0.1980
     47  CA       -15.6170   23.9940   -6.8760 C.3    86  ILE86       0.1595
     48  C        -16.5440   23.4220   -7.9400 C.2    86  ILE86       0.2287
     49  O        -16.2560   23.5240   -9.1340 O.2    86  ILE86      -0.2864
     50  CB       -14.9640   22.8820   -5.9940 C.3    86  ILE86       0.0276
     51  CG1      -13.7320   23.4490   -5.2830 C.3    86  ILE86       0.0022
     52  CG2      -14.5780   21.6500   -6.8310 C.3    86  ILE86       0.0022
     53  CD1      -13.4310   22.8040   -3.9490 C.3    86  ILE86       0.0001
     54  N        -17.5840   26.0160  -10.5590 N.3    89  SER89      -0.1217
     55  CA       -16.4610   26.3290  -11.4580 C.3    89  SER89       0.1889
     56  C        -16.1770   25.2040  -12.4490 C.2    89  SER89       0.2288
     57  O        -15.9030   25.4670  -13.6230 O.2    89  SER89      -0.2866
     58  CB       -15.1880   26.6620  -10.6740 C.3    89  SER89       0.2089
     59  OG       -15.3770   27.8180   -9.8700 O.3    89  SER89      -0.2183
     60  N        -16.7490   25.1240  -16.7560 N.3    93  PHE93      -0.1241
     61  CA       -15.8100   24.5680  -17.7330 C.3    93  PHE93       0.1605
     62  C        -16.4720   23.4620  -18.5590 C.2    93  PHE93       0.2264
     63  O        -16.4440   23.5020  -19.8000 O.2    93  PHE93      -0.2867
     64  CB       -14.5310   24.0630  -17.0220 C.3    93  PHE93       0.0534
     65  CG       -13.5630   23.3240  -17.9190 C.ar   93  PHE93      -0.0203
     66  CD1      -12.7860   24.0080  -18.8570 C.ar   93  PHE93      -0.0042
     67  CD2      -13.4050   21.9470  -17.7980 C.ar   93  PHE93      -0.0042
     68  CE1      -11.8810   23.3170  -19.6780 C.ar   93  PHE93      -0.0003
     69  CE2      -12.5000   21.2460  -18.5980 C.ar   93  PHE93      -0.0003
     70  CZ       -11.7450   21.9260  -19.5450 C.ar   93  PHE93      -0.0000
     71  N        -12.3000   24.7330  -27.6920 N.3   104  PHE104     -0.1241
     72  CA       -11.4220   24.3110  -26.6050 C.3   104  PHE104      0.1605
     73  C        -10.3640   23.3200  -27.0480 C.2   104  PHE104      0.2264
     74  O         -9.2480   23.3580  -26.5380 O.2   104  PHE104     -0.2867
     75  CB       -12.2190   23.7630  -25.4210 C.3   104  PHE104      0.0534
     76  CG       -12.7990   24.8320  -24.5600 C.ar  104  PHE104     -0.0203
     77  CD1      -14.0610   25.3550  -24.8380 C.ar  104  PHE104     -0.0042
     78  CD2      -12.0730   25.3410  -23.4780 C.ar  104  PHE104     -0.0042
     79  CE1      -14.6010   26.3690  -24.0570 C.ar  104  PHE104     -0.0003
     80  CE2      -12.6040   26.3620  -22.6780 C.ar  104  PHE104     -0.0003
     81  CZ       -13.8740   26.8760  -22.9690 C.ar  104  PHE104     -0.0000
     82  N         -7.8020   25.4100  -28.6950 N.3   107  LEU107     -0.1245
     83  CA        -6.9910   26.0420  -27.6390 C.3   107  LEU107      0.1561
     84  C         -5.9520   25.0660  -27.1110 C.2   107  LEU107      0.2260
     85  O         -4.7860   25.4260  -26.9680 O.2   107  LEU107     -0.2867
     86  CB        -7.8510   26.5790  -26.4770 C.3   107  LEU107      0.0270
     87  CG        -8.7610   27.7960  -26.7090 C.3   107  LEU107      0.0019
     88  CD1       -9.5540   28.0890  -25.4620 C.3   107  LEU107      0.0001
     89  CD2       -7.9770   29.0620  -27.1450 C.3   107  LEU107      0.0001
     90  N         -2.3210   31.8950  -26.8350 N.3   122  ILE122     -0.1245
     91  CA        -2.9590   30.8900  -25.9670 C.3   122  ILE122      0.1561
     92  C         -2.3570   30.9040  -24.5480 C.2   122  ILE122      0.2260
     93  O         -3.0830   30.8760  -23.5640 O.2   122  ILE122     -0.2867
     94  CB        -2.9220   29.4530  -26.6010 C.3   122  ILE122      0.0252
     95  CG1       -3.7780   29.4010  -27.8750 C.3   122  ILE122      0.0019
     96  CG2       -3.4100   28.3880  -25.6050 C.3   122  ILE122      0.0019
     97  CD1       -3.5430   28.1690  -28.7480 C.3   122  ILE122      0.0001
     98  N         -3.7110   34.0580  -22.8220 N.3   125  LEU125     -0.1231
     99  CA        -5.1060   33.8080  -22.4330 C.3   125  LEU125      0.1693
    100  C         -5.1630   32.9770  -21.1470 C.2   125  LEU125      0.2591
    101  O         -5.8290   33.3340  -20.1770 O.2   125  LEU125     -0.2718
    102  CB        -5.8440   33.0700  -23.5600 C.3   125  LEU125      0.0284
    103  CG        -7.2870   32.6390  -23.2680 C.3   125  LEU125      0.0019
    104  CD1       -8.1690   33.8420  -22.8750 C.3   125  LEU125      0.0001
    105  CD2       -7.8730   31.8750  -24.4520 C.3   125  LEU125      0.0001
    106  N         -4.4340   31.8690  -21.1740 N.am  126  ARG126     -0.1980
    107  CA        -4.3050   30.9530  -20.0580 C.3   126  ARG126      0.1597
    108  C         -3.7760   31.6510  -18.7940 C.2   126  ARG126      0.2287
    109  O         -4.2300   31.3750  -17.6800 O.2   126  ARG126     -0.2864
    110  CB        -3.3900   29.8220  -20.5010 C.3   126  ARG126      0.0334
    111  CG        -3.0830   28.8420  -19.4560 C.3   126  ARG126      0.0492
    112  CD        -2.9960   27.4620  -20.0230 C.3   126  ARG126      0.2205
    113  NE        -2.7200   26.5380  -18.9370 N.pl3 126  ARG126     -0.0865
    114  CZ        -2.2410   25.3150  -19.0870 C.cat 126  ARG126      0.5346
    115  NH1       -1.9540   24.8490  -20.3000 N.pl3 126  ARG126      0.1354
    116  NH2       -2.0370   24.5730  -18.0100 N.pl3 126  ARG126      0.1354
    117  N         -6.4150   34.0750  -17.0910 N.3   129  ILE129     -0.1245
    118  CA        -7.3620   33.2500  -16.3380 C.3   129  ILE129      0.1561
    119  C         -6.7160   32.8100  -15.0310 C.2   129  ILE129      0.2260
    120  O         -7.3490   32.8380  -13.9730 O.2   129  ILE129     -0.2867
    121  CB        -7.8250   32.0020  -17.1570 C.3   129  ILE129      0.0252
    122  CG1       -8.6810   32.4330  -18.3590 C.3   129  ILE129      0.0019
    123  CG2       -8.5940   31.0270  -16.2710 C.3   129  ILE129      0.0019
    124  CD1       -8.9910   31.2940  -19.3740 C.3   129  ILE129      0.0001
    125  N         -7.7880   34.1150  -11.0100 N.3   133  LEU133     -0.1245
    126  CA        -7.9930   33.2120   -9.8910 C.3   133  LEU133      0.1561
    127  C         -7.0650   33.5440   -8.7300 C.2   133  LEU133      0.2260
    128  O         -7.5120   33.6270   -7.5940 O.2   133  LEU133     -0.2867
    129  CB        -7.8380   31.7520  -10.3350 C.3   133  LEU133      0.0270
    130  CG        -7.9560   30.6970   -9.2320 C.3   133  LEU133      0.0019
    131  CD1       -9.3550   30.6780   -8.6060 C.3   133  LEU133      0.0001
    132  CD2       -7.5730   29.3330   -9.7740 C.3   133  LEU133      0.0001
    133  N         -8.3980   34.5820   -5.1330 N.3   137  LEU137     -0.1245
    134  CA        -7.9500   33.8520   -3.9470 C.3   137  LEU137      0.1561
    135  C         -7.4590   34.8000   -2.8520 C.2   137  LEU137      0.2260
    136  O         -7.7840   34.6210   -1.6700 O.2   137  LEU137     -0.2867
    137  CB        -6.8560   32.8420   -4.3220 C.3   137  LEU137      0.0270
    138  CG        -7.1650   31.3470   -4.5460 C.3   137  LEU137      0.0019
    139  CD1       -8.6510   30.9830   -4.7270 C.3   137  LEU137      0.0001
    140  CD2       -6.3250   30.8090   -5.6960 C.3   137  LEU137      0.0001
    141  N        -10.6300   36.7320   -1.6030 N.3   140  LEU140     -0.1245
    142  CA       -11.3580   35.8530   -0.6850 C.3   140  LEU140      0.1561
    143  C        -10.6400   35.6880    0.6530 C.2   140  LEU140      0.2260
    144  O        -11.2880   35.6250    1.6980 O.2   140  LEU140     -0.2867
    145  CB       -11.6300   34.4810   -1.3150 C.3   140  LEU140      0.0270
    146  CG       -12.6680   34.3790   -2.4420 C.3   140  LEU140      0.0019
    147  CD1      -12.6400   32.9850   -3.0780 C.3   140  LEU140      0.0001
    148  CD2      -14.0710   34.7260   -1.9510 C.3   140  LEU140      0.0001
    149  N         -4.2600   24.8170  -10.1170 N.3   158  VAL158     -0.1231
    150  CA        -5.7240   24.6850  -10.2290 C.3   158  VAL158      0.1692
    151  C         -6.1680   24.7050  -11.6940 C.2   158  VAL158      0.2591
    152  O         -6.8110   23.7670  -12.1500 O.2   158  VAL158     -0.2718
    153  CB        -6.4960   25.7670   -9.4100 C.3   158  VAL158      0.0266
    154  CG1       -7.9720   25.7690   -9.7730 C.3   158  VAL158      0.0020
    155  CG2       -6.3090   25.5610   -7.8840 C.3   158  VAL158      0.0020
    156  N         -5.8060   25.7570  -12.4240 N.am  159  VAL159     -0.1980
    157  CA        -6.1920   25.9070  -13.8340 C.3   159  VAL159      0.1595
    158  C         -5.7840   24.7160  -14.7080 C.2   159  VAL159      0.2287
    159  O         -6.5830   24.2320  -15.5250 O.2   159  VAL159     -0.2864
    160  CB        -5.6430   27.2210  -14.4330 C.3   159  VAL159      0.0276
    161  CG1       -5.8750   27.2880  -15.9570 C.3   159  VAL159      0.0022
    162  CG2       -6.2860   28.4120  -13.7420 C.3   159  VAL159      0.0022
    163  N         -7.7930   21.4390  -14.1580 N.3   162  VAL162     -0.1231
    164  CA        -9.0610   21.4580  -14.8900 C.3   162  VAL162      0.1692
    165  C         -8.8150   21.3370  -16.4100 C.2   162  VAL162      0.2592
    166  O         -9.2580   20.3780  -17.0480 O.2   162  VAL162     -0.2718
    167  CB        -9.8550   22.7510  -14.5670 C.3   162  VAL162      0.0266
    168  CG1      -11.1710   22.7690  -15.3160 C.3   162  VAL162      0.0020
    169  CG2      -10.1150   22.8440  -13.0930 C.3   162  VAL162      0.0020
    170  N         -8.0710   22.3010  -16.9650 N.am  163  PHE163     -0.1976
    171  CA        -7.8650   22.4170  -18.4110 C.3   163  PHE163      0.1639
    172  C         -7.2900   21.1400  -19.0170 C.2   163  PHE163      0.2290
    173  O         -7.7620   20.6830  -20.0440 O.2   163  PHE163     -0.2864
    174  CB        -6.9400   23.6120  -18.7220 C.3   163  PHE163      0.0560
    175  CG        -6.7440   23.8830  -20.1970 C.ar  163  PHE163     -0.0200
    176  CD1       -7.8290   23.8330  -21.1010 C.ar  163  PHE163     -0.0042
    177  CD2       -5.4830   24.2280  -20.6850 C.ar  163  PHE163     -0.0042
    178  CE1       -7.6390   24.1000  -22.4640 C.ar  163  PHE163     -0.0003
    179  CE2       -5.2790   24.5020  -22.0390 C.ar  163  PHE163     -0.0003
    180  CZ        -6.3570   24.4270  -22.9360 C.ar  163  PHE163     -0.0000
    181  N         -9.5230   18.9510   -7.1940 N.3   191  LEU191     -0.1245
    182  CA        -9.6110   20.3440   -6.7220 C.3   191  LEU191      0.1561
    183  C         -9.8840   20.4670   -5.2250 C.2   191  LEU191      0.2260
    184  O         -9.3550   21.3700   -4.5640 O.2   191  LEU191     -0.2867
    185  CB       -10.6600   21.1480   -7.5050 C.3   191  LEU191      0.0270
    186  CG       -10.3310   21.4880   -8.9640 C.3   191  LEU191      0.0019
    187  CD1      -11.4510   22.2890   -9.5580 C.3   191  LEU191      0.0001
    188  CD2       -9.0130   22.2450   -9.0950 C.3   191  LEU191      0.0001
    189  N         -7.4630   22.3370   -2.5590 N.3   195  MET195     -0.1245
    190  CA        -7.9320   23.3040   -1.5630 C.3   195  MET195      0.1570
    191  C         -7.6060   22.8830   -0.1280 C.2   195  MET195      0.2261
    192  O         -7.2180   23.7260    0.6760 O.2   195  MET195     -0.2867
    193  CB        -9.4320   23.5890   -1.7090 C.3   195  MET195      0.0387
    194  CG        -9.8480   24.2280   -3.0420 C.3   195  MET195      0.0595
    195  SD        -8.7440   25.5060   -3.7010 S.3   195  MET195     -0.1393
    196  CE        -8.8720   26.7950   -2.4610 C.3   195  MET195      0.0692
@<TRIPOS>BOND
     1    97    95    1
     2    82    83    1
     3    95    94    1
     4    71    72    1
     5    83    84    1
     6    83    86    1
     7    89    87    1
     8    84    85    2
     9    73    72    1
    10    73    74    2
    11    90    91    1
    12     1     2    1
    13    87    86    1
    14    87    88    1
    15    72    75    1
    16    94    91    1
    17    94    96    1
    18     7     5    1
    19    91    92    1
    20     2     5    1
    21     2     3    1
    22    75    76    1
    23     5     6    1
    24    77    76   ar
    25    77    79   ar
    26    76    78   ar
    27    92    93    2
    28   105   103    1
    29     3     4    2
    30    79    81   ar
    31   102   103    1
    32   102    99    1
    33    78    80   ar
    34   103   104    1
    35    81    80   ar
    36   180   178   ar
    37   180   179   ar
    38    98    99    1
    39   178   176   ar
    40    99   100    1
    41   179   177   ar
    42     8     9    1
    43    12     9    1
    44    12    13    1
    45   106   100   am
    46   106   107    1
    47   100   101    2
    48   176   175   ar
    49     9    10    1
    50   177   175   ar
    51   110   107    1
    52   110   111    1
    53    13    15   ar
    54    13    14   ar
    55   115   114    1
    56    15    17   ar
    57   175   174    1
    58   107   108    1
    59   173   172    2
    60   112   111    1
    61   112   113    1
    62    14    16   ar
    63    63    62    2
    64    68    70   ar
    65    68    66   ar
    66    70    69   ar
    67    10    11    2
    68    17    18   ar
    69   124   122    1
    70   114   113    2
    71   114   116    1
    72    16    18   ar
    73   172   171    1
    74    66    65   ar
    75   108   109    2
    76   174   171    1
    77    69    67   ar
    78    62    61    1
    79   171   170    1
    80   122   121    1
    81    65    67   ar
    82    65    64    1
    83    61    64    1
    84    61    60    1
    85   121   118    1
    86   121   123    1
    87   117   118    1
    88   166   165    2
    89   170   165   am
    90   165   164    1
    91   118   119    1
    92    25    24    1
    93   161   160    1
    94    24    26    1
    95    24    23    1
    96   159   158    2
    97   168   167    1
    98    19    20    1
    99   119   120    2
   100   164   167    1
   101   164   163    1
   102   158   157    1
   103    23    20    1
   104   167   169    1
   105   160   157    1
   106   160   162    1
   107    20    21    1
   108   157   156    1
   109    57    56    2
   110    21    22    2
   111    56    55    1
   112   156   151   am
   113   152   151    2
   114   151   150    1
   115    55    58    1
   116    55    54    1
   117    37    35    1
   118   125   126    1
   119    36    35    1
   120    58    59    1
   121    35    34    2
   122   129   126    1
   123   129   130    1
   124   150   149    1
   125   150   153    1
   126   126   127    1
   127   132   130    1
   128   154   153    1
   129   187   186    1
   130   153   155    1
   131    34    33    1
   132   130   131    1
   133    49    48    2
   134   188   186    1
   135   186   185    1
   136   127   128    2
   137    27    28    1
   138    32    33    1
   139    32    31    1
   140    48    47    1
   141    41    40    2
   142    31    28    1
   143   185   182    1
   144    28    29    1
   145    44    43    1
   146   181   182    1
   147    47    46    1
   148    47    50    1
   149    52    50    1
   150   182   183    1
   151    40    46   am
   152    40    39    1
   153    29    30    2
   154    50    51    1
   155    43    42    1
   156    43    45    1
   157   140   138    1
   158    39    42    1
   159    39    38    1
   160    51    53    1
   161   183   184    2
   162   133   134    1
   163   139   138    1
   164   138   137    1
   165   137   134    1
   166   134   135    1
   167   195   194    1
   168   195   196    1
   169   147   146    1
   170   194   193    1
   171   135   136    2
   172   189   190    1
   173   146   148    1
   174   146   145    1
   175   193   190    1
   176   141   142    1
   177   190   191    1
   178   145   142    1
   179   142   143    1
   180   191   192    2
   181   143   144    2
