@<TRIPOS>MOLECULE
tmp/3lspA00.pdb
 199 185 0 0 0
SMALL
GASTEIGER

@<TRIPOS>ATOM
      1  N         10.2170  -24.5260  -34.2210 N.3    68  PHE68      -0.1241
      2  CA         9.6080  -25.1410  -35.3940 C.3    68  PHE68       0.1605
      3  C          9.4370  -24.1290  -36.5360 C.2    68  PHE68       0.2264
      4  O          9.5150  -24.4860  -37.7090 O.2    68  PHE68      -0.2867
      5  CB         8.2800  -25.7940  -35.0390 C.3    68  PHE68       0.0534
      6  CG         7.8540  -26.8730  -35.9950 C.ar   68  PHE68      -0.0203
      7  CD1        6.9650  -27.8650  -35.5750 C.ar   68  PHE68      -0.0042
      8  CD2        8.3520  -26.9230  -37.3030 C.ar   68  PHE68      -0.0042
      9  CE1        6.5520  -28.8760  -36.4510 C.ar   68  PHE68      -0.0003
     10  CE2        7.9660  -27.9220  -38.1710 C.ar   68  PHE68      -0.0003
     11  CZ         7.0550  -28.9050  -37.7510 C.ar   68  PHE68      -0.0000
     12  N         10.8870  -23.8890  -40.4850 N.3    72  LEU72      -0.1245
     13  CA        10.0300  -23.7220  -41.6650 C.3    72  LEU72       0.1561
     14  C         10.5200  -22.5790  -42.5440 C.2    72  LEU72       0.2260
     15  O         10.5090  -22.7210  -43.7630 O.2    72  LEU72      -0.2867
     16  CB         8.5630  -23.5550  -41.3030 C.3    72  LEU72       0.0270
     17  CG         7.9780  -24.6730  -40.4420 C.3    72  LEU72       0.0019
     18  CD1        6.8610  -24.1270  -39.5420 C.3    72  LEU72       0.0001
     19  CD2        7.5300  -25.8810  -41.2650 C.3    72  LEU72       0.0001
     20  N         13.2040  -23.8140  -44.7380 N.3    75  VAL75      -0.1231
     21  CA        12.6560  -24.6350  -45.8240 C.3    75  VAL75       0.1692
     22  C         12.0220  -23.7540  -46.8910 C.2    75  VAL75       0.2591
     23  O         12.1540  -24.0170  -48.0870 O.2    75  VAL75      -0.2718
     24  CB        11.5870  -25.6270  -45.3130 C.3    75  VAL75       0.0266
     25  CG1       10.7830  -26.2330  -46.4800 C.3    75  VAL75       0.0020
     26  CG2       12.2130  -26.7120  -44.4540 C.3    75  VAL75       0.0020
     27  N         11.3140  -22.7210  -46.4430 N.am   76  ARG76      -0.1980
     28  CA        10.6830  -21.7290  -47.3160 C.3    76  ARG76       0.1597
     29  C         11.7150  -21.0910  -48.2590 C.2    76  ARG76       0.2287
     30  O         11.5700  -21.1440  -49.4850 O.2    76  ARG76      -0.2864
     31  CB        10.0000  -20.6690  -46.4470 C.3    76  ARG76       0.0334
     32  CG         9.3590  -19.5140  -47.1830 C.3    76  ARG76       0.0492
     33  CD         7.8610  -19.6750  -47.1890 C.3    76  ARG76       0.2205
     34  NE         7.2020  -18.9330  -46.1150 N.pl3  76  ARG76      -0.0865
     35  CZ         5.8790  -18.7750  -46.0290 C.cat  76  ARG76       0.5346
     36  NH1        5.0820  -19.3110  -46.9480 N.pl3  76  ARG76       0.1354
     37  NH2        5.3390  -18.0820  -45.0260 N.pl3  76  ARG76       0.1354
     38  N         12.7770  -23.2590  -51.0680 N.3    79  GLU79      -0.1245
     39  CA        11.7970  -23.7040  -52.0600 C.3    79  GLU79       0.1567
     40  C         11.8500  -22.9510  -53.3760 C.2    79  GLU79       0.2260
     41  O         11.1720  -23.3450  -54.3350 O.2    79  GLU79      -0.2867
     42  CB        10.3910  -23.6090  -51.5090 C.3    79  GLU79       0.0388
     43  CG         9.9600  -24.8260  -50.7320 C.3    79  GLU79       0.1160
     44  CD         8.7320  -24.5420  -49.8700 C.2    79  GLU79       0.3649
     45  OE1        8.1660  -23.4280  -50.0110 O.co2  79  GLU79      -0.2457
     46  OE2        8.3430  -25.4220  -49.0510 O.co2  79  GLU79      -0.2457
     47  N         13.8820  -30.0640  -54.6410 N.3    85  LEU85      -0.1231
     48  CA        13.0730  -29.4530  -53.5640 C.3    85  LEU85       0.1693
     49  C         12.9560  -30.3640  -52.3300 C.2    85  LEU85       0.2591
     50  O         13.2720  -29.9420  -51.2100 O.2    85  LEU85      -0.2718
     51  CB        11.6700  -29.0150  -54.0720 C.3    85  LEU85       0.0284
     52  CG        11.4810  -28.1140  -55.3220 C.3    85  LEU85       0.0019
     53  CD1       10.2030  -28.4620  -56.1270 C.3    85  LEU85       0.0001
     54  CD2       11.5200  -26.6150  -54.9900 C.3    85  LEU85       0.0001
     55  N         12.5530  -31.6190  -52.5450 N.am   86  ILE86      -0.1980
     56  CA        12.2320  -32.5200  -51.4320 C.3    86  ILE86       0.1595
     57  C         13.4460  -32.9370  -50.6120 C.2    86  ILE86       0.2287
     58  O         13.4680  -32.7230  -49.4100 O.2    86  ILE86      -0.2864
     59  CB        11.3580  -33.7270  -51.8780 C.3    86  ILE86       0.0276
     60  CG1        9.9580  -33.2170  -52.2480 C.3    86  ILE86       0.0022
     61  CG2       11.2610  -34.7910  -50.7760 C.3    86  ILE86       0.0022
     62  CD1        9.0840  -34.2200  -52.9600 C.3    86  ILE86       0.0001
     63  N         14.9910  -30.1320  -48.2960 N.3    89  SER89      -0.1202
     64  CA        14.1310  -29.7070  -47.1930 C.3    89  SER89       0.2020
     65  C         13.9400  -30.7680  -46.1310 C.2    89  SER89       0.2618
     66  O         13.8410  -30.4460  -44.9440 O.2    89  SER89      -0.2717
     67  CB        12.7890  -29.1390  -47.6710 C.3    89  SER89       0.2103
     68  OG        12.1500  -29.9660  -48.6290 O.3    89  SER89      -0.2182
     69  N         13.9140  -32.0310  -46.5350 N.am   90  VAL90      -0.1979
     70  CA        13.9160  -33.1070  -45.5590 C.3    90  VAL90       0.1595
     71  C         15.1780  -32.9940  -44.7100 C.2    90  VAL90       0.2287
     72  O         15.1050  -33.0070  -43.4820 O.2    90  VAL90      -0.2864
     73  CB        13.8040  -34.5010  -46.2270 C.3    90  VAL90       0.0276
     74  CG1       14.1060  -35.6280  -45.2310 C.3    90  VAL90       0.0022
     75  CG2       12.4340  -34.6850  -46.8460 C.3    90  VAL90       0.0022
     76  N         15.0590  -30.1920  -42.3800 N.3    93  PHE93      -0.1241
     77  CA        14.1320  -30.5900  -41.3420 C.3    93  PHE93       0.1605
     78  C         14.7290  -31.5460  -40.3080 C.2    93  PHE93       0.2264
     79  O         14.6540  -31.2670  -39.1050 O.2    93  PHE93      -0.2867
     80  CB        12.8360  -31.1670  -41.9300 C.3    93  PHE93       0.0534
     81  CG        11.8460  -31.5390  -40.8860 C.ar   93  PHE93      -0.0203
     82  CD1       11.3190  -30.5660  -40.0480 C.ar   93  PHE93      -0.0042
     83  CD2       11.4880  -32.8580  -40.6980 C.ar   93  PHE93      -0.0042
     84  CE1       10.4210  -30.9160  -39.0500 C.ar   93  PHE93      -0.0003
     85  CE2       10.6040  -33.2180  -39.7110 C.ar   93  PHE93      -0.0003
     86  CZ        10.0680  -32.2510  -38.8840 C.ar   93  PHE93      -0.0000
     87  N          0.9270  -23.7520  -39.3520 N.3   129  ILE129     -0.1245
     88  CA         1.8460  -24.4260  -40.2890 C.3   129  ILE129      0.1561
     89  C          1.1280  -24.9270  -41.5370 C.2   129  ILE129      0.2260
     90  O          1.6060  -24.7530  -42.6520 O.2   129  ILE129     -0.2867
     91  CB         2.6540  -25.5780  -39.6080 C.3   129  ILE129      0.0252
     92  CG1        3.3990  -25.0350  -38.3820 C.3   129  ILE129      0.0019
     93  CG2        3.6200  -26.2220  -40.6080 C.3   129  ILE129      0.0019
     94  CD1        3.9760  -26.1060  -37.4950 C.3   129  ILE129      0.0001
     95  N          0.2160  -21.7940  -43.5930 N.3   132  ASP132     -0.1225
     96  CA         1.4050  -21.2560  -44.2010 C.3   132  ASP132      0.1805
     97  C          1.8280  -22.0960  -45.4030 C.2   132  ASP132      0.2597
     98  O          2.2250  -21.5400  -46.4350 O.2   132  ASP132     -0.2718
     99  CB         2.5140  -21.0750  -43.1700 C.3   132  ASP132      0.1424
    100  CG         2.1110  -20.0850  -42.0350 C.2   132  ASP132      0.3668
    101  OD1        1.3730  -19.0950  -42.3080 O.co2 132  ASP132     -0.2456
    102  OD2        2.5250  -20.2890  -40.8550 O.co2 132  ASP132     -0.2456
    103  N          1.6930  -23.4190  -45.3070 N.am  133  LEU133     -0.1979
    104  CA         2.0150  -24.2770  -46.4360 C.3   133  LEU133      0.1596
    105  C          1.0160  -24.0800  -47.6000 C.2   133  LEU133      0.2287
    106  O          1.4340  -23.9050  -48.7490 O.2   133  LEU133     -0.2864
    107  CB         2.1230  -25.7390  -45.9820 C.3   133  LEU133      0.0297
    108  CG         2.3340  -26.8000  -47.0740 C.3   133  LEU133      0.0022
    109  CD1        3.7170  -26.7110  -47.7420 C.3   133  LEU133      0.0001
    110  CD2        2.0870  -28.1890  -46.5320 C.3   133  LEU133      0.0001
    111  N          2.0290  -20.8850  -49.2550 N.3   136  ASP136     -0.1225
    112  CA         3.2080  -21.0830  -50.0870 C.3   136  ASP136      0.1805
    113  C          3.0140  -21.8560  -51.4210 C.2   136  ASP136      0.2597
    114  O          3.6310  -21.5100  -52.4420 O.2   136  ASP136     -0.2718
    115  CB         4.3290  -21.7020  -49.2890 C.3   136  ASP136      0.1424
    116  CG         5.5130  -22.0190  -50.1560 C.2   136  ASP136      0.3668
    117  OD1        6.4440  -21.1670  -50.2370 O.co2 136  ASP136     -0.2456
    118  OD2        5.4960  -23.1050  -50.8070 O.co2 136  ASP136     -0.2456
    119  N          2.2040  -22.9210  -51.4210 N.am  137  LEU137     -0.1979
    120  CA         1.9380  -23.6510  -52.6660 C.3   137  LEU137      0.1596
    121  C          1.1300  -22.7910  -53.6290 C.2   137  LEU137      0.2287
    122  O          1.3530  -22.8240  -54.8470 O.2   137  LEU137     -0.2864
    123  CB         1.1990  -24.9670  -52.3970 C.3   137  LEU137      0.0297
    124  CG         1.9090  -25.9530  -51.4680 C.3   137  LEU137      0.0022
    125  CD1        0.9480  -27.0330  -50.9770 C.3   137  LEU137      0.0001
    126  CD2        3.1420  -26.5490  -52.1240 C.3   137  LEU137      0.0001
    127  N          2.5900  -24.4420  -57.4590 N.3   142  LYS142     -0.1231
    128  CA         3.1660  -25.8000  -57.4910 C.3   142  LYS142      0.1693
    129  C          2.1270  -26.8730  -57.8280 C.2   142  LYS142      0.2591
    130  O          2.4550  -27.8960  -58.4250 O.2   142  LYS142     -0.2718
    131  CB         3.8530  -26.1540  -56.1630 C.3   142  LYS142      0.0285
    132  CG         4.8910  -25.1330  -55.6670 C.3   142  LYS142      0.0035
    133  CD         6.2500  -25.3100  -56.3250 C.3   142  LYS142      0.0206
    134  CE         7.3250  -24.6150  -55.4930 C.3   142  LYS142      0.1093
    135  NZ         8.7120  -24.8800  -56.0050 N.3   142  LYS142     -0.1314
    136  N          0.8740  -26.6390  -57.4560 N.am  143  MET143     -0.1979
    137  CA        -0.1840  -27.5850  -57.7580 C.3   143  MET143      0.1605
    138  C         -1.2990  -26.8750  -58.5420 C.2   143  MET143      0.2287
    139  O         -2.3990  -26.6640  -58.0110 O.2   143  MET143     -0.2864
    140  CB        -0.7210  -28.2240  -56.4600 C.3   143  MET143      0.0413
    141  CG         0.3400  -28.7560  -55.4790 C.3   143  MET143      0.0598
    142  SD         1.1990  -30.1970  -56.1180 S.3   143  MET143     -0.1393
    143  CE         2.6970  -30.2240  -55.1280 C.3   143  MET143      0.0692
    144  N         -4.7750  -30.9720  -49.2230 N.3   154  PHE154     -0.1241
    145  CA        -3.4120  -31.3580  -49.5030 C.3   154  PHE154      0.1605
    146  C         -2.4340  -30.8850  -48.4090 C.2   154  PHE154      0.2264
    147  O         -1.7740  -31.6930  -47.7530 O.2   154  PHE154     -0.2867
    148  CB        -3.0190  -30.7660  -50.8300 C.3   154  PHE154      0.0534
    149  CG        -1.6870  -31.2460  -51.3430 C.ar  154  PHE154     -0.0203
    150  CD1       -1.5980  -32.4200  -52.0860 C.ar  154  PHE154     -0.0042
    151  CD2       -0.5250  -30.5030  -51.1090 C.ar  154  PHE154     -0.0042
    152  CE1       -0.3740  -32.8550  -52.5770 C.ar  154  PHE154     -0.0003
    153  CE2        0.6950  -30.9290  -51.5940 C.ar  154  PHE154     -0.0003
    154  CZ         0.7790  -32.0990  -52.3400 C.ar  154  PHE154     -0.0000
    155  N          0.1370  -33.2440  -46.0720 N.3   158  VAL158     -0.1231
    156  CA         1.5560  -33.0050  -45.8120 C.3   158  VAL158      0.1692
    157  C          1.9000  -32.7630  -44.3400 C.2   158  VAL158      0.2591
    158  O          2.8970  -33.2910  -43.8640 O.2   158  VAL158     -0.2718
    159  CB         2.1670  -31.9020  -46.7180 C.3   158  VAL158      0.0266
    160  CG1        3.6290  -31.6320  -46.3320 C.3   158  VAL158      0.0020
    161  CG2        2.1070  -32.3000  -48.2010 C.3   158  VAL158      0.0020
    162  N          1.1090  -31.9930  -43.6020 N.am  159  VAL159     -0.1980
    163  CA         1.4750  -31.6700  -42.2060 C.3   159  VAL159      0.1595
    164  C          1.1550  -32.8470  -41.2970 C.2   159  VAL159      0.2287
    165  O          1.8380  -33.0870  -40.2970 O.2   159  VAL159     -0.2864
    166  CB         0.8080  -30.3570  -41.6940 C.3   159  VAL159      0.0276
    167  CG1        1.2220  -30.0290  -40.2740 C.3   159  VAL159      0.0022
    168  CG2        1.2030  -29.1640  -42.5810 C.3   159  VAL159      0.0022
    169  N          4.2580  -35.3110  -41.7660 N.3   162  VAL162     -0.1245
    170  CA         5.3920  -34.8160  -40.9840 C.3   162  VAL162      0.1561
    171  C          5.1350  -35.0090  -39.4880 C.2   162  VAL162      0.2260
    172  O          5.9340  -35.6160  -38.7930 O.2   162  VAL162     -0.2867
    173  CB         5.7370  -33.3350  -41.3000 C.3   162  VAL162      0.0252
    174  CG1        6.9500  -32.8950  -40.5380 C.3   162  VAL162      0.0019
    175  CG2        6.0020  -33.1490  -42.7910 C.3   162  VAL162      0.0019
    176  N         10.8270  -41.0840  -45.3950 N.3   179  ILE179     -0.1245
    177  CA        10.0140  -39.8890  -45.3380 C.3   179  ILE179      0.1561
    178  C         10.0140  -39.1560  -46.6730 C.2   179  ILE179      0.2260
    179  O          8.9800  -38.6280  -47.0940 O.2   179  ILE179     -0.2867
    180  CB        10.4600  -38.9710  -44.1770 C.3   179  ILE179      0.0252
    181  CG1        9.2500  -38.4630  -43.3810 C.3   179  ILE179      0.0019
    182  CG2       11.3230  -37.8740  -44.6590 C.3   179  ILE179      0.0019
    183  CD1        8.3970  -37.4030  -44.0440 C.3   179  ILE179      0.0001
    184  N          6.8790  -38.5820  -48.9940 N.3   183  LEU183     -0.1245
    185  CA         6.4590  -37.2680  -49.4540 C.3   183  LEU183      0.1561
    186  C          6.3870  -37.1940  -50.9720 C.2   183  LEU183      0.2260
    187  O          5.5190  -36.5260  -51.5340 O.2   183  LEU183     -0.2867
    188  CB         7.3560  -36.1770  -48.8740 C.3   183  LEU183      0.0270
    189  CG         7.0910  -35.9290  -47.3750 C.3   183  LEU183      0.0019
    190  CD1        8.3020  -35.2600  -46.7100 C.3   183  LEU183      0.0001
    191  CD2        5.7710  -35.1290  -47.1190 C.3   183  LEU183      0.0001
    192  N          3.3570  -35.6770  -53.3050 N.3   187  MET187     -0.1245
    193  CA         3.5730  -34.6690  -54.3590 C.3   187  MET187      0.1570
    194  C          3.0460  -35.1490  -55.7060 C.2   187  MET187      0.2261
    195  O          2.1630  -34.5140  -56.2810 O.2   187  MET187     -0.2867
    196  CB         5.0460  -34.2520  -54.4600 C.3   187  MET187      0.0387
    197  CG         5.6260  -33.6390  -53.1700 C.3   187  MET187      0.0595
    198  SD         4.6250  -32.2890  -52.4390 S.3   187  MET187     -0.1393
    199  CE         5.0410  -32.4850  -50.7010 C.3   187  MET187      0.0692
@<TRIPOS>BOND
     1   138   139    2
     2   138   137    1
     3   130   129    2
     4   129   128    1
     5   129   136   am
     6   137   136    1
     7   137   140    1
     8   128   127    1
     9   128   131    1
    10   140   141    1
    11   133   132    1
    12   133   134    1
    13   195   194    2
    14   131   132    1
    15    53    52    1
    16   142   141    1
    17   142   143    1
    18   135   134    1
    19   194   193    1
    20    52    54    1
    21    52    51    1
    22   122   121    2
    23    47    48    1
    24   196   193    1
    25   196   197    1
    26   193   192    1
    27    41    40    2
    28    51    48    1
    29   121   120    1
    30    48    49    1
    31    40    39    1
    32   197   198    1
    33    62    60    1
    34   120   123    1
    35   120   119    1
    36   152   154   ar
    37   152   150   ar
    38    55    49   am
    39    55    56    1
    40   114   113    2
    41   198   199    1
    42   123   124    1
    43   154   153   ar
    44    49    50    2
    45    60    59    1
    46   126   124    1
    47   150   149   ar
    48    39    42    1
    49    39    38    1
    50    59    56    1
    51    59    61    1
    52   153   151   ar
    53   187   186    2
    54    42    43    1
    55   124   125    1
    56    56    57    1
    57   119   113   am
    58   113   112    1
    59   149   151   ar
    60   149   148    1
    61   186   185    1
    62   148   145    1
    63   118   116   ar
    64    43    44    1
    65    57    58    2
    66   117   116   ar
    67   116   115    1
    68   112   115    1
    69   112   111    1
    70    45    44   ar
    71    44    46   ar
    72   145   144    1
    73   145   146    1
    74    30    29    2
    75   185   184    1
    76   185   188    1
    77   188   189    1
    78   106   105    2
    79    68    67    1
    80   146   147    2
    81    63    64    1
    82    29    28    1
    83   161   159    1
    84    23    22    2
    85   109   108    1
    86    67    64    1
    87   105   104    1
    88   189   191    1
    89   189   190    1
    90    28    31    1
    91    28    27    1
    92    64    65    1
    93    33    32    1
    94    33    34    1
    95    32    31    1
    96   179   178    2
    97   108   110    1
    98   108   107    1
    99    36    35    1
   100    22    27   am
   101    22    21    1
   102    75    73    1
   103   159   160    1
   104   159   156    1
   105   178   177    1
   106    69    65   am
   107    69    70    1
   108    25    24    1
   109   104   107    1
   110   104   103    1
   111    98    97    2
   112    73    70    1
   113    73    74    1
   114    65    66    2
   115    34    35    2
   116   155   156    1
   117    35    37    1
   118    21    24    1
   119    21    20    1
   120   156   157    1
   121    70    71    1
   122    97   103   am
   123    97    96    1
   124   176   177    1
   125   177   180    1
   126    24    26    1
   127    71    72    2
   128   182   180    1
   129   157   158    2
   130   157   162   am
   131    96    95    1
   132    96    99    1
   133   180   181    1
   134   183   181    1
   135    15    14    2
   136   162   163    1
   137    99   100    1
   138   175   173    1
   139    90    89    2
   140   168   166    1
   141    14    13    1
   142    76    77    1
   143   101   100   ar
   144   163   166    1
   145   163   164    1
   146   100   102   ar
   147    80    77    1
   148    80    81    1
   149   169   170    1
   150   166   167    1
   151    13    16    1
   152    13    12    1
   153    89    88    1
   154    77    78    1
   155    16    17    1
   156   173   170    1
   157   173   174    1
   158   164   165    2
   159    19    17    1
   160   170   171    1
   161    81    83   ar
   162    81    82   ar
   163    83    85   ar
   164    93    91    1
   165    17    18    1
   166    78    79    2
   167    88    91    1
   168    88    87    1
   169    82    84   ar
   170    85    86   ar
   171    91    92    1
   172   171   172    2
   173    84    86   ar
   174    92    94    1
   175    10    11   ar
   176    10     8   ar
   177    11     9   ar
   178     4     3    2
   179     8     6   ar
   180     3     2    1
   181     9     7   ar
   182     6     7   ar
   183     6     5    1
   184     2     5    1
   185     2     1    1
