@<TRIPOS>MOLECULE
tmp/3lssB01.pdb
 188 174 0 0 0
SMALL
GASTEIGER

@<TRIPOS>ATOM
      1  N         15.9660   49.9110  115.6930 N.3   251  GLU251     -0.1245
      2  CA        14.9630   49.0380  115.1070 C.3   251  GLU251      0.1567
      3  C         15.1680   48.6720  113.6210 C.2   251  GLU251      0.2260
      4  O         14.8490   47.5550  113.2260 O.2   251  GLU251     -0.2867
      5  CB        13.5790   49.6670  115.3550 C.3   251  GLU251      0.0388
      6  CG        12.3650   48.8730  114.8440 C.3   251  GLU251      0.1160
      7  CD        11.0160   49.5370  115.2040 C.2   251  GLU251      0.3649
      8  OE1       10.7710   50.7050  114.7880 O.co2 251  GLU251     -0.2457
      9  OE2       10.2000   48.8750  115.8920 O.co2 251  GLU251     -0.2457
     10  N          7.0630   47.4690  110.3330 N.3   267  THR267     -0.1218
     11  CA         5.6190   47.2740  110.3820 C.3   267  THR267      0.1862
     12  C          5.0300   47.8200  109.0600 C.2   267  THR267      0.2287
     13  O          5.5690   48.7780  108.4880 O.2   267  THR267     -0.2866
     14  CB         4.9900   47.9920  111.5860 C.3   267  THR267      0.1770
     15  OG1        3.6100   48.1850  111.3380 O.3   267  THR267     -0.2211
     16  CG2        5.6180   49.3870  111.8460 C.3   267  THR267      0.0375
     17  N          2.5660   49.5960  108.8520 N.3   269  GLU269     -0.1245
     18  CA         2.1920   50.9960  109.2070 C.3   269  GLU269      0.1567
     19  C          3.0810   52.0110  108.5090 C.2   269  GLU269      0.2260
     20  O          2.6220   53.0570  108.0870 O.2   269  GLU269     -0.2867
     21  CB         2.2610   51.1750  110.7250 C.3   269  GLU269      0.0388
     22  CG         1.8810   52.5360  111.2700 C.3   269  GLU269      0.1160
     23  CD         2.4960   52.7960  112.6520 C.2   269  GLU269      0.3649
     24  OE1        2.8910   51.8250  113.3380 O.co2 269  GLU269     -0.2457
     25  OE2        2.5930   53.9730  113.0470 O.co2 269  GLU269     -0.2457
     26  N         12.9050   43.7500  112.5600 N.3   298  ARG298     -0.1245
     27  CA        13.3460   44.5510  113.6970 C.3   298  ARG298      0.1563
     28  C         14.6780   44.1000  114.2240 C.2   298  ARG298      0.2260
     29  O         14.8350   42.9270  114.5690 O.2   298  ARG298     -0.2867
     30  CB        12.3120   44.4400  114.8140 C.3   298  ARG298      0.0307
     31  CG        10.9680   44.8180  114.3380 C.3   298  ARG298      0.0489
     32  CD        10.0740   45.2950  115.3980 C.3   298  ARG298      0.2205
     33  NE         8.8050   45.6700  114.7860 N.pl3 298  ARG298     -0.0865
     34  CZ         7.8430   46.3320  115.4090 C.cat 298  ARG298      0.5346
     35  NH1        8.0000   46.7000  116.6870 N.pl3 298  ARG298      0.1354
     36  NH2        6.7220   46.6090  114.7550 N.pl3 298  ARG298      0.1354
     37  N         15.9350   44.9320  117.0410 N.3   300  GLU300     -0.1245
     38  CA        15.8230   44.7120  118.4970 C.3   300  GLU300      0.1567
     39  C         17.1370   45.0640  119.1790 C.2   300  GLU300      0.2260
     40  O         17.6740   44.2820  119.9840 O.2   300  GLU300     -0.2867
     41  CB        15.3950   43.2690  118.8240 C.3   300  GLU300      0.0388
     42  CG        13.9840   42.9190  118.3020 C.3   300  GLU300      0.1160
     43  CD        12.8440   43.6160  119.0670 C.2   300  GLU300      0.3649
     44  OE1       12.9590   43.7910  120.3000 O.co2 300  GLU300     -0.2457
     45  OE2       11.8280   43.9760  118.4350 O.co2 300  GLU300     -0.2457
     46  N          8.8940   34.3180  120.3220 N.3   312  PHE312     -0.1227
     47  CA         8.1230   35.3820  120.9170 C.3   312  PHE312      0.1736
     48  C          8.6550   36.7590  120.5270 C.2   312  PHE312      0.2595
     49  O          7.8730   37.6800  120.2600 O.2   312  PHE312     -0.2718
     50  CB         8.0880   35.2480  122.4340 C.3   312  PHE312      0.0547
     51  CG         7.2090   36.2700  123.0950 C.ar  312  PHE312     -0.0202
     52  CD1        7.7400   37.4630  123.5710 C.ar  312  PHE312     -0.0042
     53  CD2        5.8470   36.0450  123.2320 C.ar  312  PHE312     -0.0042
     54  CE1        6.9310   38.4140  124.1890 C.ar  312  PHE312     -0.0003
     55  CE2        5.0290   36.9920  123.8520 C.ar  312  PHE312     -0.0003
     56  CZ         5.5770   38.1860  124.3210 C.ar  312  PHE312     -0.0000
     57  N          9.9770   36.9010  120.4890 N.am  313  ARG313     -0.1966
     58  CA        10.6160   38.1770  120.1260 C.3   313  ARG313      0.1729
     59  C         11.7380   37.8520  119.1680 C.2   313  ARG313      0.2616
     60  O         12.8230   37.3920  119.5750 O.2   313  ARG313     -0.2715
     61  CB        11.1660   38.8980  121.3750 C.3   313  ARG313      0.0348
     62  CG        11.7510   40.3010  121.0840 C.3   313  ARG313      0.0492
     63  CD        12.2530   41.0400  122.3660 C.3   313  ARG313      0.2205
     64  NE        11.1710   41.4760  123.2540 N.pl3 313  ARG313     -0.0865
     65  CZ        10.3400   42.5000  123.0220 C.cat 313  ARG313      0.5346
     66  NH1       10.4300   43.2310  121.9170 N.pl3 313  ARG313      0.1354
     67  NH2        9.3970   42.7990  123.9070 N.pl3 313  ARG313      0.1354
     68  N         11.4740   38.0760  117.8980 N.am  314  VAL314     -0.1977
     69  CA        12.3760   37.6920  116.8430 C.3   314  VAL314      0.1596
     70  C         12.6380   38.8760  115.9380 C.2   314  VAL314      0.2287
     71  O         12.0110   39.9200  116.0940 O.2   314  VAL314     -0.2864
     72  CB        11.7980   36.5250  116.0470 C.3   314  VAL314      0.0276
     73  CG1       11.8330   35.2510  116.8940 C.3   314  VAL314      0.0022
     74  CG2       10.3860   36.8620  115.5710 C.3   314  VAL314      0.0022
     75  N          9.0310   38.5980  111.3680 N.3   317  PHE317     -0.1241
     76  CA         7.7360   37.9970  111.6350 C.3   317  PHE317      0.1605
     77  C          6.6600   38.6170  110.7770 C.2   317  PHE317      0.2264
     78  O          6.7430   39.8060  110.4270 O.2   317  PHE317     -0.2867
     79  CB         7.3510   38.1520  113.1130 C.3   317  PHE317      0.0534
     80  CG         7.3030   39.5470  113.5800 C.ar  317  PHE317     -0.0203
     81  CD1        8.4720   40.2030  113.9660 C.ar  317  PHE317     -0.0042
     82  CD2        6.0840   40.2230  113.6710 C.ar  317  PHE317     -0.0042
     83  CE1        8.4310   41.5200  114.4100 C.ar  317  PHE317     -0.0003
     84  CE2        6.0320   41.5200  114.1470 C.ar  317  PHE317     -0.0003
     85  CZ         7.2130   42.1800  114.4990 C.ar  317  PHE317     -0.0000
     86  N          2.8790   40.0370  110.1130 N.3   319  LYS319     -0.1245
     87  CA         1.8960   40.7690  110.8690 C.3   319  LYS319      0.1561
     88  C          0.7760   41.2790  109.9710 C.2   319  LYS319      0.2260
     89  O          0.9940   41.6680  108.8360 O.2   319  LYS319     -0.2867
     90  CB         2.5630   41.9140  111.6760 C.3   319  LYS319      0.0271
     91  CG         1.6110   42.7460  112.5310 C.3   319  LYS319      0.0035
     92  CD         2.3290   43.6580  113.5680 C.3   319  LYS319      0.0206
     93  CE         3.1440   44.8120  112.9320 C.3   319  LYS319      0.1093
     94  NZ         2.3620   45.8030  112.0760 N.3   319  LYS319     -0.1314
     95  N         -2.0470   44.1450  110.0440 N.3   321  GLU321     -0.1245
     96  CA        -2.2090   45.4360  110.7120 C.3   321  GLU321      0.1567
     97  C         -3.4600   46.1660  110.2520 C.2   321  GLU321      0.2260
     98  O         -3.7960   46.1100  109.0790 O.2   321  GLU321     -0.2867
     99  CB        -0.9840   46.2910  110.3820 C.3   321  GLU321      0.0388
    100  CG        -0.9460   47.6410  111.0260 C.3   321  GLU321      0.1160
    101  CD        -0.3510   47.6210  112.4340 C.2   321  GLU321      0.3649
    102  OE1       -0.0210   46.5150  112.9300 O.co2 321  GLU321     -0.2457
    103  OE2       -0.1950   48.7190  113.0270 O.co2 321  GLU321     -0.2457
    104  N          4.4850   56.2770  123.2200 N.3   366  ASN366     -0.1240
    105  CA         5.4280   56.7730  122.2250 C.3   366  ASN366      0.1653
    106  C          4.9450   58.1450  121.7390 C.2   366  ASN366      0.2266
    107  O          3.7620   58.4590  121.8600 O.2   366  ASN366     -0.2867
    108  CB         5.5300   55.7930  121.0430 C.3   366  ASN366      0.1155
    109  CG         4.1780   55.4330  120.4580 C.2   366  ASN366      0.2627
    110  OD1        3.3210   54.8520  121.1400 O.2   366  ASN366     -0.2716
    111  ND2        3.9860   55.7420  119.1900 N.am  366  ASN366     -0.0877
    112  N         -3.2530   55.0710  123.4690 N.3   372  LYS372     -0.1245
    113  CA        -2.9610   53.7320  123.0170 C.3   372  LYS372      0.1561
    114  C         -3.6300   52.7010  123.9110 C.2   372  LYS372      0.2260
    115  O         -3.5890   52.8280  125.1250 O.2   372  LYS372     -0.2867
    116  CB        -1.4450   53.5020  122.9890 C.3   372  LYS372      0.0271
    117  CG        -1.0520   52.1860  122.3470 C.3   372  LYS372      0.0035
    118  CD         0.4100   51.8790  122.5410 C.3   372  LYS372      0.0206
    119  CE         1.2720   52.5550  121.5310 C.3   372  LYS372      0.1093
    120  NZ         2.7120   52.1920  121.7430 N.3   372  LYS372     -0.1314
    121  N         -3.3370   48.5710  124.5980 N.3   374  ASP374     -0.1239
    122  CA        -2.7180   47.2710  124.3150 C.3   374  ASP374      0.1674
    123  C         -3.6550   46.1330  124.7030 C.2   374  ASP374      0.2266
    124  O         -4.3830   46.2410  125.6850 O.2   374  ASP374     -0.2867
    125  CB        -1.4280   47.0920  125.1030 C.3   374  ASP374      0.1410
    126  CG        -0.2480   47.8750  124.5210 C.2   374  ASP374      0.3668
    127  OD1       -0.4330   48.7300  123.6280 O.co2 374  ASP374     -0.2456
    128  OD2        0.8720   47.6420  125.0130 O.co2 374  ASP374     -0.2456
    129  N          1.8630   41.2560  125.7930 N.3   387  GLU387     -0.1231
    130  CA         1.3160   42.0620  124.7350 C.3   387  GLU387      0.1699
    131  C          1.2450   41.2840  123.4170 C.2   387  GLU387      0.2592
    132  O          2.2300   40.6980  122.9860 O.2   387  GLU387     -0.2718
    133  CB         2.1800   43.3000  124.5520 C.3   387  GLU387      0.0402
    134  CG         1.6480   44.2380  123.4870 C.3   387  GLU387      0.1161
    135  CD         2.6700   45.2840  123.0400 C.2   387  GLU387      0.3649
    136  OE1        3.4900   45.6980  123.8770 O.co2 387  GLU387     -0.2457
    137  OE2        2.6480   45.6890  121.8540 O.co2 387  GLU387     -0.2457
    138  N          0.0620   41.2600  122.8130 N.am  388  LEU388     -0.1966
    139  CA        -0.1300   40.7420  121.4660 C.3   388  LEU388      0.1728
    140  C         -0.4550   41.8550  120.4760 C.2   388  LEU388      0.2616
    141  O         -0.1240   41.7280  119.3080 O.2   388  LEU388     -0.2715
    142  CB        -1.2870   39.7330  121.3990 C.3   388  LEU388      0.0311
    143  CG        -1.0620   38.3290  121.9140 C.3   388  LEU388      0.0022
    144  CD1       -2.2160   37.4240  121.4180 C.3   388  LEU388      0.0001
    145  CD2        0.2820   37.8190  121.4810 C.3   388  LEU388      0.0001
    146  N         -1.0600   42.9390  120.9640 N.am  389  VAL389     -0.1963
    147  CA        -1.6700   43.9680  120.1190 C.3   389  VAL389      0.1727
    148  C         -1.4810   45.3300  120.7450 C.2   389  VAL389      0.2616
    149  O         -1.5880   45.4510  121.9610 O.2   389  VAL389     -0.2715
    150  CB        -3.2130   43.7220  119.9980 C.3   389  VAL389      0.0290
    151  CG1       -3.9880   44.9790  119.4910 C.3   389  VAL389      0.0023
    152  CG2       -3.4890   42.4950  119.1400 C.3   389  VAL389      0.0023
    153  N         -1.1920   46.3470  119.9270 N.am  390  SER390     -0.1950
    154  CA        -1.3240   47.7360  120.3560 C.3   390  SER390      0.1924
    155  C         -2.1640   48.4600  119.3270 C.2   390  SER390      0.2314
    156  O         -1.9980   48.2230  118.1310 O.2   390  SER390     -0.2863
    157  CB         0.0350   48.4580  120.4020 C.3   390  SER390      0.2116
    158  OG         1.0140   47.7630  121.1410 O.3   390  SER390     -0.2180
    159  N         -2.4420   46.6040  115.6960 N.3   428  THR428     -0.1218
    160  CA        -2.2180   45.2090  115.3630 C.3   428  THR428      0.1862
    161  C         -3.5530   44.4850  115.3080 C.2   428  THR428      0.2287
    162  O         -4.3940   44.6740  116.1820 O.2   428  THR428     -0.2866
    163  CB        -1.4050   44.5090  116.4560 C.3   428  THR428      0.1770
    164  OG1       -0.3810   45.3860  116.9250 O.3   428  THR428     -0.2211
    165  CG2       -0.8100   43.1800  115.9210 C.3   428  THR428      0.0375
    166  N         -0.1590   39.6560  115.1670 N.3   431  ALA431     -0.1245
    167  CA         1.2780   39.4120  115.0570 C.3   431  ALA431      0.1562
    168  C          1.4330   37.8970  115.1380 C.2   431  ALA431      0.2260
    169  O          1.1390   37.2720  116.1820 O.2   431  ALA431     -0.2867
    170  CB         2.0220   40.0960  116.1760 C.3   431  ALA431      0.0290
    171  N          3.7330   35.2260  114.9310 N.3   433  THR433     -0.1203
    172  CA         4.5340   34.3420  115.7850 C.3   433  THR433      0.1994
    173  C          4.1070   34.4230  117.2640 C.2   433  THR433      0.2617
    174  O          4.0300   33.3950  117.9480 O.2   433  THR433     -0.2717
    175  CB         6.0770   34.5350  115.6260 C.3   433  THR433      0.1784
    176  OG1        6.4680   35.8030  116.1250 O.3   433  THR433     -0.2211
    177  CG2        6.5060   34.3860  114.1530 C.3   433  THR433      0.0376
    178  N          3.8020   35.6170  117.7590 N.am  434  ARG434     -0.1979
    179  CA         3.3470   35.7220  119.1460 C.3   434  ARG434      0.1597
    180  C          1.9980   35.0850  119.3820 C.2   434  ARG434      0.2287
    181  O          1.7700   34.4950  120.4260 O.2   434  ARG434     -0.2864
    182  CB         3.2720   37.1620  119.6170 C.3   434  ARG434      0.0334
    183  CG         4.5670   37.7470  119.8870 C.3   434  ARG434      0.0492
    184  CD         4.4830   38.8460  120.9400 C.3   434  ARG434      0.2205
    185  NE         5.8040   39.4110  121.0520 N.pl3 434  ARG434     -0.0865
    186  CZ         6.1000   40.5480  121.6420 C.cat 434  ARG434      0.5346
    187  NH1        5.1470   41.2980  122.2190 N.pl3 434  ARG434      0.1354
    188  NH2        7.3730   40.9170  121.6610 N.pl3 434  ARG434      0.1354
@<TRIPOS>BOND
     1    20    19    2
     2    13    12    2
     3    19    18    1
     4    89    88    2
     5    17    18    1
     6    12    11    1
     7    98    97    2
     8    18    21    1
     9    88    87    1
    10    95    96    1
    11    86    87    1
    12    97    96    1
    13    10    11    1
    14    11    14    1
    15    99    96    1
    16    99   100    1
    17    78    77    2
    18    21    22    1
    19    77    76    1
    20    87    90    1
    21   100   101    1
    22    22    23    1
    23    15    14    1
    24    75    76    1
    25    14    16    1
    26    76    79    1
    27    90    91    1
    28    94    93    1
    29   101   102   ar
    30   101   103   ar
    31    91    92    1
    32    26    27    1
    33    23    25   ar
    34    23    24   ar
    35    93    92    1
    36    79    80    1
    37     4     3    2
    38    80    82   ar
    39    80    81   ar
    40     3     2    1
    41    82    84   ar
    42    27    28    1
    43    27    30    1
    44    81    83   ar
    45    84    85   ar
    46   177   175    1
    47    28    29    2
    48    31    30    1
    49    31    32    1
    50    83    85   ar
    51    36    34    1
    52    33    32    1
    53    33    34    2
    54     8     7   ar
    55     6     7    1
    56     6     5    1
    57   171   172    1
    58   167   168    1
    59   167   166    1
    60   167   170    1
    61     2     5    1
    62     2     1    1
    63   168   169    2
    64     7     9   ar
    65   161   160    1
    66   161   162    2
    67   160   159    1
    68   160   163    1
    69    34    35    1
    70    74    72    1
    71   175   172    1
    72   175   176    1
    73   172   173    1
    74   165   163    1
    75    70    71    2
    76    70    69    1
    77    72    69    1
    78    72    73    1
    79   163   164    1
    80    69    68    1
    81    37    38    1
    82   173   178   am
    83   173   174    2
    84   178   179    1
    85    68    59   am
    86   156   155    2
    87    42    41    1
    88    42    43    1
    89    45    43   ar
    90    38    41    1
    91    38    39    1
    92    43    44   ar
    93   152   150    1
    94   179   180    1
    95   179   182    1
    96    59    60    2
    97    59    58    1
    98    39    40    2
    99   111   109   am
   100   141   140    2
   101   155   154    1
   102   180   181    2
   103   151   150    1
   104   182   183    1
   105   183   184    1
   106   153   154    1
   107   153   148   am
   108   150   147    1
   109   147   148    1
   110   147   146    1
   111    58    57    1
   112    58    61    1
   113    49    48    2
   114    46    47    1
   115   154   157    1
   116   157   158    1
   117   109   108    1
   118   109   110    2
   119   140   146   am
   120   140   139    1
   121    57    48   am
   122    48    47    1
   123   148   149    2
   124    47    50    1
   125   184   185    1
   126   108   105    1
   127   185   186    2
   128    62    61    1
   129    62    63    1
   130   142   139    1
   131   142   143    1
   132   144   143    1
   133   139   138    1
   134   145   143    1
   135   119   120    1
   136   119   118    1
   137   186   188    1
   138   186   187    1
   139   106   107    2
   140   106   105    1
   141   137   135   ar
   142    66    65    1
   143   105   104    1
   144   117   118    1
   145   117   116    1
   146    63    64    1
   147    50    51    1
   148   138   131   am
   149   132   131    2
   150   116   113    1
   151   113   112    1
   152   113   114    1
   153    65    64    2
   154    65    67    1
   155   135   134    1
   156   135   136   ar
   157    51    53   ar
   158    51    52   ar
   159    53    55   ar
   160   131   130    1
   161   134   133    1
   162    52    54   ar
   163   127   126   ar
   164    55    56   ar
   165   114   115    2
   166    54    56   ar
   167   122   121    1
   168   122   123    1
   169   122   125    1
   170   126   128   ar
   171   126   125    1
   172   133   130    1
   173   123   124    2
   174   130   129    1
