@<TRIPOS>MOLECULE
tmp/3lstA00.pdb
 172 168 0 0 0
SMALL
GASTEIGER

@<TRIPOS>ATOM
      1  N         40.7800   66.6360  112.3480 N.3   148  SER148     -0.1217
      2  CA        41.4420   67.3010  111.2300 C.3   148  SER148      0.1889
      3  C         42.2870   68.4810  111.6980 C.2   148  SER148      0.2288
      4  O         43.3700   68.7310  111.1690 O.2   148  SER148     -0.2866
      5  CB        40.4270   67.7650  110.1890 C.3   148  SER148      0.2089
      6  OG        39.9260   66.6660  109.4510 O.3   148  SER148     -0.2183
      7  N         46.5160   69.6670  110.7110 N.3   152  HIS152     -0.1241
      8  CA        46.6310   70.7800  109.7700 C.3   152  HIS152      0.1621
      9  C         48.0180   71.4230  109.6910 C.2   152  HIS152      0.2264
     10  O         48.5800   71.5570  108.6060 O.2   152  HIS152     -0.2867
     11  CB        45.5610   71.8340  110.0570 C.3   152  HIS152      0.0745
     12  CG        44.1850   71.4110  109.6530 C.ar  152  HIS152      0.0817
     13  ND1       43.0440   72.0180  110.1350 N.ar  152  HIS152     -0.2268
     14  CD2       43.7650   70.4370  108.8120 C.ar  152  HIS152      0.1154
     15  CE1       41.9830   71.4380  109.6050 C.ar  152  HIS152      0.1986
     16  NE2       42.3930   70.4760  108.7960 N.ar  152  HIS152     -0.2212
     17  N         40.8760   74.8200   98.2290 N.3   169  ASP169     -0.1239
     18  CA        40.6210   73.6540   99.0580 C.3   169  ASP169      0.1674
     19  C         39.2870   73.0570   98.6370 C.2   169  ASP169      0.2266
     20  O         38.2270   73.4750   99.1010 O.2   169  ASP169     -0.2867
     21  CB        40.6210   74.0140  100.5470 C.3   169  ASP169      0.1410
     22  CG        40.8480   72.8010  101.4400 C.2   169  ASP169      0.3668
     23  OD1       40.7170   71.6620  100.9430 O.co2 169  ASP169     -0.2456
     24  OD2       41.1620   72.9830  102.6370 O.co2 169  ASP169     -0.2456
     25  N         36.3200   70.9200   98.6780 N.3   171  GLY171     -0.1210
     26  CA        35.6740   70.1860   99.7490 C.3   171  GLY171      0.1956
     27  C         36.4110   70.4090  101.0560 C.2   171  GLY171      0.2612
     28  O         36.6110   69.4790  101.8350 O.2   171  GLY171     -0.2717
     29  N         36.8120   71.6530  101.2970 N.am  172  GLY172     -0.1942
     30  CA        37.6490   71.9790  102.4340 C.3   172  GLY172      0.2014
     31  C         36.9230   72.1130  103.7590 C.2   172  GLY172      0.2639
     32  O         37.4850   72.6230  104.7270 O.2   172  GLY172     -0.2714
     33  N         35.6760   71.6570  103.8080 N.am  173  GLY173     -0.1954
     34  CA        34.8900   71.7280  105.0270 C.3   173  GLY173      0.1869
     35  C         34.6270   73.1510  105.4750 C.2   173  GLY173      0.2309
     36  O         34.2150   73.9930  104.6800 O.2   173  GLY173     -0.2863
     37  N         41.7120   73.8070  107.2720 N.3   177  PHE177     -0.1241
     38  CA        43.0000   73.5430  106.6480 C.3   177  PHE177      0.1605
     39  C         43.4600   74.7200  105.7870 C.2   177  PHE177      0.2264
     40  O         44.6110   75.1540  105.8800 O.2   177  PHE177     -0.2867
     41  CB        42.9880   72.2430  105.8450 C.3   177  PHE177      0.0534
     42  CG        44.3280   71.9020  105.2460 C.ar  177  PHE177     -0.0203
     43  CD1       45.4610   71.8310  106.0470 C.ar  177  PHE177     -0.0042
     44  CD2       44.4590   71.6620  103.8850 C.ar  177  PHE177     -0.0042
     45  CE1       46.7020   71.5280  105.4980 C.ar  177  PHE177     -0.0003
     46  CE2       45.6960   71.3520  103.3290 C.ar  177  PHE177     -0.0003
     47  CZ        46.8200   71.2850  104.1360 C.ar  177  PHE177     -0.0000
     48  N         35.8130   75.6640   98.8010 N.3   193  LEU193     -0.1231
     49  CA        34.6360   75.0850   98.1630 C.3   193  LEU193      0.1693
     50  C         34.0670   73.9300   98.9830 C.2   193  LEU193      0.2592
     51  O         34.8010   73.0540   99.4350 O.2   193  LEU193     -0.2718
     52  CB        34.9530   74.6250   96.7360 C.3   193  LEU193      0.0284
     53  CG        33.7950   74.0180   95.9320 C.3   193  LEU193      0.0019
     54  CD1       34.0250   74.1350   94.4300 C.3   193  LEU193      0.0001
     55  CD2       33.5520   72.5670   96.3220 C.3   193  LEU193      0.0001
     56  N         32.7530   73.9390   99.1700 N.am  194  ASP194     -0.1960
     57  CA        32.0560   72.8460   99.8340 C.3   194  ASP194      0.1840
     58  C         30.5510   73.0470   99.6670 C.2   194  ASP194      0.2621
     59  O         30.1160   73.9980   99.0210 O.2   194  ASP194     -0.2715
     60  CB        32.4410   72.7740  101.3160 C.3   194  ASP194      0.1450
     61  CG        32.3790   71.3570  101.8700 C.2   194  ASP194      0.3671
     62  OD1       31.2640   70.8050  101.9780 O.co2 194  ASP194     -0.2456
     63  OD2       33.4460   70.7910  102.1960 O.co2 194  ASP194     -0.2456
     64  N         29.7590   72.1470  100.2350 N.am  195  ARG195     -0.1977
     65  CA        28.3120   72.2590  100.1340 C.3   195  ARG195      0.1597
     66  C         27.8510   73.5420  100.8140 C.2   195  ARG195      0.2287
     67  O         28.5220   74.0470  101.7190 O.2   195  ARG195     -0.2864
     68  CB        27.6320   71.0400  100.7550 C.3   195  ARG195      0.0334
     69  CG        28.2550   69.7100  100.3440 C.3   195  ARG195      0.0492
     70  CD        27.3750   68.5350  100.7450 C.3   195  ARG195      0.2205
     71  NE        26.7650   68.7290  102.0580 N.pl3 195  ARG195     -0.0865
     72  CZ        27.2130   68.1830  103.1850 C.cat 195  ARG195      0.5346
     73  NH1       28.2800   67.3950  103.1660 N.pl3 195  ARG195      0.1354
     74  NH2       26.5900   68.4210  104.3320 N.pl3 195  ARG195      0.1354
     75  N         27.5840   73.7940  104.5330 N.3   198  VAL198     -0.1245
     76  CA        28.8890   73.7220  105.1860 C.3   198  VAL198      0.1561
     77  C         29.6300   75.0570  105.1440 C.2   198  VAL198      0.2260
     78  O         30.0990   75.5440  106.1720 O.2   198  VAL198     -0.2867
     79  CB        29.7840   72.6250  104.5770 C.3   198  VAL198      0.0252
     80  CG1       31.1900   72.7000  105.1670 C.3   198  VAL198      0.0019
     81  CG2       29.1740   71.2540  104.8090 C.3   198  VAL198      0.0019
     82  N         29.4600   74.9110   96.1150 N.3   218  GLY218     -0.1210
     83  CA        29.6270   74.1400   94.8980 C.3   218  GLY218      0.1956
     84  C         29.4690   72.6410   95.0490 C.2   218  GLY218      0.2612
     85  O         29.1140   72.1300   96.1110 O.2   218  GLY218     -0.2717
     86  N         29.7400   71.9340   93.9600 N.am  219  ASP219     -0.1959
     87  CA        29.6530   70.4840   93.9290 C.3   219  ASP219      0.1840
     88  C         30.8380   69.9800   93.1240 C.2   219  ASP219      0.2622
     89  O         30.8210   70.0280   91.8940 O.2   219  ASP219     -0.2715
     90  CB        28.3380   70.0560   93.2760 C.3   219  ASP219      0.1450
     91  CG        28.2640   68.5630   93.0250 C.2   219  ASP219      0.3671
     92  OD1       29.1190   67.8220   93.5530 O.co2 219  ASP219     -0.2456
     93  OD2       27.3450   68.1320   92.2980 O.co2 219  ASP219     -0.2456
     94  N         31.8750   69.5120   93.8120 N.am  220  PHE220     -0.1960
     95  CA        33.1060   69.1390   93.1220 C.3   220  PHE220      0.1771
     96  C         32.9270   67.9570   92.1670 C.2   220  PHE220      0.2619
     97  O         33.8420   67.6150   91.4210 O.2   220  PHE220     -0.2715
     98  CB        34.2740   68.9160   94.0970 C.3   220  PHE220      0.0574
     99  CG        33.9910   67.9260   95.1950 C.ar  220  PHE220     -0.0200
    100  CD1       33.4050   66.7010   94.9190 C.ar  220  PHE220     -0.0042
    101  CD2       34.3530   68.2090   96.5040 C.ar  220  PHE220     -0.0042
    102  CE1       33.1590   65.7890   95.9320 C.ar  220  PHE220     -0.0003
    103  CE2       34.1130   67.3020   97.5200 C.ar  220  PHE220     -0.0003
    104  CZ        33.5140   66.0910   97.2340 C.ar  220  PHE220     -0.0000
    105  N         31.7470   67.3430   92.1870 N.am  221  LEU221     -0.1977
    106  CA        31.4040   66.3260   91.1990 C.3   221  LEU221      0.1596
    107  C         31.1690   66.9710   89.8350 C.2   221  LEU221      0.2287
    108  O         31.3700   66.3400   88.7980 O.2   221  LEU221     -0.2864
    109  CB        30.1580   65.5440   91.6270 C.3   221  LEU221      0.0297
    110  CG        30.3050   64.5700   92.7990 C.3   221  LEU221      0.0022
    111  CD1       28.9450   64.0410   93.2360 C.3   221  LEU221      0.0001
    112  CD2       31.2420   63.4230   92.4400 C.3   221  LEU221      0.0001
    113  N         41.5660   66.9630  100.5750 N.3   233  LYS233     -0.1231
    114  CA        41.9000   66.2820  101.8260 C.3   233  LYS233      0.1693
    115  C         40.7080   65.5270  102.3950 C.2   233  LYS233      0.2592
    116  O         39.6400   66.1000  102.5980 O.2   233  LYS233     -0.2718
    117  CB        42.4500   67.2660  102.8650 C.3   233  LYS233      0.0285
    118  CG        42.9420   66.5930  104.1500 C.3   233  LYS233      0.0035
    119  CD        43.8610   67.5050  104.9560 C.3   233  LYS233      0.0206
    120  CE        43.0890   68.5080  105.7890 C.3   233  LYS233      0.1093
    121  NZ        42.5390   67.9020  107.0350 N.3   233  LYS233     -0.1314
    122  N         40.9030   64.2390  102.6600 N.am  234  ARG234     -0.1966
    123  CA        39.8290   63.3890  103.1600 C.3   234  ARG234      0.1729
    124  C         38.6130   63.4600  102.2400 C.2   234  ARG234      0.2616
    125  O         37.4700   63.5110  102.6960 O.2   234  ARG234     -0.2715
    126  CB        39.4530   63.7790  104.5890 C.3   234  ARG234      0.0348
    127  CG        40.6010   63.6330  105.5660 C.3   234  ARG234      0.0492
    128  CD        40.2310   64.1090  106.9570 C.3   234  ARG234      0.2205
    129  NE        41.3080   63.8370  107.9060 N.pl3 234  ARG234     -0.0865
    130  CZ        41.3870   62.7390  108.6500 C.cat 234  ARG234      0.5346
    131  NH1       40.4430   61.8090  108.5680 N.pl3 234  ARG234      0.1354
    132  NH2       42.4040   62.5740  109.4820 N.pl3 234  ARG234      0.1354
    133  N         38.8780   63.4680  100.9380 N.am  235  ILE235     -0.1977
    134  CA        37.8220   63.4800   99.9430 C.3   235  ILE235      0.1596
    135  C         37.7370   62.1320   99.2360 C.2   235  ILE235      0.2287
    136  O         36.7460   61.4150   99.3610 O.2   235  ILE235     -0.2864
    137  CB        38.0510   64.5830   98.8880 C.3   235  ILE235      0.0276
    138  CG1       38.1440   65.9570   99.5560 C.3   235  ILE235      0.0022
    139  CG2       36.9450   64.5570   97.8410 C.3   235  ILE235      0.0022
    140  CD1       36.9270   66.3230  100.3920 C.3   235  ILE235      0.0001
    141  N         38.7780   59.2700   99.6670 N.3   237  HIS237     -0.1226
    142  CA        38.5620   58.0570  100.4450 C.3   237  HIS237      0.1752
    143  C         37.0810   57.7930  100.7360 C.2   237  HIS237      0.2596
    144  O         36.7210   56.7220  101.2150 O.2   237  HIS237     -0.2718
    145  CB        39.4090   58.0670  101.7280 C.3   237  HIS237      0.0759
    146  CG        38.8580   58.9250  102.8280 C.ar  237  HIS237      0.0818
    147  ND1       39.2340   58.7700  104.1470 N.ar  237  HIS237     -0.2268
    148  CD2       37.9580   59.9370  102.8110 C.ar  237  HIS237      0.1154
    149  CE1       38.5920   59.6500  104.8920 C.ar  237  HIS237      0.1986
    150  NE2       37.8120   60.3710  104.1070 N.ar  237  HIS237     -0.2212
    151  N         36.2290   58.7670  100.4310 N.am  238  ASN238     -0.1960
    152  CA        34.7860   58.5990  100.5760 C.3   238  ASN238      0.1819
    153  C         34.1510   58.1200   99.2820 C.2   238  ASN238      0.2621
    154  O         33.0160   57.6440   99.2730 O.2   238  ASN238     -0.2715
    155  CB        34.1230   59.9200  100.9610 C.3   238  ASN238      0.1195
    156  CG        34.6210   60.4650  102.2750 C.2   238  ASN238      0.2630
    157  OD1       35.0820   61.6030  102.3470 O.2   238  ASN238     -0.2716
    158  ND2       34.5230   59.6620  103.3280 N.am  238  ASN238     -0.0877
    159  N         34.8870   58.2570   98.1850 N.am  239  TRP239     -0.1974
    160  CA        34.3150   58.0480   96.8620 C.3   239  TRP239      0.1640
    161  C         34.8090   56.7830   96.1800 C.2   239  TRP239      0.2290
    162  O         35.9730   56.4020   96.3080 O.2   239  TRP239     -0.2864
    163  CB        34.5920   59.2620   95.9760 C.3   239  TRP239      0.0576
    164  CG        34.0170   60.5130   96.5430 C.ar  239  TRP239      0.0006
    165  CD1       34.6590   61.4400   97.3110 C.ar  239  TRP239      0.0946
    166  CD2       32.6650   60.9640   96.4120 C.ar  239  TRP239      0.0152
    167  NE1       33.7930   62.4430   97.6570 N.ar  239  TRP239     -0.2442
    168  CE2       32.5630   62.1770   97.1170 C.ar  239  TRP239      0.0810
    169  CE3       31.5330   60.4620   95.7610 C.ar  239  TRP239      0.0012
    170  CZ2       31.3720   62.8990   97.1890 C.ar  239  TRP239      0.0191
    171  CZ3       30.3550   61.1760   95.8330 C.ar  239  TRP239      0.0001
    172  CH2       30.2820   62.3830   96.5430 C.ar  239  TRP239      0.0015
@<TRIPOS>BOND
     1   108   107    2
     2   107   106    1
     3   106   109    1
     4   106   105    1
     5    97    96    2
     6   109   110    1
     7    89    88    2
     8    96   105   am
     9    96    95    1
    10    93    91   ar
    11   112   110    1
    12   110   111    1
    13    91    90    1
    14    91    92   ar
    15    95    94    1
    16    95    98    1
    17    88    94   am
    18    88    87    1
    19    90    87    1
    20    87    86    1
    21    86    84   am
    22    98    99    1
    23    54    53    1
    24    83    84    1
    25    83    82    1
    26   100    99   ar
    27   100   102   ar
    28    84    85    2
    29    99   101   ar
    30   169   171   ar
    31   169   166   ar
    32   171   172   ar
    33    53    55    1
    34    53    52    1
    35   102   104   ar
    36   163   164    1
    37   163   160    1
    38   161   162    2
    39   161   160    1
    40   166   164   ar
    41   166   168   ar
    42   101   103   ar
    43   164   165   ar
    44   172   170   ar
    45    52    49    1
    46   160   159    1
    47   168   170   ar
    48   168   167   ar
    49   104   103   ar
    50   165   167   ar
    51   139   137    1
    52    49    48    1
    53    49    50    1
    54   159   153   am
    55    17    18    1
    56    19    18    1
    57    19    20    2
    58    25    26    1
    59   137   138    1
    60   137   134    1
    61    50    56   am
    62    50    51    2
    63    59    58    2
    64    18    21    1
    65    56    57    1
    66   135   136    2
    67   135   134    1
    68   154   153    2
    69   153   152    1
    70   138   140    1
    71   141   142    1
    72    58    57    1
    73    58    64   am
    74    26    27    1
    75    57    60    1
    76   134   133    1
    77    65    64    1
    78    65    68    1
    79    65    66    1
    80    69    70    1
    81    69    68    1
    82   151   152    1
    83   151   143   am
    84   142   143    1
    85   142   145    1
    86    21    22    1
    87   113   114    1
    88   152   155    1
    89   143   144    2
    90    70    71    1
    91    66    67    2
    92   133   124   am
    93    23    22   ar
    94   155   156    1
    95    27    29   am
    96    27    28    2
    97    29    30    1
    98    60    61    1
    99    22    24   ar
   100   145   146    1
   101   114   115    1
   102   114   117    1
   103    61    62   ar
   104    61    63   ar
   105    71    72    2
   106   124   125    2
   107   124   123    1
   108   156   157    2
   109   156   158   am
   110   115   116    2
   111   115   122   am
   112    30    31    1
   113   122   123    1
   114   148   146   ar
   115   148   150   ar
   116   146   147   ar
   117   117   118    1
   118   123   126    1
   119    73    72    1
   120    72    74    1
   121    46    44   ar
   122    46    47   ar
   123    31    33   am
   124    31    32    2
   125    33    34    1
   126    44    42   ar
   127   150   149   ar
   128    47    45   ar
   129   147   149   ar
   130   118   119    1
   131    75    76    1
   132    79    81    1
   133    79    80    1
   134    79    76    1
   135   126   127    1
   136    36    35    2
   137   119   120    1
   138    34    35    1
   139    77    76    1
   140    77    78    2
   141    42    41    1
   142    42    43   ar
   143    45    43   ar
   144   127   128    1
   145    39    40    2
   146    39    38    1
   147   120   121    1
   148    41    38    1
   149    38    37    1
   150   128   129    1
   151   129   130    2
   152   131   130    1
   153    10     9    2
   154   130   132    1
   155    16    14   ar
   156    16    15   ar
   157    14    12   ar
   158     6     5    1
   159    15    13   ar
   160    12    11    1
   161    12    13   ar
   162     9     8    1
   163     8    11    1
   164     8     7    1
   165     5     2    1
   166     4     3    2
   167     2     3    1
   168     2     1    1
