@<TRIPOS>MOLECULE
tmp/3lsyA01.pdb
 138 130 0 0 0
SMALL
GASTEIGER

@<TRIPOS>ATOM
      1  N         49.8600   85.8650   34.7220 N.3   122  ALA122     -0.1231
      2  CA        50.3650   86.3100   33.4400 C.3   122  ALA122      0.1694
      3  C         51.8730   86.1360   33.4880 C.2   122  ALA122      0.2592
      4  O         52.4870   86.2060   34.5670 O.2   122  ALA122     -0.2718
      5  CB        50.0110   87.7470   33.2120 C.3   122  ALA122      0.0304
      6  N         52.4680   85.8750   32.3270 N.am  123  ASN123     -0.1960
      7  CA        53.9200   85.6900   32.2020 C.3   123  ASN123      0.1819
      8  C         54.3810   85.8290   30.7470 C.2   123  ASN123      0.2621
      9  O         53.8310   85.1920   29.8500 O.2   123  ASN123     -0.2715
     10  CB        54.3530   84.3380   32.7840 C.3   123  ASN123      0.1195
     11  CG        55.8090   84.3230   33.2280 C.2   123  ASN123      0.2630
     12  OD1       56.3330   83.2780   33.6220 O.2   123  ASN123     -0.2716
     13  ND2       56.4690   85.4820   33.1740 N.am  123  ASN123     -0.0877
     14  N         55.3760   86.6890   30.5320 N.am  124  ALA124     -0.1977
     15  CA        55.8540   87.0420   29.2000 C.3   124  ALA124      0.1597
     16  C         57.3740   87.2480   29.2460 C.2   124  ALA124      0.2287
     17  O         57.8610   88.2790   29.7400 O.2   124  ALA124     -0.2864
     18  CB        55.1470   88.3070   28.7010 C.3   124  ALA124      0.0319
     19  N         58.5470   90.6310   27.7460 N.3   127  VAL127     -0.1245
     20  CA        57.7050   91.7840   28.0830 C.3   127  VAL127      0.1561
     21  C         58.3670   93.1690   27.9220 C.2   127  VAL127      0.2260
     22  O         57.7010   94.1860   27.6810 O.2   127  VAL127     -0.2867
     23  CB        57.1490   91.6340   29.5190 C.3   127  VAL127      0.0252
     24  CG1       58.2010   92.0270   30.5660 C.3   127  VAL127      0.0019
     25  CG2       55.8830   92.4450   29.6930 C.3   127  VAL127      0.0019
     26  N         43.8710   93.4280   30.7920 N.3   172  TYR172     -0.1241
     27  CA        44.2410   94.8220   30.7910 C.3   172  TYR172      0.1605
     28  C         43.7390   95.4870   29.5150 C.2   172  TYR172      0.2264
     29  O         43.7000   94.8670   28.4420 O.2   172  TYR172     -0.2867
     30  CB        45.7420   94.9640   30.9200 C.3   172  TYR172      0.0534
     31  CG        46.2390   96.3700   31.0190 C.ar  172  TYR172     -0.0201
     32  CD1       45.8510   97.1830   32.0620 C.ar  172  TYR172     -0.0009
     33  CD2       47.1310   96.8760   30.0890 C.ar  172  TYR172     -0.0009
     34  CE1       46.3110   98.4960   32.1670 C.ar  172  TYR172      0.0417
     35  CE2       47.6230   98.1820   30.1790 C.ar  172  TYR172      0.0417
     36  CZ        47.1970   98.9940   31.2190 C.ar  172  TYR172      0.1957
     37  OH        47.6520  100.2980   31.3310 O.3   172  TYR172     -0.2866
     38  N         53.9890   97.9830   27.1760 N.3   182  TYR182     -0.1241
     39  CA        53.3780   96.6700   27.4890 C.3   182  TYR182      0.1605
     40  C         53.7280   95.7000   26.3800 C.2   182  TYR182      0.2264
     41  O         52.9070   95.3600   25.5380 O.2   182  TYR182     -0.2867
     42  CB        51.8600   96.8350   27.6030 C.3   182  TYR182      0.0534
     43  CG        51.0720   95.7590   28.3600 C.ar  182  TYR182     -0.0201
     44  CD1       51.0800   95.6930   29.7520 C.ar  182  TYR182     -0.0009
     45  CD2       50.2580   94.8660   27.6760 C.ar  182  TYR182     -0.0009
     46  CE1       50.3370   94.7360   30.4210 C.ar  182  TYR182      0.0417
     47  CE2       49.4980   93.9110   28.3420 C.ar  182  TYR182      0.0417
     48  CZ        49.5430   93.8440   29.7040 C.ar  182  TYR182      0.1957
     49  OH        48.7770   92.8940   30.3370 O.3   182  TYR182     -0.2866
     50  N         52.0910   90.5840   25.5680 N.3   186  MET186     -0.1245
     51  CA        51.0610   90.6110   26.6190 C.3   186  MET186      0.1570
     52  C         49.7840   91.3220   26.1220 C.2   186  MET186      0.2261
     53  O         48.6660   90.9070   26.4290 O.2   186  MET186     -0.2867
     54  CB        51.5570   91.3280   27.8730 C.3   186  MET186      0.0387
     55  CG        52.3480   90.5120   28.8510 C.3   186  MET186      0.0595
     56  SD        51.6500   88.8850   29.1970 S.3   186  MET186     -0.1393
     57  CE        50.0390   89.2170   29.9010 C.3   186  MET186      0.0692
     58  N         46.5000   89.3390   26.1850 N.3   190  LYS190     -0.1245
     59  CA        45.2720   89.8870   26.7170 C.3   190  LYS190      0.1561
     60  C         44.1680   89.9510   25.6470 C.2   190  LYS190      0.2260
     61  O         42.9780   89.7060   25.9610 O.2   190  LYS190     -0.2867
     62  CB        45.5170   91.2530   27.3480 C.3   190  LYS190      0.0271
     63  CG        46.3510   91.2250   28.6210 C.3   190  LYS190      0.0035
     64  CD        45.7960   90.3010   29.6710 C.3   190  LYS190      0.0206
     65  CE        46.7030   90.2460   30.8910 C.3   190  LYS190      0.1093
     66  NZ        46.1130   89.4040   32.0090 N.3   190  LYS190     -0.1314
     67  N         42.7940   98.2590   36.5610 N.3   218  GLY218     -0.1210
     68  CA        43.7280   99.3800   36.4170 C.3   218  GLY218      0.1940
     69  C         45.0620   98.9960   37.0280 C.2   218  GLY218      0.2454
     70  O         45.2570   97.8510   37.4310 O.2   218  GLY218     -0.2732
     71  N         45.9840   99.9510   37.1480 N.am  219  PRO219     -0.2717
     72  CA        47.3220   99.5330   37.5320 C.3   219  PRO219      0.1535
     73  C         47.4410   99.3030   39.0370 C.2   219  PRO219      0.2598
     74  O         46.7600   99.9290   39.8400 O.2   219  PRO219     -0.2715
     75  CB        48.1910  100.7020   37.0820 C.3   219  PRO219      0.0310
     76  CG        47.2060  101.8720   36.7870 C.3   219  PRO219      0.0237
     77  CD        45.8370  101.4120   37.1870 C.3   219  PRO219      0.0939
     78  N         48.2830   98.3640   39.4020 N.am  220  LEU220     -0.1978
     79  CA        48.4920   98.0400   40.7940 C.3   220  LEU220      0.1596
     80  C         49.9630   97.6480   40.9340 C.2   220  LEU220      0.2287
     81  O         50.4450   96.7740   40.1820 O.2   220  LEU220     -0.2864
     82  CB        47.5770   96.8830   41.2020 C.3   220  LEU220      0.0297
     83  CG        47.6110   96.4460   42.6590 C.3   220  LEU220      0.0022
     84  CD1       47.1760   97.5920   43.5920 C.3   220  LEU220      0.0001
     85  CD2       46.7790   95.2020   42.8610 C.3   220  LEU220      0.0001
     86  N         52.3750   95.6910   41.7690 N.3   222  SER222     -0.1217
     87  CA        52.5540   94.3160   42.1830 C.3   222  SER222      0.1889
     88  C         53.9510   93.8740   41.8120 C.2   222  SER222      0.2288
     89  O         54.6900   94.6050   41.1340 O.2   222  SER222     -0.2866
     90  CB        51.5390   93.4250   41.4780 C.3   222  SER222      0.2089
     91  OG        51.9320   93.1820   40.1310 O.3   222  SER222     -0.2183
     92  N         54.8110   91.5130   39.6360 N.3   224  ALA224     -0.1231
     93  CA        54.8990   91.3850   38.1770 C.3   224  ALA224      0.1694
     94  C         54.9530   92.7270   37.4440 C.2   224  ALA224      0.2591
     95  O         55.6570   92.8610   36.4360 O.2   224  ALA224     -0.2718
     96  CB        53.7440   90.5370   37.6530 C.3   224  ALA224      0.0304
     97  N         54.2090   93.7060   37.9630 N.am  225  ALA225     -0.1980
     98  CA        54.1300   95.0540   37.3950 C.3   225  ALA225      0.1597
     99  C         55.5000   95.7210   37.3160 C.2   225  ALA225      0.2287
    100  O         55.8200   96.3990   36.3390 O.2   225  ALA225     -0.2864
    101  CB        53.1830   95.8890   38.2140 C.3   225  ALA225      0.0319
    102  N         58.2570   94.1590   37.0200 N.3   227  ALA227     -0.1231
    103  CA        59.1250   93.3950   36.1080 C.3   227  ALA227      0.1694
    104  C         59.2200   94.0630   34.7320 C.2   227  ALA227      0.2591
    105  O         60.2210   93.9110   34.0250 O.2   227  ALA227     -0.2718
    106  CB        58.6510   91.9520   35.9860 C.3   227  ALA227      0.0304
    107  N         58.1740   94.8090   34.3700 N.am  228  ILE228     -0.1980
    108  CA        58.1390   95.6160   33.1380 C.3   228  ILE228      0.1595
    109  C         59.0790   96.8570   33.2130 C.2   228  ILE228      0.2287
    110  O         59.3230   97.3950   34.2990 O.2   228  ILE228     -0.2864
    111  CB        56.6680   96.0640   32.8200 C.3   228  ILE228      0.0276
    112  CG1       55.6650   94.9260   33.1230 C.3   228  ILE228      0.0022
    113  CG2       56.5430   96.5920   31.3760 C.3   228  ILE228      0.0022
    114  CD1       54.1730   95.2760   32.9190 C.3   228  ILE228      0.0001
    115  N         57.5100  101.8000   34.6030 N.3   231  PHE231     -0.1227
    116  CA        56.3330  101.7890   33.7540 C.3   231  PHE231      0.1736
    117  C         55.0730  101.7750   34.6150 C.2   231  PHE231      0.2595
    118  O         54.1110  102.5030   34.3480 O.2   231  PHE231     -0.2718
    119  CB        56.3080  100.5700   32.8320 C.3   231  PHE231      0.0547
    120  CG        54.9170  100.1690   32.4300 C.ar  231  PHE231     -0.0202
    121  CD1       54.2160  100.8960   31.4800 C.ar  231  PHE231     -0.0042
    122  CD2       54.2870   99.1000   33.0450 C.ar  231  PHE231     -0.0042
    123  CE1       52.9140  100.5420   31.1350 C.ar  231  PHE231     -0.0003
    124  CE2       52.9890   98.7430   32.7030 C.ar  231  PHE231     -0.0003
    125  CZ        52.3030   99.4650   31.7480 C.ar  231  PHE231     -0.0000
    126  N         55.0920  100.9380   35.6460 N.am  232  ILE232     -0.1980
    127  CA        53.9510  100.7770   36.5160 C.3   232  ILE232      0.1595
    128  C         53.7670  101.9870   37.4560 C.2   232  ILE232      0.2287
    129  O         52.6660  102.2300   37.9580 O.2   232  ILE232     -0.2864
    130  CB        54.0460   99.4300   37.2650 C.3   232  ILE232      0.0276
    131  CG1       52.6670   98.7600   37.3730 C.3   232  ILE232      0.0022
    132  CG2       54.8320   99.5610   38.5830 C.3   232  ILE232      0.0022
    133  CD1       51.7500   99.3050   38.4350 C.3   232  ILE232      0.0001
    134  N         52.0420  104.5500   35.1730 N.3   235  ALA235     -0.1245
    135  CA        50.6510  104.1050   34.9780 C.3   235  ALA235      0.1562
    136  C         49.7630  104.4550   36.1590 C.2   235  ALA235      0.2260
    137  O         48.6100  104.8270   35.9630 O.2   235  ALA235     -0.2867
    138  CB        50.5950  102.6260   34.7100 C.3   235  ALA235      0.0290
@<TRIPOS>BOND
     1    41    40    2
     2    50    51    1
     3    60    61    2
     4    60    59    1
     5    52    53    2
     6    52    51    1
     7    58    59    1
     8    40    39    1
     9    51    54    1
    10    59    62    1
    11    38    39    1
    12    62    63    1
    13    39    42    1
    14    42    43    1
    15    45    47   ar
    16    45    43   ar
    17    22    21    2
    18    19    20    1
    19    54    55    1
    20    21    20    1
    21    20    23    1
    22    47    48   ar
    23    43    44   ar
    24    29    28    2
    25    63    64    1
    26    18    15    1
    27    55    56    1
    28    56    57    1
    29    15    16    1
    30    15    14    1
    31    16    17    2
    32    28    27    1
    33    23    25    1
    34    23    24    1
    35    64    65    1
    36    48    49    1
    37    48    46   ar
    38    44    46   ar
    39     9     8    2
    40    33    35   ar
    41    33    31   ar
    42    35    36   ar
    43    14     8   am
    44     8     7    1
    45    27    26    1
    46    27    30    1
    47    65    66    1
    48    30    31    1
    49    31    32   ar
    50   123   121   ar
    51   123   125   ar
    52    36    37    1
    53    36    34   ar
    54   113   111    1
    55   121   120   ar
    56   125   124   ar
    57    32    34   ar
    58     7     6    1
    59     7    10    1
    60     6     3   am
    61   120   119    1
    62   120   122   ar
    63   124   122   ar
    64    10    11    1
    65   111   112    1
    66   111   108    1
    67   119   116    1
    68   114   112    1
    69   108   109    1
    70   108   107    1
    71    13    11   am
    72     5     2    1
    73   109   110    2
    74    11    12    2
    75     2     3    1
    76     2     1    1
    77     3     4    2
    78   116   115    1
    79   116   117    1
    80   105   104    2
    81   118   117    2
    82   107   104   am
    83   117   126   am
    84   138   135    1
    85   104   103    1
    86   135   134    1
    87   135   136    1
    88   126   127    1
    89   137   136    2
    90   106   103    1
    91   103   102    1
    92   100    99    2
    93    68    67    1
    94    68    69    1
    95    95    94    2
    96   127   130    1
    97   127   128    1
    98    76    75    1
    99    76    77    1
   100    69    71   am
   101    69    70    2
   102    75    72    1
   103    71    77    1
   104    71    72    1
   105   130   131    1
   106   130   132    1
   107    99    98    1
   108   131   133    1
   109    98    97    1
   110    98   101    1
   111    94    97   am
   112    94    93    1
   113   128   129    2
   114    72    73    1
   115    96    93    1
   116    93    92    1
   117    73    78   am
   118    73    74    2
   119    78    79    1
   120    91    90    1
   121    81    80    2
   122    79    80    1
   123    79    82    1
   124    89    88    2
   125    82    83    1
   126    90    87    1
   127    86    87    1
   128    88    87    1
   129    83    85    1
   130    83    84    1
