@<TRIPOS>MOLECULE
tmp/3lszA00.pdb
 137 131 0 0 0
SMALL
GASTEIGER

@<TRIPOS>ATOM
      1  N         89.8190   46.0980    7.4710 N.3    10  SER10      -0.1202
      2  CA        90.0490   45.7780    8.8720 C.3    10  SER10       0.2020
      3  C         90.9190   46.8890    9.4480 C.2    10  SER10       0.2618
      4  O         91.1970   47.8720    8.7620 O.2    10  SER10      -0.2717
      5  CB        90.7850   44.4440    9.0090 C.3    10  SER10       0.2103
      6  OG        92.1500   44.5650    8.6140 O.3    10  SER10      -0.2182
      7  N         91.3570   46.7270   10.6940 N.am   11  ARG11      -0.1979
      8  CA        92.2090   47.7290   11.3110 C.3    11  ARG11       0.1597
      9  C         93.5850   47.7220   10.6480 C.2    11  ARG11       0.2287
     10  O         94.4430   48.5300   10.9810 O.2    11  ARG11      -0.2864
     11  CB        92.3410   47.4870   12.8220 C.3    11  ARG11       0.0334
     12  CG        91.0820   47.7940   13.6430 C.3    11  ARG11       0.0492
     13  CD        91.3320   47.4900   15.1170 C.3    11  ARG11       0.2205
     14  NE        90.2740   47.9450   16.0220 N.pl3  11  ARG11      -0.0865
     15  CZ        89.1690   47.2640   16.3070 C.cat  11  ARG11       0.5346
     16  NH1       88.9460   46.0770   15.7570 N.pl3  11  ARG11       0.1354
     17  NH2       88.2930   47.7550   17.1780 N.pl3  11  ARG11       0.1354
     18  N         95.1340   50.8460    9.0290 N.3    14  ARG14      -0.1245
     19  CA        95.9940   51.8100    9.7070 C.3    14  ARG14       0.1563
     20  C         97.4370   51.6950    9.2030 C.2    14  ARG14       0.2260
     21  O         97.9980   52.6760    8.7140 O.2    14  ARG14      -0.2867
     22  CB        95.8750   51.6270   11.2230 C.3    14  ARG14       0.0307
     23  CG        94.4600   51.9820   11.6890 C.3    14  ARG14       0.0489
     24  CD        94.0730   51.4010   13.0280 C.3    14  ARG14       0.2205
     25  NE        92.6540   51.6250   13.2960 N.pl3  14  ARG14      -0.0865
     26  CZ        92.0630   51.3980   14.4660 C.cat  14  ARG14       0.5346
     27  NH1       92.7680   50.9380   15.4970 N.pl3  14  ARG14       0.1354
     28  NH2       90.7650   51.6230   14.6020 N.pl3  14  ARG14       0.1354
     29  N         88.9960   38.1420    8.4060 N.3    33  GLN33      -0.1231
     30  CA        88.3170   37.7840    9.6430 C.3    33  GLN33       0.1698
     31  C         87.6310   36.4380    9.4280 C.2    33  GLN33       0.2592
     32  O         87.0110   36.2060    8.3920 O.2    33  GLN33      -0.2718
     33  CB        87.2830   38.8470   10.0240 C.3    33  GLN33       0.0381
     34  CG        87.8710   40.2340   10.2560 C.3    33  GLN33       0.0905
     35  CD        87.9810   41.0560    8.9780 C.2    33  GLN33       0.2608
     36  OE1       88.2800   40.5320    7.9060 O.2    33  GLN33      -0.2717
     37  NE2       87.7550   42.3560    9.0970 N.am   33  GLN33      -0.0878
     38  N         87.7620   35.5500   10.4060 N.am   34  ALA34      -0.1966
     39  CA        87.1700   34.2140   10.3160 C.3    34  ALA34       0.1728
     40  C         85.6580   34.1800   10.1150 C.2    34  ALA34       0.2616
     41  O         85.1420   33.2450    9.4990 O.2    34  ALA34      -0.2715
     42  CB        87.5380   33.3990   11.5580 C.3    34  ALA34       0.0334
     43  N         84.9380   35.1740   10.6290 N.am   35  ASN35      -0.1972
     44  CA        83.4890   35.1740   10.4820 C.3    35  ASN35       0.1688
     45  C         83.0810   35.4510    9.0450 C.2    35  ASN35       0.2292
     46  O         81.9040   35.3700    8.6960 O.2    35  ASN35      -0.2864
     47  CB        82.8320   36.1920   11.4280 C.3    35  ASN35       0.1181
     48  CG        83.0080   37.6270   10.9650 C.2    35  ASN35       0.2629
     49  OD1       84.1260   38.1070   10.8110 O.2    35  ASN35      -0.2716
     50  ND2       81.8930   38.3210   10.7430 N.am   35  ASN35      -0.0877
     51  N         91.8240   34.6630   10.6110 N.3    49  THR49      -0.1218
     52  CA        92.1410   34.8100   12.0220 C.3    49  THR49       0.1862
     53  C         91.9990   33.5460   12.8500 C.2    49  THR49       0.2287
     54  O         92.5100   33.4860   13.9620 O.2    49  THR49      -0.2866
     55  CB        91.3050   35.9300   12.6630 C.3    49  THR49       0.1770
     56  OG1       89.9100   35.6930   12.4210 O.3    49  THR49      -0.2211
     57  CG2       91.7070   37.2790   12.0720 C.3    49  THR49       0.0375
     58  N         96.5650   35.7680   19.5740 N.3    60  LEU60      -0.1231
     59  CA        95.2820   36.3750   19.8940 C.3    60  LEU60       0.1693
     60  C         94.2790   36.2620   18.7480 C.2    60  LEU60       0.2593
     61  O         93.0980   36.5380   18.9220 O.2    60  LEU60      -0.2718
     62  CB        95.4690   37.8440   20.2900 C.3    60  LEU60       0.0284
     63  CG        94.3040   38.4320   21.0940 C.3    60  LEU60       0.0019
     64  CD1       94.0950   37.6120   22.3600 C.3    60  LEU60       0.0001
     65  CD2       94.5900   39.8850   21.4490 C.3    60  LEU60       0.0001
     66  N         94.7580   35.8650   17.5740 N.am   61  GLY61      -0.1942
     67  CA        93.8760   35.7070   16.4350 C.3    61  GLY61       0.2014
     68  C         93.1820   36.9640   15.9610 C.2    61  GLY61       0.2639
     69  O         91.9810   36.9510   15.6940 O.2    61  GLY61      -0.2714
     70  N         93.9320   38.0560   15.8610 N.am   62  GLN62      -0.1963
     71  CA        93.3780   39.3230   15.3930 C.3    62  GLN62       0.1733
     72  C         94.3270   39.9450   14.3880 C.2    62  GLN62       0.2616
     73  O         95.5230   39.6620   14.3900 O.2    62  GLN62      -0.2715
     74  CB        93.2000   40.3240   16.5420 C.3    62  GLN62       0.0408
     75  CG        92.4600   39.8070   17.7570 C.3    62  GLN62       0.0908
     76  CD        92.3380   40.8580   18.8460 C.2    62  GLN62       0.2608
     77  OE1       93.2980   41.5640   19.1590 O.2    62  GLN62      -0.2717
     78  NE2       91.1580   40.9560   19.4380 N.am   62  GLN62      -0.0878
     79  N         93.7810   40.7890   13.5230 N.am   63  ILE63      -0.1964
     80  CA        94.5850   41.4980   12.5450 C.3    63  ILE63       0.1712
     81  C         94.4610   42.9760   12.9240 C.2    63  ILE63       0.2458
     82  O         93.4700   43.3840   13.5300 O.2    63  ILE63      -0.2730
     83  CB        94.0770   41.2460   11.0900 C.3    63  ILE63       0.0289
     84  CG1       92.5500   41.3420   11.0270 C.3    63  ILE63       0.0022
     85  CG2       94.5330   39.8750   10.6170 C.3    63  ILE63       0.0023
     86  CD1       91.9830   41.1690    9.6130 C.3    63  ILE63       0.0001
     87  N         95.4710   43.7970   12.5930 N.am   64  PRO64      -0.2727
     88  CA        96.7050   43.4410   11.8940 C.3    64  PRO64       0.1402
     89  C         97.8110   42.9110   12.7960 C.2    64  PRO64       0.2269
     90  O         97.7130   42.9150   14.0280 O.2    64  PRO64      -0.2865
     91  CB        97.1130   44.7570   11.2520 C.3    64  PRO64       0.0296
     92  CG        96.7760   45.7450   12.3480 C.3    64  PRO64       0.0237
     93  CD        95.4070   45.2560   12.8300 C.3    64  PRO64       0.0939
     94  N         98.7130   44.8280   17.6510 N.3    75  GLU75      -0.1231
     95  CA        98.1270   46.1210   18.0120 C.3    75  GLU75       0.1699
     96  C         98.3850   47.1390   16.9060 C.2    75  GLU75       0.2593
     97  O         99.4860   47.6710   16.7700 O.2    75  GLU75      -0.2718
     98  CB        98.6830   46.6520   19.3430 C.3    75  GLU75       0.0402
     99  CG        98.1840   45.9070   20.5780 C.3    75  GLU75       0.1161
    100  CD        96.6680   45.8320   20.6580 C.2    75  GLU75       0.3649
    101  OE1       95.9950   46.8300   20.3190 O.co2  75  GLU75      -0.2457
    102  OE2       96.1480   44.7740   21.0790 O.co2  75  GLU75      -0.2457
    103  N         97.3400   47.4110   16.1310 N.am   76  SER76      -0.1938
    104  CA        97.4130   48.3290   15.0100 C.3    76  SER76       0.2055
    105  C         98.0990   49.6600   15.2740 C.2    76  SER76       0.2642
    106  O         98.8780   50.1280   14.4410 O.2    76  SER76      -0.2714
    107  CB        96.0050   48.5900   14.4560 C.3    76  SER76       0.2130
    108  OG        95.1770   49.2030   15.4290 O.3    76  SER76      -0.2179
    109  N         97.8250   50.2730   16.4220 N.am   77  LEU77      -0.1977
    110  CA        98.4240   51.5770   16.7180 C.3    77  LEU77       0.1596
    111  C         99.8960   51.5420   17.1210 C.2    77  LEU77       0.2287
    112  O        100.6030   52.5420   16.9810 O.2    77  LEU77      -0.2864
    113  CB        97.6130   52.3050   17.7840 C.3    77  LEU77       0.0297
    114  CG        96.1210   52.4000   17.4560 C.3    77  LEU77       0.0022
    115  CD1       95.4520   53.3960   18.3990 C.3    77  LEU77       0.0001
    116  CD2       95.9410   52.8370   16.0130 C.3    77  LEU77       0.0001
    117  N         87.9120   55.1330   20.0640 N.3   113  GLU113     -0.1245
    118  CA        87.5940   53.8830   19.3860 C.3   113  GLU113      0.1567
    119  C         86.3860   53.0870   19.8890 C.2   113  GLU113      0.2260
    120  O         85.5260   52.7130   19.0920 O.2   113  GLU113     -0.2867
    121  CB        88.8330   52.9810   19.3390 C.3   113  GLU113      0.0388
    122  CG        88.6420   51.7320   18.4970 C.3   113  GLU113      0.1160
    123  CD        89.9280   50.9570   18.2940 C.2   113  GLU113      0.3649
    124  OE1       90.6460   50.7040   19.2890 O.co2 113  GLU113     -0.2457
    125  OE2       90.2170   50.5960   17.1370 O.co2 113  GLU113     -0.2457
    126  N         85.3790   55.4600   12.3250 N.3   179  TYR179     -0.1241
    127  CA        84.2740   54.5640   12.6600 C.3   179  TYR179      0.1605
    128  C         82.9440   55.2960   12.8600 C.2   179  TYR179      0.2264
    129  O         81.9000   54.8220   12.4240 O.2   179  TYR179     -0.2867
    130  CB        84.5700   53.7810   13.9400 C.3   179  TYR179      0.0534
    131  CG        85.5340   52.6260   13.8100 C.ar  179  TYR179     -0.0201
    132  CD1       85.4170   51.7000   12.7750 C.ar  179  TYR179     -0.0009
    133  CD2       86.5230   52.4180   14.7700 C.ar  179  TYR179     -0.0009
    134  CE1       86.2640   50.5900   12.7060 C.ar  179  TYR179      0.0417
    135  CE2       87.3680   51.3200   14.7130 C.ar  179  TYR179      0.0417
    136  CZ        87.2370   50.4090   13.6830 C.ar  179  TYR179      0.1957
    137  OH        88.0750   49.3180   13.6300 O.3   179  TYR179     -0.2866
@<TRIPOS>BOND
     1     1     2    1
     2    36    35    2
     3    32    31    2
     4    29    30    1
     5     6     5    1
     6    46    45    2
     7    21    20    2
     8     4     3    2
     9     2     5    1
    10     2     3    1
    11    35    37   am
    12    35    34    1
    13    18    19    1
    14    45    44    1
    15    20    19    1
    16    31    30    1
    17    31    38   am
    18     3     7   am
    19    41    40    2
    20    86    84    1
    21    30    33    1
    22    19    22    1
    23    33    34    1
    24    40    39    1
    25    40    43   am
    26    39    38    1
    27    39    42    1
    28    44    43    1
    29    44    47    1
    30    51    52    1
    31    85    83    1
    32     9    10    2
    33     9     8    1
    34     7     8    1
    35    50    48   am
    36    49    48    2
    37    48    47    1
    38    84    83    1
    39    83    80    1
    40    22    23    1
    41    91    88    1
    42    91    92    1
    43     8    11    1
    44    23    24    1
    45    88    87    1
    46    88    89    1
    47    52    55    1
    48    52    53    1
    49    57    55    1
    50   126   127    1
    51    92    93    1
    52    56    55    1
    53   129   128    2
    54    80    81    1
    55    80    79    1
    56    87    93    1
    57    87    81   am
    58   127   128    1
    59   127   130    1
    60   134   132   ar
    61   134   136   ar
    62   132   131   ar
    63    89    90    2
    64    11    12    1
    65    53    54    2
    66    81    82    2
    67    24    25    1
    68    25    26    2
    69    79    72   am
    70   137   136    1
    71    12    13    1
    72   136   135   ar
    73   131   130    1
    74   131   133   ar
    75    72    73    2
    76    72    71    1
    77   106   105    2
    78   107   104    1
    79   107   108    1
    80    26    28    1
    81    26    27    1
    82   135   133   ar
    83   104   105    1
    84   104   103    1
    85    13    14    1
    86   105   109   am
    87    71    70    1
    88    71    74    1
    89    69    68    2
    90    16    15    1
    91    70    68   am
    92    68    67    1
    93   116   114    1
    94    14    15    2
    95   103    96   am
    96    15    17    1
    97   109   110    1
    98    67    66    1
    99    74    75    1
   100   110   111    1
   101   110   113    1
   102    97    96    2
   103    96    95    1
   104   112   111    2
   105   125   123   ar
   106   114   113    1
   107   114   115    1
   108    66    60   am
   109    94    95    1
   110    75    76    1
   111    95    98    1
   112   123   122    1
   113   123   124   ar
   114   122   121    1
   115    60    61    2
   116    60    59    1
   117    76    77    2
   118    76    78   am
   119   120   119    2
   120   121   118    1
   121    98    99    1
   122   118   119    1
   123   118   117    1
   124    58    59    1
   125    59    62    1
   126    62    63    1
   127   101   100   ar
   128    99   100    1
   129   100   102   ar
   130    63    65    1
   131    63    64    1
