@<TRIPOS>MOLECULE
tmp/3lt4A01.pdb
 164 157 0 0 0
SMALL
GASTEIGER

@<TRIPOS>ATOM
      1  N         46.8370   83.9190   36.5720 N.3   120  LEU120     -0.1231
      2  CA        48.2260   83.6670   36.2610 C.3   120  LEU120      0.1693
      3  C         48.5220   84.0830   34.8310 C.2   120  LEU120      0.2592
      4  O         47.6190   84.1080   33.9680 O.2   120  LEU120     -0.2718
      5  CB        48.5890   82.1850   36.4690 C.3   120  LEU120      0.0284
      6  CG        47.9590   81.1400   35.5280 C.3   120  LEU120      0.0019
      7  CD1       48.8720   80.9200   34.3140 C.3   120  LEU120      0.0001
      8  CD2       47.7210   79.8220   36.2700 C.3   120  LEU120      0.0001
      9  N         49.7970   84.3910   34.6080 N.am  121  ALA121     -0.1966
     10  CA        50.3110   84.7350   33.3070 C.3   121  ALA121      0.1728
     11  C         51.8010   84.5640   33.3480 C.2   121  ALA121      0.2616
     12  O         52.4310   84.6380   34.4050 O.2   121  ALA121     -0.2715
     13  CB        49.9320   86.1990   32.9180 C.3   121  ALA121      0.0334
     14  N         52.3640   84.3210   32.1780 N.am  122  ASN122     -0.1958
     15  CA        53.8010   84.3360   32.0210 C.3   122  ASN122      0.1819
     16  C         54.1270   84.5830   30.5570 C.2   122  ASN122      0.2621
     17  O         53.3250   84.2930   29.6640 O.2   122  ASN122     -0.2715
     18  CB        54.4680   83.0370   32.5630 C.3   122  ASN122      0.1195
     19  CG        55.7990   83.3270   33.2860 C.2   122  ASN122      0.2630
     20  OD1       56.2030   82.5920   34.1970 O.2   122  ASN122     -0.2716
     21  ND2       56.4740   84.4180   32.8850 N.am  122  ASN122     -0.0877
     22  N         55.3000   85.1620   30.3280 N.am  123  ALA123     -0.1977
     23  CA        55.8070   85.4500   28.9960 C.3   123  ALA123      0.1597
     24  C         57.2910   85.6600   29.1790 C.2   123  ALA123      0.2287
     25  O         57.6840   86.6270   29.8040 O.2   123  ALA123     -0.2864
     26  CB        55.1730   86.7070   28.4420 C.3   123  ALA123      0.0319
     27  N         58.5780   89.1790   27.9480 N.3   126  VAL126     -0.1245
     28  CA        57.7130   90.3190   28.2720 C.3   126  VAL126      0.1561
     29  C         58.4130   91.6770   28.1480 C.2   126  VAL126      0.2260
     30  O         57.7850   92.6780   27.8280 O.2   126  VAL126     -0.2867
     31  CB        57.0550   90.1690   29.6890 C.3   126  VAL126      0.0252
     32  CG1       58.1330   90.2700   30.8280 C.3   126  VAL126      0.0019
     33  CG2       55.9200   91.1860   29.8600 C.3   126  VAL126      0.0019
     34  N         42.3400   89.6740   32.8060 N.3   170  THR170     -0.1203
     35  CA        42.9470   90.1870   31.5890 C.3   170  THR170      0.1994
     36  C         43.3750   91.6430   31.7910 C.2   170  THR170      0.2617
     37  O         43.2620   92.1780   32.8970 O.2   170  THR170     -0.2717
     38  CB        41.9940   90.0020   30.3660 C.3   170  THR170      0.1784
     39  OG1       42.6650   90.3910   29.1670 O.3   170  THR170     -0.2211
     40  CG2       40.7140   90.8480   30.5310 C.3   170  THR170      0.0376
     41  N         43.8210   92.2840   30.7170 N.am  171  TYR171     -0.1975
     42  CA        44.2880   93.6590   30.7750 C.3   171  TYR171      0.1639
     43  C         43.9990   94.3450   29.4410 C.2   171  TYR171      0.2290
     44  O         44.0630   93.7030   28.3660 O.2   171  TYR171     -0.2864
     45  CB        45.7970   93.7030   31.1300 C.3   171  TYR171      0.0560
     46  CG        46.3670   95.1210   31.2470 C.ar  171  TYR171     -0.0198
     47  CD1       45.8300   96.0420   32.1570 C.ar  171  TYR171     -0.0009
     48  CD2       47.4410   95.5220   30.4630 C.ar  171  TYR171     -0.0009
     49  CE1       46.3280   97.3210   32.2610 C.ar  171  TYR171      0.0417
     50  CE2       47.9550   96.8100   30.5580 C.ar  171  TYR171      0.0417
     51  CZ        47.3930   97.7050   31.4540 C.ar  171  TYR171      0.1957
     52  OH        47.9010   98.9810   31.5380 O.3   171  TYR171     -0.2866
     53  N         53.9460   96.7170   27.3840 N.3   181  TYR181     -0.1241
     54  CA        53.3100   95.4230   27.7010 C.3   181  TYR181      0.1605
     55  C         53.7220   94.4580   26.5760 C.2   181  TYR181      0.2264
     56  O         52.9450   94.2120   25.6440 O.2   181  TYR181     -0.2867
     57  CB        51.7850   95.5860   27.7730 C.3   181  TYR181      0.0534
     58  CG        51.0200   94.4900   28.5190 C.ar  181  TYR181     -0.0201
     59  CD1       51.1600   94.3260   29.9070 C.ar  181  TYR181     -0.0009
     60  CD2       50.1680   93.6200   27.8320 C.ar  181  TYR181     -0.0009
     61  CE1       50.4670   93.3320   30.5820 C.ar  181  TYR181      0.0417
     62  CE2       49.4630   92.6210   28.4920 C.ar  181  TYR181      0.0417
     63  CZ        49.5950   92.4820   29.8550 C.ar  181  TYR181      0.1957
     64  OH        48.8680   91.5090   30.5000 O.3   181  TYR181     -0.2866
     65  N         52.3270   89.3520   25.5110 N.3   185  MET185     -0.1245
     66  CA        51.2980   89.4610   26.5500 C.3   185  MET185      0.1570
     67  C         50.0080   90.1450   26.0580 C.2   185  MET185      0.2261
     68  O         48.9150   89.7300   26.4120 O.2   185  MET185     -0.2867
     69  CB        51.8260   90.1500   27.8060 C.3   185  MET185      0.0387
     70  CG        52.5780   89.2150   28.7340 C.3   185  MET185      0.0595
     71  SD        51.7360   87.6730   29.1620 S.3   185  MET185     -0.1393
     72  CE        50.2190   88.3070   29.8800 C.3   185  MET185      0.0692
     73  N         46.3970   88.1790   25.9610 N.3   189  LYS189     -0.1245
     74  CA        45.1880   88.7700   26.5590 C.3   189  LYS189      0.1561
     75  C         44.0550   88.9280   25.5490 C.2   189  LYS189      0.2260
     76  O         42.9040   88.7190   25.8830 O.2   189  LYS189     -0.2867
     77  CB        45.4930   90.1130   27.2390 C.3   189  LYS189      0.0271
     78  CG        46.3670   90.0150   28.4970 C.3   189  LYS189      0.0035
     79  CD        45.8620   88.9400   29.4900 C.3   189  LYS189      0.0206
     80  CE        46.6490   89.0460   30.8250 C.3   189  LYS189      0.1093
     81  NZ        46.2750   87.9800   31.8310 N.3   189  LYS189     -0.1314
     82  N         42.5770   97.0110   36.4840 N.3   217  GLY217     -0.1210
     83  CA        43.5490   98.1090   36.4070 C.3   217  GLY217      0.1940
     84  C         44.8680   97.7280   37.0740 C.2   217  GLY217      0.2454
     85  O         45.0090   96.5990   37.5840 O.2   217  GLY217     -0.2732
     86  N         45.8450   98.6610   37.0960 N.am  218  PRO218     -0.2717
     87  CA        47.1990   98.2950   37.5380 C.3   218  PRO218      0.1535
     88  C         47.3260   98.0870   39.0500 C.2   218  PRO218      0.2598
     89  O         46.7250   98.8230   39.8500 O.2   218  PRO218     -0.2715
     90  CB        48.0530   99.4710   37.0860 C.3   218  PRO218      0.0310
     91  CG        47.0700  100.6810   37.0230 C.3   218  PRO218      0.0237
     92  CD        45.6600  100.1260   36.9950 C.3   218  PRO218      0.0939
     93  N         48.0900   97.0620   39.4170 N.am  219  LEU219     -0.1978
     94  CA        48.3520   96.7020   40.8210 C.3   219  LEU219      0.1596
     95  C         49.8250   96.3500   40.8930 C.2   219  LEU219      0.2287
     96  O         50.3460   95.6570   39.9920 O.2   219  LEU219     -0.2864
     97  CB        47.5400   95.4810   41.2330 C.3   219  LEU219      0.0297
     98  CG        47.6420   94.9450   42.6650 C.3   219  LEU219      0.0022
     99  CD1       46.9890   95.8940   43.6680 C.3   219  LEU219      0.0001
    100  CD2       47.0060   93.5590   42.7750 C.3   219  LEU219      0.0001
    101  N         51.9290   94.2140   41.7980 N.3   221  SER221     -0.1202
    102  CA        52.1450   92.8280   42.1340 C.3   221  SER221      0.2020
    103  C         53.5990   92.4760   41.7670 C.2   221  SER221      0.2619
    104  O         54.2870   93.2620   41.0960 O.2   221  SER221     -0.2717
    105  CB        51.2160   91.9760   41.2940 C.3   221  SER221      0.2103
    106  OG        51.6330   92.0070   39.9380 O.3   221  SER221     -0.2182
    107  N         54.0450   91.2860   42.1640 N.am  222  ARG222     -0.1965
    108  CA        55.3660   90.8170   41.7600 C.3   222  ARG222      0.1729
    109  C         55.5390   90.7280   40.2320 C.2   222  ARG222      0.2616
    110  O         56.5140   91.2780   39.6830 O.2   222  ARG222     -0.2715
    111  CB        55.7230   89.5060   42.4680 C.3   222  ARG222      0.0348
    112  CG        56.9670   88.8280   41.9260 C.3   222  ARG222      0.0492
    113  CD        56.5740   87.5110   41.3050 C.3   222  ARG222      0.2205
    114  NE        56.9870   87.4100   39.9080 N.pl3 222  ARG222     -0.0865
    115  CZ        56.2680   86.8030   38.9700 C.cat 222  ARG222      0.5346
    116  NH1       55.0970   86.2600   39.2800 N.pl3 222  ARG222      0.1354
    117  NH2       56.7110   86.7510   37.7190 N.pl3 222  ARG222      0.1354
    118  N         54.6030   90.0740   39.5360 N.am  223  ALA223     -0.1963
    119  CA        54.6760   90.0390   38.0740 C.3   223  ALA223      0.1728
    120  C         54.7550   91.4530   37.4520 C.2   223  ALA223      0.2616
    121  O         55.5370   91.6790   36.5370 O.2   223  ALA223     -0.2715
    122  CB        53.5340   89.2320   37.4670 C.3   223  ALA223      0.0334
    123  N         53.9630   92.3950   37.9560 N.am  224  ALA224     -0.1977
    124  CA        53.9200   93.7450   37.3910 C.3   224  ALA224      0.1597
    125  C         55.3000   94.4270   37.4810 C.2   224  ALA224      0.2287
    126  O         55.7260   95.1010   36.5460 O.2   224  ALA224     -0.2864
    127  CB        52.8870   94.5780   38.1130 C.3   224  ALA224      0.0319
    128  N         58.0650   93.1190   37.3290 N.3   226  ALA226     -0.1231
    129  CA        58.9410   92.5030   36.3160 C.3   226  ALA226      0.1694
    130  C         58.8080   93.0640   34.8940 C.2   226  ALA226      0.2591
    131  O         59.7000   92.8460   34.0690 O.2   226  ALA226     -0.2718
    132  CB        58.7790   90.9900   36.3140 C.3   226  ALA226      0.0304
    133  N         57.7190   93.7810   34.5970 N.am  227  ILE227     -0.1980
    134  CA        57.5690   94.4750   33.3030 C.3   227  ILE227      0.1595
    135  C         58.4290   95.7620   33.2090 C.2   227  ILE227      0.2287
    136  O         58.4120   96.6140   34.1190 O.2   227  ILE227     -0.2864
    137  CB        56.1000   94.8730   33.0120 C.3   227  ILE227      0.0276
    138  CG1       55.1230   93.7260   33.3010 C.3   227  ILE227      0.0022
    139  CG2       55.9580   95.3620   31.5680 C.3   227  ILE227      0.0022
    140  CD1       53.6850   94.1520   33.3110 C.3   227  ILE227      0.0001
    141  N         57.4190  100.5560   34.6500 N.3   230  PHE230     -0.1227
    142  CA        56.1890  100.4400   33.8660 C.3   230  PHE230      0.1736
    143  C         54.9690  100.4980   34.8090 C.2   230  PHE230      0.2595
    144  O         54.0880  101.3330   34.6370 O.2   230  PHE230     -0.2718
    145  CB        56.1680   99.1470   33.0450 C.3   230  PHE230      0.0547
    146  CG        54.7840   98.7510   32.5760 C.ar  230  PHE230     -0.0202
    147  CD1       54.3240   99.1360   31.3250 C.ar  230  PHE230     -0.0042
    148  CD2       53.9350   97.9980   33.4000 C.ar  230  PHE230     -0.0042
    149  CE1       53.0380   98.7860   30.9030 C.ar  230  PHE230     -0.0003
    150  CE2       52.6630   97.6510   32.9920 C.ar  230  PHE230     -0.0003
    151  CZ        52.2060   98.0400   31.7470 C.ar  230  PHE230     -0.0000
    152  N         54.9610   99.6460   35.8300 N.am  231  ILE231     -0.1980
    153  CA        53.8520   99.5960   36.7610 C.3   231  ILE231      0.1595
    154  C         53.6880  100.8960   37.5630 C.2   231  ILE231      0.2287
    155  O         52.5670  101.3170   37.7940 O.2   231  ILE231     -0.2864
    156  CB        53.8670   98.3190   37.6890 C.3   231  ILE231      0.0276
    157  CG1       52.4800   98.0670   38.3070 C.3   231  ILE231      0.0022
    158  CG2       54.9660   98.4030   38.7680 C.3   231  ILE231      0.0022
    159  CD1       51.3860   97.8100   37.2790 C.3   231  ILE231      0.0001
    160  N         51.8440  103.2950   35.2710 N.3   234  ALA234     -0.1245
    161  CA        50.4620  102.9150   35.0200 C.3   234  ALA234      0.1562
    162  C         49.6080  103.2780   36.2120 C.2   234  ALA234      0.2260
    163  O         48.5020  103.8130   36.0530 O.2   234  ALA234     -0.2867
    164  CB        50.3600  101.3840   34.7130 C.3   234  ALA234      0.0290
@<TRIPOS>BOND
     1    65    66    1
     2    75    76    2
     3    75    74    1
     4    56    55    2
     5    73    74    1
     6    67    68    2
     7    67    66    1
     8    66    69    1
     9    74    77    1
    10    55    54    1
    11    77    78    1
    12    53    54    1
    13    54    57    1
    14    57    58    1
    15    69    70    1
    16    30    29    2
    17    60    62   ar
    18    60    58   ar
    19    27    28    1
    20    29    28    1
    21    28    31    1
    22    44    43    2
    23    26    23    1
    24    62    63   ar
    25    78    79    1
    26    58    59   ar
    27    70    71    1
    28    23    24    1
    29    23    22    1
    30    71    72    1
    31    39    38    1
    32    24    25    2
    33    43    42    1
    34    79    80    1
    35    17    16    2
    36    31    33    1
    37    31    32    1
    38    63    64    1
    39    63    61   ar
    40    59    61   ar
    41    22    16   am
    42    38    40    1
    43    38    35    1
    44    48    50   ar
    45    48    46   ar
    46    16    15    1
    47    50    51   ar
    48    41    42    1
    49    41    36   am
    50    42    45    1
    51    80    81    1
    52   149   147   ar
    53   149   151   ar
    54    45    46    1
    55    46    47   ar
    56   147   146   ar
    57    51    52    1
    58    51    49   ar
    59   139   137    1
    60    35    36    1
    61    35    34    1
    62   151   150   ar
    63    36    37    2
    64    15    14    1
    65    15    18    1
    66    47    49   ar
    67    14    11   am
    68    18    19    1
    69   146   145    1
    70   146   148   ar
    71    21    19   am
    72    13    10    1
    73   150   148   ar
    74   137   138    1
    75   137   134    1
    76   145   142    1
    77   135   134    1
    78   135   136    2
    79    19    20    2
    80   138   140    1
    81   134   133    1
    82    10    11    1
    83    10     9    1
    84    11    12    2
    85   142   141    1
    86   142   143    1
    87     4     3    2
    88   131   130    2
    89     7     6    1
    90   133   130   am
    91     9     3   am
    92   144   143    2
    93   164   161    1
    94   143   152   am
    95     3     2    1
    96   130   129    1
    97   161   160    1
    98   161   162    1
    99     6     8    1
   100     6     5    1
   101   152   153    1
   102   163   162    2
   103     2     5    1
   104     2     1    1
   105   132   129    1
   106   129   128    1
   107    83    82    1
   108    83    84    1
   109   121   120    2
   110   126   125    2
   111   153   154    1
   112   153   156    1
   113    92    91    1
   114    92    86    1
   115    91    90    1
   116    84    86   am
   117    84    85    2
   118    90    87    1
   119    86    87    1
   120   159   157    1
   121   124   125    1
   122   124   123    1
   123   124   127    1
   124   120   123   am
   125   120   119    1
   126   122   119    1
   127    87    88    1
   128   154   155    2
   129   156   157    1
   130   156   158    1
   131   117   115    1
   132   119   118    1
   133   115   116    1
   134   115   114    2
   135    88    93   am
   136    88    89    2
   137    93    94    1
   138   118   109   am
   139   110   109    2
   140   114   113    1
   141   106   105    1
   142    96    95    2
   143   109   108    1
   144    94    95    1
   145    94    97    1
   146   104   103    2
   147    97    98    1
   148   105   102    1
   149   113   112    1
   150   108   107    1
   151   108   111    1
   152   103   102    1
   153   103   107   am
   154   101   102    1
   155   112   111    1
   156    98   100    1
   157    98    99    1
