@<TRIPOS>MOLECULE
tmp/3lt5A02.pdb
 90 86 0 0 0
SMALL
GASTEIGER

@<TRIPOS>ATOM
      1  N        -23.9040  -16.1410   17.5270 N.3    97  MET97      -0.1245
      2  CA       -24.2490  -14.8750   16.8970 C.3    97  MET97       0.1570
      3  C        -22.9080  -14.2310   16.5460 C.2    97  MET97       0.2261
      4  O        -22.0470  -14.0780   17.4140 O.2    97  MET97      -0.2867
      5  CB       -25.0510  -13.9670   17.8430 C.3    97  MET97       0.0387
      6  CG       -25.2070  -12.5160   17.3340 C.3    97  MET97       0.0595
      7  SD       -26.3390  -11.4390   18.2810 S.3    97  MET97      -0.1393
      8  CE       -27.9260  -11.9350   17.6250 C.3    97  MET97       0.0692
      9  N        -21.5910  -10.7370   14.8790 N.3    99  ASN99      -0.1225
     10  CA       -21.9420   -9.4280   14.3410 C.3    99  ASN99       0.1785
     11  C        -23.4290   -9.3070   13.9890 C.2    99  ASN99       0.2597
     12  O        -23.8010   -8.8530   12.8940 O.2    99  ASN99      -0.2718
     13  CB       -21.0450   -9.0950   13.1440 C.3    99  ASN99       0.1169
     14  CG       -19.5800   -9.0040   13.5360 C.2    99  ASN99       0.2627
     15  OD1      -19.2310   -8.2700   14.4590 O.2    99  ASN99      -0.2716
     16  ND2      -18.7190   -9.7690   12.8560 N.am   99  ASN99      -0.0877
     17  N        -24.2680   -9.7380   14.9290 N.am  100  PHE100     -0.1976
     18  CA       -25.7170   -9.5490   14.8430 C.3   100  PHE100      0.1639
     19  C        -26.3730  -10.5040   13.8680 C.2   100  PHE100      0.2290
     20  O        -27.5880  -10.4930   13.6970 O.2   100  PHE100     -0.2864
     21  CB       -26.0520   -8.0840   14.5430 C.3   100  PHE100      0.0560
     22  CG       -25.4230   -7.1420   15.5160 C.ar  100  PHE100     -0.0200
     23  CD1      -25.8780   -7.0860   16.8290 C.ar  100  PHE100     -0.0042
     24  CD2      -24.3430   -6.3470   15.1430 C.ar  100  PHE100     -0.0042
     25  CE1      -25.2770   -6.2390   17.7530 C.ar  100  PHE100     -0.0003
     26  CE2      -23.7440   -5.5030   16.0520 C.ar  100  PHE100     -0.0003
     27  CZ       -24.2110   -5.4470   17.3640 C.ar  100  PHE100     -0.0000
     28  N        -22.4520  -13.7090   22.9400 N.3   147  GLY147     -0.1210
     29  CA       -21.5900  -13.0480   23.9100 C.3   147  GLY147      0.1956
     30  C        -22.3310  -12.0600   24.8070 C.2   147  GLY147      0.2612
     31  O        -22.1050  -12.0270   26.0180 O.2   147  GLY147     -0.2717
     32  N        -23.2160  -11.2570   24.2130 N.am  148  GLY148     -0.1942
     33  CA       -23.9700  -10.2510   24.9500 C.3   148  GLY148      0.2014
     34  C        -25.3480  -10.6970   25.4400 C.2   148  GLY148      0.2638
     35  O        -25.7000  -11.8760   25.3580 O.2   148  GLY148     -0.2714
     36  N        -26.1270   -9.7450   25.9520 N.am  149  HIS149     -0.1973
     37  CA       -27.4460  -10.0190   26.5310 C.3   149  HIS149      0.1656
     38  C        -28.5310   -9.2180   25.8280 C.2   149  HIS149      0.2291
     39  O        -28.2450   -8.2130   25.1850 O.2   149  HIS149     -0.2864
     40  CB       -27.4990   -9.6130   28.0060 C.3   149  HIS149      0.0771
     41  CG       -26.4930  -10.2970   28.8720 C.ar  149  HIS149      0.0820
     42  ND1      -26.7570  -11.4850   29.5210 N.ar  149  HIS149     -0.2267
     43  CD2      -25.2330   -9.9480   29.2230 C.ar  149  HIS149      0.1154
     44  CE1      -25.6990  -11.8430   30.2260 C.ar  149  HIS149      0.1986
     45  NE2      -24.7590  -10.9290   30.0610 N.ar  149  HIS149     -0.2212
     46  N        -30.8740  -10.0580   23.3820 N.3   151  PHE151     -0.1241
     47  CA       -31.2330  -10.2550   21.9720 C.3   151  PHE151      0.1605
     48  C        -32.5040  -11.1070   21.7630 C.2   151  PHE151      0.2264
     49  O        -32.9910  -11.2440   20.6410 O.2   151  PHE151     -0.2867
     50  CB       -30.0560  -10.8550   21.1820 C.3   151  PHE151      0.0534
     51  CG       -28.8400   -9.9590   21.1160 C.ar  151  PHE151     -0.0203
     52  CD1      -28.7140   -9.0050   20.1130 C.ar  151  PHE151     -0.0042
     53  CD2      -27.8070  -10.0890   22.0430 C.ar  151  PHE151     -0.0042
     54  CE1      -27.5910   -8.1800   20.0440 C.ar  151  PHE151     -0.0003
     55  CE2      -26.6740   -9.2590   21.9860 C.ar  151  PHE151     -0.0003
     56  CZ       -26.5720   -8.3020   20.9890 C.ar  151  PHE151     -0.0000
     57  N        -33.7380   -5.8770   25.5170 N.3   156  GLU156     -0.1231
     58  CA       -33.4100   -4.5040   25.1500 C.3   156  GLU156      0.1699
     59  C        -32.7820   -4.3810   23.7500 C.2   156  GLU156      0.2592
     60  O        -32.9270   -3.3570   23.0880 O.2   156  GLU156     -0.2718
     61  CB       -32.4910   -3.8870   26.2110 C.3   156  GLU156      0.0402
     62  CG       -31.3520   -4.7850   26.5500 C.3   156  GLU156      0.1161
     63  CD       -30.6220   -4.3010   27.7600 C.2   156  GLU156      0.3649
     64  OE1      -30.9470   -3.1650   28.2100 O.co2 156  GLU156     -0.2457
     65  OE2      -29.7060   -5.0260   28.2350 O.co2 156  GLU156     -0.2457
     66  N        -32.0950   -5.4270   23.2990 N.am  157  ASN157     -0.1974
     67  CA       -31.4530   -5.4110   21.9880 C.3   157  ASN157      0.1688
     68  C        -32.1360   -6.3180   20.9660 C.2   157  ASN157      0.2292
     69  O        -31.5290   -6.6980   19.9620 O.2   157  ASN157     -0.2864
     70  CB       -29.9840   -5.8290   22.1000 C.3   157  ASN157      0.1181
     71  CG       -29.2030   -4.9670   23.0570 C.2   157  ASN157      0.2629
     72  OD1      -29.2050   -3.7370   22.9560 O.2   157  ASN157     -0.2716
     73  ND2      -28.5170   -5.6080   23.9950 N.am  157  ASN157     -0.0877
     74  N        -31.7770   -5.7530   17.2710 N.3   160  MET160     -0.1245
     75  CA       -30.4600   -5.9870   16.6540 C.3   160  MET160      0.1570
     76  C        -30.2350   -7.4600   16.2980 C.2   160  MET160      0.2261
     77  O        -29.1950   -7.8250   15.7260 O.2   160  MET160     -0.2867
     78  CB       -29.3260   -5.5040   17.5670 C.3   160  MET160      0.0387
     79  CG       -29.4830   -4.0590   18.0960 C.3   160  MET160      0.0595
     80  SD       -28.1140   -3.5280   19.1720 S.3   160  MET160     -0.1393
     81  CE       -26.7740   -3.3710   17.9950 C.3   160  MET160      0.0692
     82  N        -19.6060  -13.7170   26.6960 N.3   188  GLU188     -0.1245
     83  CA       -18.4030  -12.8830   26.7610 C.3   188  GLU188      0.1567
     84  C        -18.1360  -12.3850   28.1700 C.2   188  GLU188      0.2260
     85  O        -17.0040  -12.0400   28.5120 O.2   188  GLU188     -0.2867
     86  CB       -18.4630  -11.7200   25.7610 C.3   188  GLU188      0.0388
     87  CG       -18.0250  -12.1340   24.3520 C.3   188  GLU188      0.1160
     88  CD       -18.3690  -11.1120   23.2720 C.2   188  GLU188      0.3649
     89  OE1      -19.2990  -10.2990   23.4790 O.co2 188  GLU188     -0.2457
     90  OE2      -17.7120  -11.1380   22.2050 O.co2 188  GLU188     -0.2457
@<TRIPOS>BOND
     1    16    14   am
     2    12    11    2
     3    13    14    1
     4    13    10    1
     5    14    15    2
     6    20    19    2
     7    19    18    1
     8    11    10    1
     9    11    17   am
    10    10     9    1
    11    21    18    1
    12    21    22    1
    13    18    17    1
    14    24    22   ar
    15    24    26   ar
    16    22    23   ar
    17    77    76    2
    18    26    27   ar
    19    76    75    1
    20     3     2    1
    21     3     4    2
    22    75    74    1
    23    75    78    1
    24    23    25   ar
    25     2     1    1
    26     2     5    1
    27     6     5    1
    28     6     7    1
    29    27    25   ar
    30    78    79    1
    31     8     7    1
    32    81    80    1
    33    79    80    1
    34    69    68    2
    35    54    52   ar
    36    54    56   ar
    37    52    51   ar
    38    49    48    2
    39    68    67    1
    40    56    55   ar
    41    51    50    1
    42    51    53   ar
    43    50    47    1
    44    48    47    1
    45    47    46    1
    46    55    53   ar
    47    67    70    1
    48    67    66    1
    49    70    71    1
    50    90    88   ar
    51    28    29    1
    52    72    71    2
    53    71    73   am
    54    60    59    2
    55    88    89   ar
    56    88    87    1
    57    66    59   am
    58    59    58    1
    59    29    30    1
    60    32    30   am
    61    32    33    1
    62    87    86    1
    63    30    31    2
    64    33    34    1
    65    58    57    1
    66    58    61    1
    67    39    38    2
    68    35    34    2
    69    34    36   am
    70    86    83    1
    71    38    37    1
    72    36    37    1
    73    61    62    1
    74    37    40    1
    75    62    63    1
    76    82    83    1
    77    83    84    1
    78    63    64   ar
    79    63    65   ar
    80    40    41    1
    81    84    85    2
    82    41    43   ar
    83    41    42   ar
    84    43    45   ar
    85    42    44   ar
    86    45    44   ar
