@<TRIPOS>MOLECULE
tmp/3ltbA00.pdb
 127 125 0 0 0
SMALL
GASTEIGER

@<TRIPOS>ATOM
      1  N         31.2050  -22.8290  -13.5730 N.3    28  ASP28      -0.1239
      2  CA        31.0040  -21.5170  -13.0220 C.3    28  ASP28       0.1674
      3  C         29.5440  -21.4230  -12.5670 C.2    28  ASP28       0.2266
      4  O         28.7120  -22.2110  -12.9940 O.2    28  ASP28      -0.2867
      5  CB        31.2990  -20.4410  -14.0710 C.3    28  ASP28       0.1410
      6  CG        31.4530  -19.0620  -13.4440 C.2    28  ASP28       0.3668
      7  OD1       31.5860  -18.9880  -12.2070 O.co2  28  ASP28      -0.2456
      8  OD2       31.4200  -18.0480  -14.1650 O.co2  28  ASP28      -0.2456
      9  N         26.6150  -18.4090  -10.3050 N.3    30  LYS30      -0.1245
     10  CA        26.4460  -17.2100   -9.5040 C.3    30  LYS30       0.1561
     11  C         25.1080  -17.2640   -8.7840 C.2    30  LYS30       0.2260
     12  O         24.2200  -18.0390   -9.1450 O.2    30  LYS30      -0.2867
     13  CB        26.6360  -15.9200  -10.3260 C.3    30  LYS30       0.0271
     14  CG        25.4350  -15.4800  -11.1100 C.3    30  LYS30       0.0035
     15  CD        25.6380  -14.1210  -11.8140 C.3    30  LYS30       0.0206
     16  CE        24.2700  -13.5690  -12.2600 C.3    30  LYS30       0.1093
     17  NZ        24.2710  -12.8170  -13.5780 N.3    30  LYS30      -0.1314
     18  N         21.7210  -15.4450   -7.8290 N.3    32  LYS32      -0.1245
     19  CA        20.8800  -14.5400   -8.6290 C.3    32  LYS32       0.1561
     20  C         19.5290  -14.3880   -7.8910 C.2    32  LYS32       0.2260
     21  O         18.5750  -15.1170   -8.1820 O.2    32  LYS32      -0.2867
     22  CB        20.6960  -15.1930  -10.0250 C.3    32  LYS32       0.0271
     23  CG        19.7250  -14.5220  -11.0070 C.3    32  LYS32       0.0035
     24  CD        20.4490  -13.8720  -12.2030 C.3    32  LYS32       0.0206
     25  CE        19.5340  -12.8490  -12.8860 C.3    32  LYS32       0.1093
     26  NZ        20.2430  -12.0950  -13.9620 N.3    32  LYS32      -0.1314
     27  N         22.3930  -19.9310  -10.3500 N.3    37  ARG37      -0.1245
     28  CA        22.6050  -20.1330  -11.7780 C.3    37  ARG37       0.1563
     29  C         23.8520  -20.9950  -11.9630 C.2    37  ARG37       0.2260
     30  O         24.9540  -20.5750  -11.5830 O.2    37  ARG37      -0.2867
     31  CB        22.8000  -18.7750  -12.4570 C.3    37  ARG37       0.0307
     32  CG        23.1710  -18.8300  -13.9320 C.3    37  ARG37       0.0489
     33  CD        22.9040  -17.5020  -14.6190 C.3    37  ARG37       0.2205
     34  NE        21.4610  -17.3210  -14.7390 N.pl3  37  ARG37      -0.0865
     35  CZ        20.8550  -16.3400  -15.4100 C.cat  37  ARG37       0.5346
     36  NH1       21.5570  -15.4160  -16.0470 N.pl3  37  ARG37       0.1354
     37  NH2       19.5390  -16.2970  -15.4590 N.pl3  37  ARG37       0.1354
     38  N         26.2850  -22.2970  -14.7090 N.3    39  TYR39      -0.1227
     39  CA        26.6720  -22.1350  -16.1140 C.3    39  TYR39       0.1736
     40  C         27.1380  -23.4700  -16.6480 C.2    39  TYR39       0.2595
     41  O         27.6480  -24.3130  -15.8900 O.2    39  TYR39      -0.2718
     42  CB        27.7870  -21.1250  -16.2300 C.3    39  TYR39       0.0548
     43  CG        27.3630  -19.7330  -15.8340 C.ar   39  TYR39      -0.0200
     44  CD1       26.4400  -19.0220  -16.6070 C.ar   39  TYR39      -0.0009
     45  CD2       27.8820  -19.1230  -14.7110 C.ar   39  TYR39      -0.0009
     46  CE1       26.0390  -17.7550  -16.2690 C.ar   39  TYR39       0.0417
     47  CE2       27.4830  -17.8500  -14.3520 C.ar   39  TYR39       0.0417
     48  CZ        26.5600  -17.1770  -15.1450 C.ar   39  TYR39       0.1957
     49  OH        26.1560  -15.9170  -14.8100 O.3    39  TYR39      -0.2866
     50  N         26.9660  -23.6940  -17.9410 N.am   40  ASN40      -0.1960
     51  CA        27.4090  -24.9610  -18.5240 C.3    40  ASN40       0.1819
     52  C         28.9320  -25.2060  -18.4900 C.2    40  ASN40       0.2621
     53  O         29.3750  -26.3570  -18.4950 O.2    40  ASN40      -0.2715
     54  CB        26.9140  -25.0770  -19.9670 C.3    40  ASN40       0.1195
     55  CG        25.4580  -24.8660  -20.0790 C.2    40  ASN40       0.2630
     56  OD1       24.6840  -25.3010  -19.2150 O.2    40  ASN40      -0.2716
     57  ND2       25.0440  -24.2020  -21.1500 N.am   40  ASN40      -0.0877
     58  N         29.7210  -24.1300  -18.4930 N.am   41  MET41      -0.1963
     59  CA        31.1680  -24.2660  -18.5190 C.3    41  MET41       0.1736
     60  C         31.8810  -23.7020  -17.2650 C.2    41  MET41       0.2617
     61  O         31.3470  -22.7960  -16.5910 O.2    41  MET41      -0.2715
     62  CB        31.7000  -23.5840  -19.7790 C.3    41  MET41       0.0427
     63  CG        31.5570  -24.4120  -21.0460 C.3    41  MET41       0.0599
     64  SD        32.2770  -23.5880  -22.5190 S.3    41  MET41      -0.1393
     65  CE        31.1860  -22.1470  -22.6720 C.3    41  MET41       0.0692
     66  N         33.0810  -24.2240  -16.9610 N.am   42  CYS42      -0.1954
     67  CA        33.9500  -23.5720  -15.9600 C.3    42  CYS42       0.1843
     68  C         34.3720  -22.2270  -16.5480 C.2    42  CYS42       0.2625
     69  O         34.1140  -21.9740  -17.7180 O.2    42  CYS42      -0.2714
     70  CB        35.1900  -24.4180  -15.6140 C.3    42  CYS42       0.0997
     71  SG        36.3050  -24.7310  -17.0100 S.3    42  CYS42      -0.0797
     72  N         35.0050  -21.3590  -15.7660 N.am   43  LYS43      -0.1977
     73  CA        35.3920  -20.0510  -16.2860 C.3    43  LYS43       0.1596
     74  C         36.4710  -20.1490  -17.3700 C.2    43  LYS43       0.2287
     75  O         36.4500  -19.3900  -18.3450 O.2    43  LYS43      -0.2864
     76  CB        35.8850  -19.1280  -15.1710 C.3    43  LYS43       0.0298
     77  CG        35.8540  -17.6370  -15.5400 C.3    43  LYS43       0.0038
     78  CD        34.4980  -16.9980  -15.2440 C.3    43  LYS43       0.0206
     79  CE        34.2980  -15.7950  -16.1180 C.3    43  LYS43       0.1093
     80  NZ        32.9030  -15.2180  -16.0780 N.3    43  LYS43      -0.1314
     81  N         34.8440  -21.1140  -20.6020 N.3    46  PHE46      -0.1241
     82  CA        34.0080  -20.0040  -21.0520 C.3    46  PHE46       0.1605
     83  C         34.8270  -18.8880  -21.7320 C.2    46  PHE46       0.2264
     84  O         34.5560  -18.5510  -22.8960 O.2    46  PHE46      -0.2867
     85  CB        33.1630  -19.4230  -19.9420 C.3    46  PHE46       0.0534
     86  CG        32.3500  -18.2360  -20.3890 C.ar   46  PHE46      -0.0203
     87  CD1       31.3350  -18.3980  -21.3560 C.ar   46  PHE46      -0.0042
     88  CD2       32.6010  -16.9460  -19.8610 C.ar   46  PHE46      -0.0042
     89  CE1       30.5610  -17.2890  -21.7950 C.ar   46  PHE46      -0.0003
     90  CE2       31.8600  -15.8370  -20.2930 C.ar   46  PHE46      -0.0003
     91  CZ        30.8180  -16.0010  -21.2710 C.ar   46  PHE46      -0.0000
     92  N         28.4880  -23.9770  -26.5110 N.3    57  TYR57      -0.1227
     93  CA        28.2690  -24.4690  -25.1360 C.3    57  TYR57       0.1736
     94  C         27.8480  -23.3860  -24.1680 C.2    57  TYR57       0.2595
     95  O         27.7200  -23.6410  -22.9750 O.2    57  TYR57      -0.2718
     96  CB        29.4990  -25.2150  -24.5850 C.3    57  TYR57       0.0548
     97  CG        29.8270  -26.3840  -25.4400 C.ar   57  TYR57      -0.0200
     98  CD1       29.0620  -27.5450  -25.3560 C.ar   57  TYR57      -0.0009
     99  CD2       30.8310  -26.3120  -26.4130 C.ar   57  TYR57      -0.0009
    100  CE1       29.3190  -28.6250  -26.1650 C.ar   57  TYR57       0.0417
    101  CE2       31.0960  -27.3990  -27.2550 C.ar   57  TYR57       0.0417
    102  CZ        30.3260  -28.5540  -27.1180 C.ar   57  TYR57       0.1957
    103  OH        30.5260  -29.6560  -27.9250 O.3    57  TYR57      -0.2866
    104  N         27.6470  -22.1770  -24.6730 N.am   58  HIS58      -0.1961
    105  CA        27.1210  -21.0930  -23.8570 C.3    58  HIS58       0.1787
    106  C         25.7720  -21.4820  -23.2620 C.2    58  HIS58       0.2621
    107  O         24.9770  -22.1170  -23.9230 O.2    58  HIS58      -0.2715
    108  CB        27.0070  -19.8370  -24.7270 C.3    58  HIS58       0.0785
    109  CG        28.3340  -19.2240  -25.0380 C.ar   58  HIS58       0.0821
    110  ND1       28.4710  -17.9790  -25.6130 N.ar   58  HIS58      -0.2267
    111  CD2       29.5960  -19.6810  -24.8110 C.ar   58  HIS58       0.1154
    112  CE1       29.7610  -17.7070  -25.7480 C.ar   58  HIS58       0.1986
    113  NE2       30.4630  -18.7240  -25.2700 N.ar   58  HIS58      -0.2212
    114  N         25.4950  -21.0950  -22.0150 N.am   59  GLY59      -0.1940
    115  CA        24.1760  -21.3700  -21.4170 C.3    59  GLY59       0.2014
    116  C         24.2660  -21.5810  -19.9140 C.2    59  GLY59       0.2638
    117  O         25.3460  -21.4380  -19.3390 O.2    59  GLY59      -0.2714
    118  N         23.1410  -21.9340  -19.2800 N.am   60  HIS60      -0.1973
    119  CA        23.0600  -22.0480  -17.8270 C.3    60  HIS60       0.1656
    120  C         21.7750  -22.7420  -17.4350 C.2    60  HIS60       0.2291
    121  O         20.8350  -22.8330  -18.2440 O.2    60  HIS60      -0.2864
    122  CB        23.1120  -20.6630  -17.1370 C.3    60  HIS60       0.0771
    123  CG        22.0550  -19.7000  -17.6040 C.ar   60  HIS60       0.0820
    124  ND1       22.2440  -18.8370  -18.6670 N.ar   60  HIS60      -0.2267
    125  CD2       20.8000  -19.4550  -17.1490 C.ar   60  HIS60       0.1154
    126  CE1       21.1540  -18.1080  -18.8510 C.ar   60  HIS60       0.1986
    127  NE2       20.2580  -18.4670  -17.9500 N.ar   60  HIS60      -0.2212
@<TRIPOS>BOND
     1   103   102    1
     2   101   102   ar
     3   101    99   ar
     4   102   100   ar
     5    92    93    1
     6    99    97   ar
     7   100    98   ar
     8   112   110   ar
     9   112   113   ar
    10   110   109   ar
    11    97    98   ar
    12    97    96    1
    13   113   111   ar
    14    93    96    1
    15    93    94    1
    16   109   111   ar
    17   109   108    1
    18   108   105    1
    19   104    94   am
    20   104   105    1
    21    94    95    2
    22   107   106    2
    23   105   106    1
    24   106   114   am
    25    84    83    2
    26    65    64    1
    27    64    63    1
    28   114   115    1
    29    89    87   ar
    30    89    91   ar
    31    83    82    1
    32   115   116    1
    33    87    86   ar
    34    91    90   ar
    35    57    55   am
    36    82    81    1
    37    82    85    1
    38    63    62    1
    39    86    85    1
    40    86    88   ar
    41    90    88   ar
    42    55    54    1
    43    55    56    2
    44    54    51    1
    45   116   117    2
    46   116   118   am
    47    62    59    1
    48   118   119    1
    49   126   124   ar
    50   126   127   ar
    51   124   123   ar
    52    51    52    1
    53    51    50    1
    54    59    58    1
    55    59    60    1
    56    53    52    2
    57    58    52   am
    58    75    74    2
    59   121   120    2
    60   127   125   ar
    61    50    40   am
    62   119   120    1
    63   119   122    1
    64    69    68    2
    65   123   125   ar
    66   123   122    1
    67    74    73    1
    68    60    66   am
    69    60    61    2
    70    71    70    1
    71    66    67    1
    72    40    39    1
    73    40    41    2
    74    44    46   ar
    75    44    43   ar
    76    68    67    1
    77    68    72   am
    78    73    72    1
    79    73    76    1
    80    46    48   ar
    81    42    39    1
    82    42    43    1
    83    79    80    1
    84    79    78    1
    85    39    38    1
    86    36    35    1
    87    67    70    1
    88    43    45   ar
    89    77    78    1
    90    77    76    1
    91    37    35    1
    92    35    34    2
    93    48    49    1
    94    48    47   ar
    95    34    33    1
    96    45    47   ar
    97    33    32    1
    98     8     6   ar
    99     5     6    1
   100     5     2    1
   101    26    25    1
   102    32    31    1
   103    17    16    1
   104     1     2    1
   105     6     7   ar
   106     2     3    1
   107     4     3    2
   108    25    24    1
   109    31    28    1
   110    16    15    1
   111    24    23    1
   112    29    28    1
   113    29    30    2
   114    15    14    1
   115    28    27    1
   116    14    13    1
   117    23    22    1
   118    13    10    1
   119     9    10    1
   120    22    19    1
   121    10    11    1
   122    12    11    2
   123    19    20    1
   124    19    18    1
   125    21    20    2
