@<TRIPOS>MOLECULE
tmp/3ltfB01.pdb
 102 98 0 0 0
SMALL
GASTEIGER

@<TRIPOS>ATOM
      1  N        -46.6630  -24.5620  -22.7600 N.3   406  TYR406     -0.1241
      2  CA       -47.3110  -24.2580  -24.0220 C.3   406  TYR406      0.1605
      3  C        -47.1590  -22.7700  -24.3250 C.2   406  TYR406      0.2264
      4  O        -46.9090  -22.3930  -25.4680 O.2   406  TYR406     -0.2867
      5  CB       -48.7920  -24.6330  -23.9590 C.3   406  TYR406      0.0534
      6  CG       -49.1020  -26.0900  -24.2520 C.ar  406  TYR406     -0.0201
      7  CD1      -48.5450  -27.1170  -23.4890 C.ar  406  TYR406     -0.0009
      8  CD2      -49.9840  -26.4380  -25.2820 C.ar  406  TYR406     -0.0009
      9  CE1      -48.8450  -28.4570  -23.7590 C.ar  406  TYR406      0.0417
     10  CE2      -50.2880  -27.7690  -25.5590 C.ar  406  TYR406      0.0417
     11  CZ       -49.7160  -28.7720  -24.7960 C.ar  406  TYR406      0.1957
     12  OH       -50.0110  -30.0880  -25.0670 O.3   406  TYR406     -0.2866
     13  N        -35.6780  -26.7630  -26.6970 N.3   425  HIS425     -0.1241
     14  CA       -36.2830  -28.1000  -26.6130 C.3   425  HIS425      0.1621
     15  C        -37.5800  -28.1830  -25.7950 C.2   425  HIS425      0.2264
     16  O        -37.8470  -29.1980  -25.1500 O.2   425  HIS425     -0.2867
     17  CB       -35.2720  -29.1520  -26.1340 C.3   425  HIS425      0.0745
     18  CG       -34.1430  -29.3910  -27.0890 C.ar  425  HIS425      0.0817
     19  ND1      -34.2960  -30.1040  -28.2610 N.ar  425  HIS425     -0.2268
     20  CD2      -32.8380  -29.0250  -27.0380 C.ar  425  HIS425      0.1154
     21  CE1      -33.1350  -30.1610  -28.8930 C.ar  425  HIS425      0.1986
     22  NE2      -32.2350  -29.5120  -28.1730 N.ar  425  HIS425     -0.2212
     23  N        -41.0150  -28.7850  -26.5410 N.3   427  ARG427     -0.1231
     24  CA       -41.7120  -29.3090  -27.7250 C.3   427  ARG427      0.1694
     25  C        -43.0940  -28.7120  -28.0150 C.2   427  ARG427      0.2592
     26  O        -43.5560  -28.7720  -29.1540 O.2   427  ARG427     -0.2718
     27  CB       -41.7650  -30.8440  -27.7060 C.3   427  ARG427      0.0321
     28  CG       -42.2570  -31.4570  -26.4010 C.3   427  ARG427      0.0489
     29  CD       -41.6090  -32.8180  -26.1590 C.3   427  ARG427      0.2205
     30  NE       -41.9840  -33.8040  -27.1740 N.pl3 427  ARG427     -0.0865
     31  CZ       -42.9790  -34.6820  -27.0470 C.cat 427  ARG427      0.5346
     32  NH1      -43.7130  -34.7070  -25.9390 N.pl3 427  ARG427      0.1354
     33  NH2      -43.2400  -35.5390  -28.0280 N.pl3 427  ARG427      0.1354
     34  N        -43.7340  -28.1300  -27.0010 N.am  428  ASP428     -0.1974
     35  CA       -45.0820  -27.5710  -27.1520 C.3   428  ASP428      0.1709
     36  C        -45.1660  -26.0500  -27.0570 C.2   428  ASP428      0.2293
     37  O        -46.2030  -25.4710  -27.3730 O.2   428  ASP428     -0.2864
     38  CB       -46.0280  -28.1830  -26.1180 C.3   428  ASP428      0.1436
     39  CG       -46.3740  -29.6220  -26.4210 C.2   428  ASP428      0.3671
     40  OD1      -46.5010  -29.9750  -27.6110 O.co2 428  ASP428     -0.2456
     41  OD2      -46.5310  -30.4020  -25.4610 O.co2 428  ASP428     -0.2456
     42  N        -35.2870  -25.1350  -31.0120 N.3   452  GLU452     -0.1231
     43  CA       -35.9800  -26.4220  -30.8310 C.3   452  GLU452      0.1699
     44  C        -37.3200  -26.4160  -30.0660 C.2   452  GLU452      0.2592
     45  O        -37.7590  -27.4500  -29.5530 O.2   452  GLU452     -0.2718
     46  CB       -35.0250  -27.4820  -30.2600 C.3   452  GLU452      0.0402
     47  CG       -33.7410  -27.6850  -31.0680 C.3   452  GLU452      0.1161
     48  CD       -33.9600  -28.2980  -32.4580 C.2   452  GLU452      0.3649
     49  OE1      -35.1210  -28.3860  -32.9260 O.co2 452  GLU452     -0.2457
     50  OE2      -32.9550  -28.6900  -33.0970 O.co2 452  GLU452     -0.2457
     51  N        -37.9750  -25.2610  -30.0190 N.am  453  ASN453     -0.1960
     52  CA       -39.3220  -25.1650  -29.4640 C.3   453  ASN453      0.1819
     53  C        -40.3460  -25.4390  -30.5640 C.2   453  ASN453      0.2621
     54  O        -39.9700  -25.5400  -31.7260 O.2   453  ASN453     -0.2715
     55  CB       -39.5390  -23.7850  -28.8440 C.3   453  ASN453      0.1195
     56  CG       -38.4290  -23.3960  -27.8890 C.2   453  ASN453      0.2630
     57  OD1      -38.3040  -23.9510  -26.7960 O.2   453  ASN453     -0.2716
     58  ND2      -37.6110  -22.4380  -28.3010 N.am  453  ASN453     -0.0877
     59  N        -41.6280  -25.5620  -30.2120 N.am  454  LEU454     -0.1963
     60  CA       -42.6760  -25.7870  -31.2210 C.3   454  LEU454      0.1728
     61  C        -42.5110  -24.8010  -32.3690 C.2   454  LEU454      0.2616
     62  O        -42.5310  -23.5820  -32.1730 O.2   454  LEU454     -0.2715
     63  CB       -44.0880  -25.6630  -30.6300 C.3   454  LEU454      0.0311
     64  CG       -45.2260  -26.5800  -31.1150 C.3   454  LEU454      0.0022
     65  CD1      -46.5800  -25.9290  -30.8800 C.3   454  LEU454      0.0001
     66  CD2      -45.1130  -27.0100  -32.5650 C.3   454  LEU454      0.0001
     67  N        -42.3310  -25.3550  -33.5610 N.am  455  ARG455     -0.1977
     68  CA       -42.0680  -24.5930  -34.7700 C.3   455  ARG455      0.1597
     69  C        -43.0970  -23.4970  -35.0420 C.2   455  ARG455      0.2287
     70  O        -44.3040  -23.7230  -34.9320 O.2   455  ARG455     -0.2864
     71  CB       -42.0120  -25.5460  -35.9540 C.3   455  ARG455      0.0334
     72  CG       -41.5620  -24.8990  -37.2190 C.3   455  ARG455      0.0492
     73  CD       -41.5450  -25.8950  -38.3240 C.3   455  ARG455      0.2205
     74  NE       -40.5080  -25.5450  -39.2800 N.pl3 455  ARG455     -0.0865
     75  CZ       -40.1810  -26.2860  -40.3290 C.cat 455  ARG455      0.5346
     76  NH1      -40.8190  -27.4270  -40.5650 N.pl3 455  ARG455      0.1354
     77  NH2      -39.2150  -25.8810  -41.1400 N.pl3 455  ARG455      0.1354
     78  N        -46.1320  -24.2330  -37.0610 N.3   458  LEU458     -0.1245
     79  CA       -47.0960  -25.1210  -36.4200 C.3   458  LEU458      0.1561
     80  C        -47.9240  -24.4120  -35.3530 C.2   458  LEU458      0.2260
     81  O        -49.0290  -24.8490  -35.0360 O.2   458  LEU458     -0.2867
     82  CB       -46.3920  -26.3530  -35.8450 C.3   458  LEU458      0.0270
     83  CG       -45.8460  -27.3700  -36.8530 C.3   458  LEU458      0.0019
     84  CD1      -44.7890  -28.2460  -36.2210 C.3   458  LEU458      0.0001
     85  CD2      -46.9600  -28.2170  -37.4250 C.3   458  LEU458      0.0001
     86  N        -50.6330  -22.3940  -37.6530 N.3   461  LYS461     -0.1231
     87  CA       -51.7340  -23.2430  -38.0930 C.3   461  LYS461      0.1693
     88  C        -52.7090  -23.5330  -36.9530 C.2   461  LYS461      0.2592
     89  O        -53.9140  -23.6380  -37.1770 O.2   461  LYS461     -0.2718
     90  CB       -51.2060  -24.5450  -38.7010 C.3   461  LYS461      0.0285
     91  CG       -50.7840  -24.4290  -40.1580 C.3   461  LYS461      0.0035
     92  CD       -51.9900  -24.4390  -41.0840 C.3   461  LYS461      0.0206
     93  CE       -51.5980  -24.0620  -42.4990 C.3   461  LYS461      0.1093
     94  NZ       -52.7770  -24.0450  -43.3990 N.3   461  LYS461     -0.1314
     95  N        -52.1810  -23.6590  -35.7370 N.am  462  ASN462     -0.1974
     96  CA       -53.0110  -23.7930  -34.5450 C.3   462  ASN462      0.1688
     97  C        -53.6880  -22.4780  -34.1840 C.2   462  ASN462      0.2292
     98  O        -54.7010  -22.4650  -33.4860 O.2   462  ASN462     -0.2864
     99  CB       -52.1810  -24.2700  -33.3540 C.3   462  ASN462      0.1181
    100  CG       -52.0300  -25.7780  -33.3000 C.2   462  ASN462      0.2629
    101  OD1      -52.7570  -26.5230  -33.9680 O.2   462  ASN462     -0.2716
    102  ND2      -51.0740  -26.2350  -32.4890 N.am  462  ASN462     -0.0877
@<TRIPOS>BOND
     1    94    93    1
     2    93    92    1
     3    77    75    1
     4    92    91    1
     5    76    75    1
     6    75    74    2
     7    91    90    1
     8    74    73    1
     9    90    87    1
    10    73    72    1
    11    87    86    1
    12    87    88    1
    13    85    83    1
    14    72    71    1
    15    89    88    2
    16    78    79    1
    17    88    95   am
    18    83    84    1
    19    83    82    1
    20    79    82    1
    21    79    80    1
    22    71    68    1
    23    95    96    1
    24    80    81    2
    25    69    70    2
    26    69    68    1
    27    68    67    1
    28    96    97    1
    29    96    99    1
    30    97    98    2
    31   101   100    2
    32    67    61   am
    33    99   100    1
    34   100   102   am
    35    50    48   ar
    36    49    48   ar
    37    66    64    1
    38    48    47    1
    39    61    62    2
    40    61    60    1
    41    54    53    2
    42    60    63    1
    43    60    59    1
    44    64    65    1
    45    64    63    1
    46    47    46    1
    47    42    43    1
    48    43    46    1
    49    43    44    1
    50    53    59   am
    51    53    52    1
    52    44    51   am
    53    44    45    2
    54    51    52    1
    55    52    55    1
    56    26    25    2
    57    21    19   ar
    58    21    22   ar
    59    55    56    1
    60    58    56   am
    61    19    18   ar
    62    22    20   ar
    63    33    31    1
    64    25    24    1
    65    25    34   am
    66    56    57    2
    67    24    27    1
    68    24    23    1
    69    27    28    1
    70    40    39   ar
    71    37    36    2
    72    30    31    2
    73    30    29    1
    74    35    36    1
    75    35    34    1
    76    35    38    1
    77    18    20   ar
    78    18    17    1
    79    31    32    1
    80    13    14    1
    81    14    17    1
    82    14    15    1
    83    39    38    1
    84    39    41   ar
    85    28    29    1
    86    15    16    2
    87    10     8   ar
    88    10    11   ar
    89     4     3    2
    90     8     6   ar
    91    12    11    1
    92    11     9   ar
    93     3     2    1
    94     6     5    1
    95     6     7   ar
    96     2     5    1
    97     2     1    1
    98     9     7   ar
