@<TRIPOS>MOLECULE
tmp/3ltfB00.pdb
 84 77 0 0 0
SMALL
GASTEIGER

@<TRIPOS>ATOM
      1  N        -50.9550  -26.1680   -9.6110 N.3   349  GLU349     -0.1245
      2  CA       -51.9150  -25.2020   -9.0740 C.3   349  GLU349      0.1567
      3  C        -51.3420  -24.4270   -7.8820 C.2   349  GLU349      0.2260
      4  O        -51.7560  -23.2990   -7.6140 O.2   349  GLU349     -0.2867
      5  CB       -53.2230  -25.8990   -8.6820 C.3   349  GLU349      0.0388
      6  CG       -53.9390  -26.5500   -9.8390 C.3   349  GLU349      0.1160
      7  CD       -54.4690  -25.6080  -10.8710 C.2   349  GLU349      0.3649
      8  OE1      -54.5820  -24.3800  -10.6180 O.co2 349  GLU349     -0.2457
      9  OE2      -54.8810  -26.1370  -11.9160 O.co2 349  GLU349     -0.2457
     10  N        -49.3310  -20.7660   -7.7660 N.3   352  GLU352     -0.1245
     11  CA       -50.0630  -19.5050   -7.6470 C.3   352  GLU352      0.1567
     12  C        -49.5140  -18.6350   -6.5300 C.2   352  GLU352      0.2260
     13  O        -49.7530  -17.4310   -6.4900 O.2   352  GLU352     -0.2867
     14  CB       -51.5520  -19.7700   -7.4250 C.3   352  GLU352      0.0388
     15  CG       -52.3320  -20.0040   -8.7090 C.3   352  GLU352      0.1160
     16  CD       -52.3740  -18.7740   -9.6200 C.2   352  GLU352      0.3649
     17  OE1      -52.3530  -17.6240   -9.1100 O.co2 352  GLU352     -0.2457
     18  OE2      -52.4390  -18.9640  -10.8560 O.co2 352  GLU352     -0.2457
     19  N        -50.4120  -30.5880  -16.4100 N.3   372  GLN372     -0.1245
     20  CA       -51.1460  -29.3710  -16.0560 C.3   372  GLN372      0.1566
     21  C        -50.2530  -28.1420  -15.9610 C.2   372  GLN372      0.2260
     22  O        -50.7500  -27.0320  -15.7550 O.2   372  GLN372     -0.2867
     23  CB       -51.8800  -29.5390  -14.7310 C.3   372  GLN372      0.0367
     24  CG       -53.0370  -30.5140  -14.7500 C.3   372  GLN372      0.0905
     25  CD       -53.4130  -30.9740  -13.3430 C.2   372  GLN372      0.2608
     26  OE1      -53.6920  -32.1560  -13.1200 O.2   372  GLN372     -0.2717
     27  NE2      -53.4040  -30.0420  -12.3820 N.am  372  GLN372     -0.0878
     28  N        -48.7750  -25.8350  -17.9180 N.3   374  ARG374     -0.1231
     29  CA       -48.9090  -25.4040  -19.3060 C.3   374  ARG374      0.1694
     30  C        -48.3870  -23.9960  -19.5850 C.2   374  ARG374      0.2592
     31  O        -47.8480  -23.7290  -20.6590 O.2   374  ARG374     -0.2718
     32  CB       -50.3590  -25.5500  -19.7690 C.3   374  ARG374      0.0321
     33  CG       -50.7230  -26.9720  -20.1190 C.3   374  ARG374      0.0489
     34  CD       -51.8950  -27.0250  -21.0850 C.3   374  ARG374      0.2205
     35  NE       -51.7640  -28.1370  -22.0330 N.pl3 374  ARG374     -0.0865
     36  CZ       -52.1850  -29.3830  -21.8190 C.cat 374  ARG374      0.5346
     37  NH1      -52.7840  -29.7190  -20.6780 N.pl3 374  ARG374      0.1354
     38  NH2      -52.0070  -30.3000  -22.7600 N.pl3 374  ARG374      0.1354
     39  N        -48.5550  -23.0950  -18.6270 N.am  375  ASN375     -0.1974
     40  CA       -48.0380  -21.7380  -18.7680 C.3   375  ASN375      0.1688
     41  C        -47.3250  -21.2630  -17.5160 C.2   375  ASN375      0.2292
     42  O        -47.0640  -22.0450  -16.6070 O.2   375  ASN375     -0.2864
     43  CB       -49.1380  -20.7540  -19.1960 C.3   375  ASN375      0.1181
     44  CG       -50.4240  -20.9350  -18.4230 C.2   375  ASN375      0.2629
     45  OD1      -50.4770  -20.7090  -17.2120 O.2   375  ASN375     -0.2716
     46  ND2      -51.4750  -21.3390  -19.1220 N.am  375  ASN375     -0.0877
     47  N        -48.2500  -18.2450  -15.8850 N.3   377  SER377     -0.1202
     48  CA       -49.0880  -17.1550  -15.3970 C.3   377  SER377      0.2020
     49  C        -48.9880  -16.9770  -13.8850 C.2   377  SER377      0.2618
     50  O        -49.5210  -16.0190  -13.3340 O.2   377  SER377     -0.2717
     51  CB       -50.5440  -17.3690  -15.8070 C.3   377  SER377      0.2103
     52  OG       -51.0710  -18.5150  -15.1740 O.3   377  SER377     -0.2182
     53  N        -48.3060  -17.9030  -13.2210 N.am  378  TYR378     -0.1975
     54  CA       -47.9900  -17.7570  -11.8070 C.3   378  TYR378      0.1639
     55  C        -47.0360  -16.5790  -11.6110 C.2   378  TYR378      0.2290
     56  O        -46.9970  -15.9780  -10.5400 O.2   378  TYR378     -0.2864
     57  CB       -47.3760  -19.0450  -11.2520 C.3   378  TYR378      0.0560
     58  CG       -48.0030  -20.3080  -11.8090 C.ar  378  TYR378     -0.0198
     59  CD1      -49.2650  -20.7300  -11.3890 C.ar  378  TYR378     -0.0009
     60  CD2      -47.3340  -21.0770  -12.7620 C.ar  378  TYR378     -0.0009
     61  CE1      -49.8430  -21.8840  -11.9010 C.ar  378  TYR378      0.0417
     62  CE2      -47.9070  -22.2320  -13.2820 C.ar  378  TYR378      0.0417
     63  CZ       -49.1600  -22.6270  -12.8470 C.ar  378  TYR378      0.1957
     64  OH       -49.7290  -23.7680  -13.3570 O.3   378  TYR378     -0.2866
     65  N        -47.3170  -21.9280  -23.3030 N.3   407  SER407     -0.1217
     66  CA       -47.0960  -20.4820  -23.4410 C.3   407  SER407      0.1889
     67  C        -46.4520  -19.8920  -22.1840 C.2   407  SER407      0.2288
     68  O        -46.3890  -20.5530  -21.1470 O.2   407  SER407     -0.2866
     69  CB       -48.3970  -19.7490  -23.7890 C.3   407  SER407      0.2089
     70  OG       -49.3320  -19.7970  -22.7260 O.3   407  SER407     -0.2183
     71  N        -47.0610  -16.3170  -20.8160 N.3   409  GLU409     -0.1245
     72  CA       -48.1150  -15.5990  -20.0800 C.3   409  GLU409      0.1567
     73  C        -47.6160  -14.5800  -19.0460 C.2   409  GLU409      0.2260
     74  O        -48.4170  -14.0120  -18.3010 O.2   409  GLU409     -0.2867
     75  CB       -49.0790  -16.5840  -19.4060 C.3   409  GLU409      0.0388
     76  CG       -49.7670  -17.5450  -20.3640 C.3   409  GLU409      0.1160
     77  CD       -50.7940  -16.8710  -21.2600 C.2   409  GLU409      0.3649
     78  OE1      -51.5330  -15.9870  -20.7660 O.co2 409  GLU409     -0.2457
     79  OE2      -50.8730  -17.2400  -22.4580 O.co2 409  GLU409     -0.2457
     80  N        -51.6460  -15.6510  -26.1360 N.3   478  ALA478     -0.1245
     81  CA       -52.5940  -15.4010  -27.2190 C.3   478  ALA478      0.1562
     82  C        -53.4340  -14.1510  -26.9870 C.2   478  ALA478      0.2260
     83  O        -53.8170  -13.4660  -27.9410 O.2   478  ALA478     -0.2867
     84  CB       -53.4970  -16.6050  -27.4170 C.3   478  ALA478      0.0290
@<TRIPOS>BOND
     1    83    82    2
     2    84    81    1
     3    81    82    1
     4    81    80    1
     5    69    66    1
     6    69    70    1
     7    66    65    1
     8    66    67    1
     9    38    36    1
    10    79    77   ar
    11    67    68    2
    12    35    36    2
    13    35    34    1
    14    36    37    1
    15    77    78   ar
    16    77    76    1
    17    34    33    1
    18    71    72    1
    19    31    30    2
    20    76    75    1
    21    33    32    1
    22    72    75    1
    23    72    73    1
    24    32    29    1
    25    30    29    1
    26    30    39   am
    27    29    28    1
    28    43    40    1
    29    43    44    1
    30    46    44   am
    31    73    74    2
    32    40    39    1
    33    40    41    1
    34    44    45    2
    35    41    42    2
    36    19    20    1
    37    20    21    1
    38    20    23    1
    39    21    22    2
    40    47    48    1
    41    51    48    1
    42    51    52    1
    43    48    49    1
    44    24    23    1
    45    24    25    1
    46    49    50    2
    47    49    53   am
    48    64    63    1
    49    25    26    2
    50    25    27   am
    51    62    63   ar
    52    62    60   ar
    53    53    54    1
    54    63    61   ar
    55    60    58   ar
    56     9     7   ar
    57    61    59   ar
    58    58    59   ar
    59    58    57    1
    60    54    55    1
    61    54    57    1
    62    55    56    2
    63     7     8   ar
    64     7     6    1
    65    18    16   ar
    66     6     5    1
    67    16    17   ar
    68    16    15    1
    69     1     2    1
    70     2     5    1
    71     2     3    1
    72    15    14    1
    73     3     4    2
    74    10    11    1
    75    11    14    1
    76    11    12    1
    77    12    13    2
