@<TRIPOS>MOLECULE
tmp/3ltfA00.pdb
 91 87 0 0 0
SMALL
GASTEIGER

@<TRIPOS>ATOM
      1  N        -26.9510   30.7210   41.9680 N.3   409  TYR409     -0.1241
      2  CA       -27.7440   30.5500   43.1810 C.3   409  TYR409      0.1605
      3  C        -28.3800   29.1640   43.2280 C.2   409  TYR409      0.2264
      4  O        -28.6700   28.6490   44.3080 O.2   409  TYR409     -0.2867
      5  CB       -28.8200   31.6340   43.2850 C.3   409  TYR409      0.0534
      6  CG       -28.3450   32.9370   43.8930 C.ar  409  TYR409     -0.0201
      7  CD1      -28.8870   33.4030   45.0890 C.ar  409  TYR409     -0.0009
      8  CD2      -27.3560   33.7070   43.2720 C.ar  409  TYR409     -0.0009
      9  CE1      -28.4570   34.6030   45.6560 C.ar  409  TYR409      0.0417
     10  CE2      -26.9150   34.9050   43.8300 C.ar  409  TYR409      0.0417
     11  CZ       -27.4700   35.3470   45.0230 C.ar  409  TYR409      0.1957
     12  OH       -27.0470   36.5320   45.5820 O.3   409  TYR409     -0.2866
     13  N        -16.1280   26.6230   45.5000 N.3   428  HIS428     -0.1241
     14  CA       -16.0640   28.0790   45.6760 C.3   428  HIS428      0.1621
     15  C        -17.1340   28.8700   44.9150 C.2   428  HIS428      0.2264
     16  O        -16.8300   29.8350   44.2160 O.2   428  HIS428     -0.2867
     17  CB       -14.6550   28.6160   45.3770 C.3   428  HIS428      0.0745
     18  CG       -14.4010   29.9850   45.9360 C.ar  428  HIS428      0.0817
     19  ND1      -13.7850   30.1910   47.1530 N.ar  428  HIS428     -0.2268
     20  CD2      -14.6940   31.2170   45.4500 C.ar  428  HIS428      0.1154
     21  CE1      -13.7060   31.4900   47.3900 C.ar  428  HIS428      0.1986
     22  NE2      -14.2520   32.1340   46.3740 N.ar  428  HIS428     -0.2212
     23  N        -19.8240   31.2230   45.9240 N.3   430  ARG430     -0.1231
     24  CA       -20.2270   31.9740   47.1220 C.3   430  ARG430      0.1694
     25  C        -21.7030   31.8550   47.4900 C.2   430  ARG430      0.2592
     26  O        -22.0430   31.8070   48.6720 O.2   430  ARG430     -0.2718
     27  CB       -19.8550   33.4540   46.9880 C.3   430  ARG430      0.0321
     28  CG       -18.4080   33.7830   47.3290 C.3   430  ARG430      0.0489
     29  CD       -18.1440   35.2890   47.2670 C.3   430  ARG430      0.2205
     30  NE       -18.7100   36.0000   48.4140 N.pl3 430  ARG430     -0.0865
     31  CZ       -18.3680   37.2330   48.7870 C.cat 430  ARG430      0.5346
     32  NH1      -17.4520   37.9110   48.1050 N.pl3 430  ARG430      0.1354
     33  NH2      -18.9370   37.7900   49.8520 N.pl3 430  ARG430      0.1354
     34  N        -22.5650   31.7950   46.4760 N.am  431  ASP431     -0.1974
     35  CA       -24.0150   31.8100   46.6780 C.3   431  ASP431      0.1709
     36  C        -24.7350   30.5660   46.1690 C.2   431  ASP431      0.2293
     37  O        -25.9620   30.4900   46.2600 O.2   431  ASP431     -0.2864
     38  CB       -24.6250   33.0520   46.0250 C.3   431  ASP431      0.1436
     39  CG       -23.9830   34.3320   46.5030 C.2   431  ASP431      0.3671
     40  OD1      -24.0650   34.6200   47.7160 O.co2 431  ASP431     -0.2456
     41  OD2      -23.3970   35.0480   45.6640 O.co2 431  ASP431     -0.2456
     42  N        -16.3810   24.3630   49.5160 N.3   455  GLU455     -0.1231
     43  CA       -16.3040   25.8400   49.5410 C.3   455  GLU455      0.1699
     44  C        -17.5310   26.6180   49.0400 C.2   455  GLU455      0.2592
     45  O        -17.4300   27.8200   48.7790 O.2   455  GLU455     -0.2718
     46  CB       -15.0690   26.3260   48.7730 C.3   455  GLU455      0.0402
     47  CG       -13.8620   26.7250   49.6120 C.3   455  GLU455      0.1161
     48  CD       -12.6900   27.2090   48.7420 C.2   455  GLU455      0.3649
     49  OE1      -12.9310   27.8090   47.6680 O.co2 455  GLU455     -0.2457
     50  OE2      -11.5240   26.9820   49.1330 O.co2 455  GLU455     -0.2457
     51  N        -18.6800   25.9610   48.9100 N.am  456  ASN456     -0.1960
     52  CA       -19.8810   26.6350   48.4050 C.3   456  ASN456      0.1819
     53  C        -20.5560   27.4790   49.4820 C.2   456  ASN456      0.2621
     54  O        -19.9000   27.9100   50.4230 O.2   456  ASN456     -0.2715
     55  CB       -20.8510   25.6180   47.8080 C.3   456  ASN456      0.1195
     56  CG       -20.2590   24.8820   46.6290 C.2   456  ASN456      0.2630
     57  OD1      -19.8870   25.4890   45.6230 O.2   456  ASN456     -0.2716
     58  ND2      -20.1610   23.5660   46.7470 N.am  456  ASN456     -0.0877
     59  N        -21.8530   27.7390   49.3400 N.am  457  LEU457     -0.1977
     60  CA       -22.6120   28.3760   50.4100 C.3   457  LEU457      0.1596
     61  C        -23.0530   27.2930   51.3790 C.2   457  LEU457      0.2287
     62  O        -23.5690   26.2600   50.9640 O.2   457  LEU457     -0.2864
     63  CB       -23.8240   29.1280   49.8530 C.3   457  LEU457      0.0297
     64  CG       -24.7360   29.9240   50.7950 C.3   457  LEU457      0.0022
     65  CD1      -24.0130   31.1180   51.3880 C.3   457  LEU457      0.0001
     66  CD2      -25.9880   30.3810   50.0610 C.3   457  LEU457      0.0001
     67  N        -26.8360   27.8630   56.0430 N.3   461  LEU461     -0.1245
     68  CA       -27.2460   29.1970   55.6040 C.3   461  LEU461      0.1561
     69  C        -28.3290   29.1090   54.5370 C.2   461  LEU461      0.2260
     70  O        -29.1630   30.0060   54.4070 O.2   461  LEU461     -0.2867
     71  CB       -26.0490   30.0010   55.0900 C.3   461  LEU461      0.0270
     72  CG       -25.0570   30.5430   56.1270 C.3   461  LEU461      0.0019
     73  CD1      -23.8090   31.1110   55.4530 C.3   461  LEU461      0.0001
     74  CD2      -25.7030   31.5890   57.0330 C.3   461  LEU461      0.0001
     75  N        -31.5460   28.3180   56.6300 N.3   464  LYS464     -0.1231
     76  CA       -32.0240   29.5480   57.2500 C.3   464  LYS464      0.1693
     77  C        -32.8030   30.4140   56.2500 C.2   464  LYS464      0.2592
     78  O        -33.8040   31.0340   56.6100 O.2   464  LYS464     -0.2718
     79  CB       -30.8400   30.3170   57.8520 C.3   464  LYS464      0.0285
     80  CG       -31.1870   31.2880   58.9780 C.3   464  LYS464      0.0035
     81  CD       -31.4090   30.5800   60.3020 C.3   464  LYS464      0.0206
     82  CE       -31.8890   31.5550   61.3600 C.3   464  LYS464      0.1093
     83  NZ       -32.6090   30.8520   62.4550 N.3   464  LYS464     -0.1314
     84  N        -32.3450   30.4310   54.9970 N.am  465  ASN465     -0.1974
     85  CA       -33.0360   31.1250   53.9060 C.3   465  ASN465      0.1688
     86  C        -34.2540   30.3850   53.3780 C.2   465  ASN465      0.2292
     87  O        -35.1230   30.9860   52.7440 O.2   465  ASN465     -0.2864
     88  CB       -32.0920   31.3490   52.7330 C.3   465  ASN465      0.1181
     89  CG       -31.1530   32.5060   52.9450 C.2   465  ASN465      0.2629
     90  OD1      -31.3220   33.3210   53.8570 O.2   465  ASN465     -0.2716
     91  ND2      -30.1430   32.5810   52.0870 N.am  465  ASN465     -0.0877
@<TRIPOS>BOND
     1     1     2    1
     2     2     3    1
     3     2     5    1
     4     3     4    2
     5     8    10   ar
     6     8     6   ar
     7     5     6    1
     8    10    11   ar
     9     6     7   ar
    10    16    15    2
    11    15    14    1
    12    11    12    1
    13    11     9   ar
    14     7     9   ar
    15    17    14    1
    16    17    18    1
    17    20    18   ar
    18    20    22   ar
    19    13    14    1
    20    57    56    2
    21    41    39   ar
    22    23    24    1
    23    18    19   ar
    24    38    39    1
    25    38    35    1
    26    36    37    2
    27    36    35    1
    28    22    21   ar
    29    34    35    1
    30    34    25   am
    31    39    40   ar
    32    56    58   am
    33    56    55    1
    34    27    24    1
    35    27    28    1
    36    24    25    1
    37    19    21   ar
    38    29    28    1
    39    29    30    1
    40    25    26    2
    41    49    48   ar
    42    55    52    1
    43    32    31    1
    44    52    51    1
    45    52    53    1
    46    30    31    2
    47    48    50   ar
    48    48    47    1
    49    46    43    1
    50    46    47    1
    51    45    44    2
    52    31    33    1
    53    51    44   am
    54    44    43    1
    55    59    53   am
    56    59    60    1
    57    53    54    2
    58    42    43    1
    59    63    60    1
    60    63    64    1
    61    66    64    1
    62    60    61    1
    63    64    65    1
    64    62    61    2
    65    91    89   am
    66    88    89    1
    67    88    85    1
    68    87    86    2
    69    89    90    2
    70    86    85    1
    71    85    84    1
    72    70    69    2
    73    69    68    1
    74    84    77   am
    75    71    68    1
    76    71    72    1
    77    73    72    1
    78    68    67    1
    79    72    74    1
    80    77    78    2
    81    77    76    1
    82    75    76    1
    83    76    79    1
    84    79    80    1
    85    80    81    1
    86    81    82    1
    87    82    83    1
