@<TRIPOS>MOLECULE
tmp/3lthA00.pdb
 130 120 0 0 0
SMALL
GASTEIGER

@<TRIPOS>ATOM
      1  N         46.2430   61.5130   67.3460 N.3    22  LYS22      -0.1231
      2  CA        46.9750   60.5120   66.5920 C.3    22  LYS22       0.1693
      3  C         47.1050   59.2530   67.4500 C.2    22  LYS22       0.2592
      4  O         46.8420   58.1250   66.9930 O.2    22  LYS22      -0.2718
      5  CB        48.4020   61.0140   66.3040 C.3    22  LYS22       0.0285
      6  CG        49.3960   59.9190   65.8580 C.3    22  LYS22       0.0035
      7  CD        50.8450   60.4180   66.0200 C.3    22  LYS22       0.0206
      8  CE        51.8850   59.4110   65.5120 C.3    22  LYS22       0.1093
      9  NZ        51.8010   58.0270   66.1660 N.3    22  LYS22      -0.1314
     10  N         47.5250   59.4540   68.7030 N.am   23  ASN23      -0.1974
     11  CA        47.7680   58.3270   69.5880 C.3    23  ASN23       0.1688
     12  C         46.6100   57.6900   70.3340 C.2    23  ASN23       0.2292
     13  O         46.8200   56.7760   71.1440 O.2    23  ASN23      -0.2864
     14  CB        48.9600   58.6450   70.5150 C.3    23  ASN23       0.1181
     15  CG        50.2580   58.7350   69.7410 C.2    23  ASN23       0.2629
     16  OD1       50.3620   58.1620   68.6530 O.2    23  ASN23      -0.2716
     17  ND2       51.2600   59.4440   70.2840 N.am   23  ASN23      -0.0877
     18  N         49.9840   57.7860   59.4880 N.3    49  ASP49      -0.1239
     19  CA        49.8870   56.5690   60.3180 C.3    49  ASP49       0.1674
     20  C         48.4790   55.9650   60.2250 C.2    49  ASP49       0.2266
     21  O         48.3130   54.7400   60.2970 O.2    49  ASP49      -0.2867
     22  CB        50.2160   56.8810   61.7990 C.3    49  ASP49       0.1410
     23  CG        51.7210   56.8940   62.0810 C.2    49  ASP49       0.3668
     24  OD1       52.4990   56.9650   61.1080 O.co2  49  ASP49      -0.2456
     25  OD2       52.1280   56.8400   63.2730 O.co2  49  ASP49      -0.2456
     26  N         54.9720   52.8020   64.6560 N.3    90  ARG90      -0.1231
     27  CA        55.0050   52.0520   65.9120 C.3    90  ARG90       0.1694
     28  C         53.6950   51.2800   66.2100 C.2    90  ARG90       0.2591
     29  O         53.7200   50.1490   66.7160 O.2    90  ARG90      -0.2718
     30  CB        55.2820   53.0280   67.0630 C.3    90  ARG90       0.0321
     31  CG        55.2840   52.3910   68.4490 C.3    90  ARG90       0.0489
     32  CD        56.5480   51.5550   68.6660 C.3    90  ARG90       0.2205
     33  NE        56.6770   51.0430   70.0480 N.pl3  90  ARG90      -0.0865
     34  CZ        57.6130   50.1660   70.4270 C.cat  90  ARG90       0.5346
     35  NH1       58.4890   49.7090   69.5420 N.pl3  90  ARG90       0.1354
     36  NH2       57.6850   49.7470   71.6910 N.pl3  90  ARG90       0.1354
     37  N         52.5650   51.8990   65.8930 N.am   91  ALA91      -0.1980
     38  CA        51.2440   51.3620   66.2070 C.3    91  ALA91       0.1597
     39  C         50.9380   49.9530   65.7190 C.2    91  ALA91       0.2287
     40  O         50.0280   49.2890   66.2340 O.2    91  ALA91      -0.2864
     41  CB        50.1690   52.3490   65.7050 C.3    91  ALA91       0.0319
     42  N         58.4450   53.3940   63.3200 N.3   113  GLY113     -0.1210
     43  CA        58.0330   54.5660   64.0710 C.3   113  GLY113      0.1956
     44  C         59.1900   55.4840   64.4110 C.2   113  GLY113      0.2612
     45  O         60.2990   55.3020   63.8970 O.2   113  GLY113     -0.2717
     46  N         58.9330   56.4820   65.2700 N.am  114  CYS114     -0.1970
     47  CA        59.9750   57.4380   65.6620 C.3   114  CYS114      0.1712
     48  C         61.3020   56.8040   66.0080 C.2   114  CYS114      0.2296
     49  O         61.3710   56.0040   66.9380 O.2   114  CYS114     -0.2864
     50  CB        59.4760   58.3330   66.8060 C.3   114  CYS114      0.0983
     51  SG        58.0770   59.3620   66.3050 S.3   114  CYS114     -0.0798
     52  N         63.9140   57.1800   67.8100 N.3   116  ILE116     -0.1245
     53  CA        64.3980   57.9300   68.9670 C.3   116  ILE116      0.1561
     54  C         64.8520   57.0500   70.1290 C.2   116  ILE116      0.2260
     55  O         64.9490   57.5010   71.2830 O.2   116  ILE116     -0.2867
     56  CB        63.2880   58.9100   69.4470 C.3   116  ILE116      0.0252
     57  CG1       62.0070   58.1260   69.8010 C.3   116  ILE116      0.0019
     58  CG2       63.0020   59.9250   68.3460 C.3   116  ILE116      0.0019
     59  CD1       60.9240   58.9780   70.4710 C.3   116  ILE116      0.0001
     60  N         63.5750   51.1680   71.3960 N.3   119  ARG119     -0.1245
     61  CA        62.1540   50.8200   71.4500 C.3   119  ARG119      0.1563
     62  C         61.7900   49.3330   71.3260 C.2   119  ARG119      0.2260
     63  O         61.1590   48.9050   70.3490 O.2   119  ARG119     -0.2867
     64  CB        61.3620   51.6020   70.3840 C.3   119  ARG119      0.0307
     65  CG        61.6180   53.0920   70.4370 C.3   119  ARG119      0.0489
     66  CD        60.6980   53.8540   69.4860 C.3   119  ARG119      0.2205
     67  NE        59.3470   53.9910   70.0280 N.pl3 119  ARG119     -0.0865
     68  CZ        58.3770   54.6430   69.4000 C.cat 119  ARG119      0.5346
     69  NH1       58.6200   55.2110   68.2170 N.pl3 119  ARG119      0.1354
     70  NH2       57.1610   54.7200   69.9420 N.pl3 119  ARG119      0.1354
     71  N         56.5110   63.6740   74.3620 N.3   304  ASP304     -0.1239
     72  CA        56.1030   64.1330   73.0170 C.3   304  ASP304      0.1674
     73  C         56.0590   65.6760   72.8760 C.2   304  ASP304      0.2266
     74  O         55.8400   66.1940   71.7720 O.2   304  ASP304     -0.2867
     75  CB        54.7680   63.5110   72.5920 C.3   304  ASP304      0.1410
     76  CG        54.9400   62.0960   72.0210 C.2   304  ASP304      0.3668
     77  OD1       56.0910   61.6650   71.8070 O.co2 304  ASP304     -0.2456
     78  OD2       53.9200   61.4120   71.7760 O.co2 304  ASP304     -0.2456
     79  N         63.0140   58.3980   76.3940 N.3   327  PHE327     -0.1241
     80  CA        63.7120   57.8270   75.2480 C.3   327  PHE327      0.1605
     81  C         65.1650   58.2170   75.3060 C.2   327  PHE327      0.2264
     82  O         65.4810   59.3150   75.7350 O.2   327  PHE327     -0.2867
     83  CB        63.0650   58.3280   73.9560 C.3   327  PHE327      0.0534
     84  CG        61.6980   57.7330   73.7100 C.ar  327  PHE327     -0.0203
     85  CD1       61.5730   56.3850   73.3690 C.ar  327  PHE327     -0.0042
     86  CD2       60.5430   58.5070   73.8420 C.ar  327  PHE327     -0.0042
     87  CE1       60.3080   55.8090   73.1510 C.ar  327  PHE327     -0.0003
     88  CE2       59.2690   57.9440   73.6320 C.ar  327  PHE327     -0.0003
     89  CZ        59.1570   56.6020   73.2870 C.ar  327  PHE327     -0.0000
     90  N         66.5760   61.1440   71.8220 N.3   330  ARG330     -0.1245
     91  CA        65.6380   62.1810   71.4020 C.3   330  ARG330      0.1563
     92  C         66.1780   63.6150   71.5040 C.2   330  ARG330      0.2260
     93  O         65.4480   64.5270   71.9130 O.2   330  ARG330     -0.2867
     94  CB        64.3250   62.0550   72.1920 C.3   330  ARG330      0.0307
     95  CG        63.1030   62.5790   71.4100 C.3   330  ARG330      0.0489
     96  CD        61.7560   62.3740   72.0930 C.3   330  ARG330      0.2205
     97  NE        60.7030   62.5690   71.0870 N.pl3 330  ARG330     -0.0865
     98  CZ        59.4190   62.2370   71.2310 C.cat 330  ARG330      0.5346
     99  NH1       58.9740   61.6900   72.3680 N.pl3 330  ARG330      0.1354
    100  NH2       58.5850   62.4180   70.2100 N.pl3 330  ARG330      0.1354
    101  N         59.0110   62.6700   63.7700 N.3   369  LEU369     -0.1231
    102  CA        57.8230   63.5170   63.8850 C.3   369  LEU369      0.1693
    103  C         57.9010   64.8240   64.6880 C.2   369  LEU369      0.2591
    104  O         57.7950   65.9000   64.1050 O.2   369  LEU369     -0.2718
    105  CB        56.6790   62.6620   64.4400 C.3   369  LEU369      0.0284
    106  CG        55.3580   63.3100   64.8680 C.3   369  LEU369      0.0019
    107  CD1       54.7820   64.0790   63.6940 C.3   369  LEU369      0.0001
    108  CD2       54.3490   62.1780   65.3220 C.3   369  LEU369      0.0001
    109  N         58.0690   64.7370   66.0070 N.am  370  ARG370     -0.1980
    110  CA        58.0780   65.9620   66.8210 C.3   370  ARG370      0.1597
    111  C         59.2750   66.8830   66.5870 C.2   370  ARG370      0.2287
    112  O         59.1230   68.1100   66.6540 O.2   370  ARG370     -0.2864
    113  CB        57.9650   65.6310   68.3200 C.3   370  ARG370      0.0334
    114  CG        56.7640   64.7200   68.6470 C.3   370  ARG370      0.0492
    115  CD        55.4160   65.3140   68.1450 C.3   370  ARG370      0.2205
    116  NE        54.3350   64.3440   68.2870 N.pl3 370  ARG370     -0.0865
    117  CZ        53.0740   64.5400   67.9000 C.cat 370  ARG370      0.5346
    118  NH1       52.6980   65.6870   67.3370 N.pl3 370  ARG370      0.1354
    119  NH2       52.1920   63.5770   68.0720 N.pl3 370  ARG370      0.1354
    120  N         52.8860   62.1720   59.6300 N.3   396  ARG396     -0.1245
    121  CA        52.5310   61.0260   60.4710 C.3   396  ARG396      0.1563
    122  C         51.7250   61.4730   61.6700 C.2   396  ARG396      0.2260
    123  O         50.9280   60.6920   62.2010 O.2   396  ARG396     -0.2867
    124  CB        53.7870   60.3360   61.0330 C.3   396  ARG396      0.0307
    125  CG        54.7460   59.6530   60.0290 C.3   396  ARG396      0.0489
    126  CD        55.8290   58.8610   60.8230 C.3   396  ARG396      0.2205
    127  NE        55.1900   57.8720   61.6990 N.pl3 396  ARG396     -0.0865
    128  CZ        55.6440   57.4830   62.8850 C.cat 396  ARG396      0.5346
    129  NH1       56.7750   57.9780   63.3820 N.pl3 396  ARG396      0.1354
    130  NH2       54.9290   56.6190   63.6060 N.pl3 396  ARG396      0.1354
@<TRIPOS>BOND
     1    18    19    1
     2   120   121    1
     3   125   126    1
     4   125   124    1
     5    20    21    2
     6    20    19    1
     7    19    22    1
     8   121   124    1
     9   121   122    1
    10   126   127    1
    11    24    23   ar
    12   122   123    2
    13   127   128    2
    14    22    23    1
    15    23    25   ar
    16   128   129    1
    17   128   130    1
    18    42    43    1
    19   107   106    1
    20   101   102    1
    21   102   105    1
    22   102   103    1
    23    45    44    2
    24    43    44    1
    25   104   103    2
    26    44    46   am
    27   105   106    1
    28    26    27    1
    29   103   109   am
    30   106   108    1
    31    46    47    1
    32     8     7    1
    33     8     9    1
    34    47    48    1
    35    47    50    1
    36    41    38    1
    37    39    38    1
    38    39    40    2
    39     6     7    1
    40     6     5    1
    41    37    38    1
    42    37    28   am
    43    27    28    1
    44    27    30    1
    45   109   110    1
    46    48    49    2
    47    28    29    2
    48     5     2    1
    49    51    50    1
    50   111   112    2
    51   111   110    1
    52     2     1    1
    53     2     3    1
    54   110   113    1
    55     4     3    2
    56    30    31    1
    57   118   117    1
    58     3    10   am
    59    52    53    1
    60   117   119    1
    61   117   116    2
    62   115   116    1
    63   115   114    1
    64    69    68    1
    65   113   114    1
    66    58    56    1
    67    31    32    1
    68    16    15    2
    69    32    33    1
    70    10    11    1
    71    53    56    1
    72    53    54    1
    73    68    70    1
    74    68    67    2
    75    56    57    1
    76    66    67    1
    77    66    65    1
    78    35    34    1
    79    11    12    1
    80    11    14    1
    81    15    17   am
    82    15    14    1
    83    57    59    1
    84    33    34    2
    85    54    55    2
    86   100    98    1
    87    12    13    2
    88    63    62    2
    89    64    65    1
    90    64    61    1
    91    34    36    1
    92    97    98    2
    93    97    96    1
    94    98    99    1
    95    62    61    1
    96    60    61    1
    97    91    92    1
    98    91    90    1
    99    91    94    1
   100    95    96    1
   101    95    94    1
   102    92    93    2
   103    74    73    2
   104    78    76   ar
   105    77    76   ar
   106    76    75    1
   107    75    72    1
   108    73    72    1
   109    72    71    1
   110    87    89   ar
   111    87    85   ar
   112    89    88   ar
   113    85    84   ar
   114    88    86   ar
   115    84    86   ar
   116    84    83    1
   117    83    80    1
   118    80    81    1
   119    80    79    1
   120    81    82    2
