@<TRIPOS>MOLECULE
tmp/3lthA01.pdb
 245 237 0 0 0
SMALL
GASTEIGER

@<TRIPOS>ATOM
      1  N         46.2430   61.5130   67.3460 N.3    22  LYS22      -0.1231
      2  CA        46.9750   60.5120   66.5920 C.3    22  LYS22       0.1693
      3  C         47.1050   59.2530   67.4500 C.2    22  LYS22       0.2592
      4  O         46.8420   58.1250   66.9930 O.2    22  LYS22      -0.2718
      5  CB        48.4020   61.0140   66.3040 C.3    22  LYS22       0.0285
      6  CG        49.3960   59.9190   65.8580 C.3    22  LYS22       0.0035
      7  CD        50.8450   60.4180   66.0200 C.3    22  LYS22       0.0206
      8  CE        51.8850   59.4110   65.5120 C.3    22  LYS22       0.1093
      9  NZ        51.8010   58.0270   66.1660 N.3    22  LYS22      -0.1314
     10  N         47.5250   59.4540   68.7030 N.am   23  ASN23      -0.1974
     11  CA        47.7680   58.3270   69.5880 C.3    23  ASN23       0.1688
     12  C         46.6100   57.6900   70.3340 C.2    23  ASN23       0.2292
     13  O         46.8200   56.7760   71.1440 O.2    23  ASN23      -0.2864
     14  CB        48.9600   58.6450   70.5150 C.3    23  ASN23       0.1181
     15  CG        50.2580   58.7350   69.7410 C.2    23  ASN23       0.2629
     16  OD1       50.3620   58.1620   68.6530 O.2    23  ASN23      -0.2716
     17  ND2       51.2600   59.4440   70.2840 N.am   23  ASN23      -0.0877
     18  N         44.9640   55.6040   66.7950 N.3    26  LEU26      -0.1245
     19  CA        45.6990   54.3960   66.4450 C.3    26  LEU26       0.1561
     20  C         45.3830   53.1790   67.3270 C.2    26  LEU26       0.2260
     21  O         45.0520   52.1250   66.8090 O.2    26  LEU26      -0.2867
     22  CB        47.2190   54.6870   66.4100 C.3    26  LEU26       0.0270
     23  CG        47.6840   55.6150   65.2630 C.3    26  LEU26       0.0019
     24  CD1       49.0960   56.1140   65.5300 C.3    26  LEU26       0.0001
     25  CD2       47.6020   54.8810   63.8970 C.3    26  LEU26       0.0001
     26  N         54.9720   52.8020   64.6560 N.3    90  ARG90      -0.1231
     27  CA        55.0050   52.0520   65.9120 C.3    90  ARG90       0.1694
     28  C         53.6950   51.2800   66.2100 C.2    90  ARG90       0.2591
     29  O         53.7200   50.1490   66.7160 O.2    90  ARG90      -0.2718
     30  CB        55.2820   53.0280   67.0630 C.3    90  ARG90       0.0321
     31  CG        55.2840   52.3910   68.4490 C.3    90  ARG90       0.0489
     32  CD        56.5480   51.5550   68.6660 C.3    90  ARG90       0.2205
     33  NE        56.6770   51.0430   70.0480 N.pl3  90  ARG90      -0.0865
     34  CZ        57.6130   50.1660   70.4270 C.cat  90  ARG90       0.5346
     35  NH1       58.4890   49.7090   69.5420 N.pl3  90  ARG90       0.1354
     36  NH2       57.6850   49.7470   71.6910 N.pl3  90  ARG90       0.1354
     37  N         52.5650   51.8990   65.8930 N.am   91  ALA91      -0.1980
     38  CA        51.2440   51.3620   66.2070 C.3    91  ALA91       0.1597
     39  C         50.9380   49.9530   65.7190 C.2    91  ALA91       0.2287
     40  O         50.0280   49.2890   66.2340 O.2    91  ALA91      -0.2864
     41  CB        50.1690   52.3490   65.7050 C.3    91  ALA91       0.0319
     42  N         50.2290   46.8700   67.9260 N.3    94  TRP94      -0.1241
     43  CA        48.9050   46.6500   68.5060 C.3    94  TRP94       0.1605
     44  C         47.9960   45.6650   67.7560 C.2    94  TRP94       0.2264
     45  O         46.8840   45.3720   68.2150 O.2    94  TRP94      -0.2867
     46  CB        48.1760   47.9820   68.7030 C.3    94  TRP94       0.0550
     47  CG        48.7480   48.7820   69.8360 C.ar   94  TRP94       0.0003
     48  CD1       49.1450   48.3100   71.0750 C.ar   94  TRP94       0.0946
     49  CD2       48.9650   50.1940   69.8550 C.ar   94  TRP94       0.0152
     50  NE1       49.6010   49.3690   71.8540 N.ar   94  TRP94      -0.2442
     51  CE2       49.4990   50.5270   71.1280 C.ar   94  TRP94       0.0810
     52  CE3       48.7660   51.2180   68.9130 C.ar   94  TRP94       0.0012
     53  CZ2       49.8380   51.8510   71.4870 C.ar   94  TRP94       0.0191
     54  CZ3       49.1120   52.5390   69.2690 C.ar   94  TRP94       0.0001
     55  CH2       49.6410   52.8370   70.5450 C.ar   94  TRP94       0.0015
     56  N         58.9330   56.4820   65.2700 N.3   114  CYS114     -0.1235
     57  CA        59.9750   57.4380   65.6620 C.3   114  CYS114      0.1677
     58  C         61.3020   56.8040   66.0080 C.2   114  CYS114      0.2270
     59  O         61.3710   56.0040   66.9380 O.2   114  CYS114     -0.2867
     60  CB        59.4760   58.3330   66.8060 C.3   114  CYS114      0.0956
     61  SG        58.0770   59.3620   66.3050 S.3   114  CYS114     -0.0801
     62  N         63.9140   57.1800   67.8100 N.3   116  ILE116     -0.1245
     63  CA        64.3980   57.9300   68.9670 C.3   116  ILE116      0.1561
     64  C         64.8520   57.0500   70.1290 C.2   116  ILE116      0.2260
     65  O         64.9490   57.5010   71.2830 O.2   116  ILE116     -0.2867
     66  CB        63.2880   58.9100   69.4470 C.3   116  ILE116      0.0252
     67  CG1       62.0070   58.1260   69.8010 C.3   116  ILE116      0.0019
     68  CG2       63.0020   59.9250   68.3460 C.3   116  ILE116      0.0019
     69  CD1       60.9240   58.9780   70.4710 C.3   116  ILE116      0.0001
     70  N         63.5750   51.1680   71.3960 N.3   119  ARG119     -0.1231
     71  CA        62.1540   50.8200   71.4500 C.3   119  ARG119      0.1679
     72  C         61.7900   49.3330   71.3260 C.2   119  ARG119      0.2434
     73  O         61.1590   48.9050   70.3490 O.2   119  ARG119     -0.2733
     74  CB        61.3620   51.6020   70.3840 C.3   119  ARG119      0.0321
     75  CG        61.6180   53.0920   70.4370 C.3   119  ARG119      0.0489
     76  CD        60.6980   53.8540   69.4860 C.3   119  ARG119      0.2205
     77  NE        59.3470   53.9910   70.0280 N.pl3 119  ARG119     -0.0865
     78  CZ        58.3770   54.6430   69.4000 C.cat 119  ARG119      0.5346
     79  NH1       58.6200   55.2110   68.2170 N.pl3 119  ARG119      0.1354
     80  NH2       57.1610   54.7200   69.9420 N.pl3 119  ARG119      0.1354
     81  N         62.1750   48.5290   72.3200 N.am  120  PRO120     -0.2718
     82  CA        61.8500   47.0990   72.2760 C.3   120  PRO120      0.1535
     83  C         60.3350   46.9090   72.5560 C.2   120  PRO120      0.2598
     84  O         59.6180   47.8790   72.8600 O.2   120  PRO120     -0.2715
     85  CB        62.7270   46.5150   73.3870 C.3   120  PRO120      0.0310
     86  CG        62.7930   47.6370   74.3920 C.3   120  PRO120      0.0237
     87  CD        63.0100   48.8540   73.4920 C.3   120  PRO120      0.0939
     88  N         59.8640   45.6750   72.4340 N.am  121  VAL121     -0.1964
     89  CA        58.4600   45.3400   72.6930 C.3   121  VAL121      0.1727
     90  C         58.3580   44.1900   73.6960 C.2   121  VAL121      0.2616
     91  O         57.3390   43.4770   73.7660 O.2   121  VAL121     -0.2715
     92  CB        57.7110   44.9510   71.3860 C.3   121  VAL121      0.0290
     93  CG1       57.5290   46.2030   70.5000 C.3   121  VAL121      0.0023
     94  CG2       58.4820   43.8620   70.6300 C.3   121  VAL121      0.0023
     95  N         59.4100   44.0200   74.4900 N.am  122  ASP122     -0.1957
     96  CA        59.4500   42.9640   75.5050 C.3   122  ASP122      0.1840
     97  C         58.2910   43.0180   76.5130 C.2   122  ASP122      0.2622
     98  O         57.8620   41.9790   77.0230 O.2   122  ASP122     -0.2715
     99  CB        60.7840   43.0320   76.2660 C.3   122  ASP122      0.1450
    100  CG        60.9900   44.3760   76.9520 C.2   122  ASP122      0.3671
    101  OD1       61.0990   45.3940   76.2400 O.co2 122  ASP122     -0.2456
    102  OD2       61.0260   44.4230   78.1980 O.co2 122  ASP122     -0.2456
    103  N         57.7780   44.2160   76.8010 N.am  123  LEU123     -0.1963
    104  CA        56.7030   44.3370   77.7710 C.3   123  LEU123      0.1728
    105  C         55.3720   43.8790   77.2010 C.2   123  LEU123      0.2616
    106  O         54.5150   43.4100   77.9490 O.2   123  LEU123     -0.2715
    107  CB        56.6030   45.7750   78.3010 C.3   123  LEU123      0.0311
    108  CG        57.8430   46.2490   79.0790 C.3   123  LEU123      0.0022
    109  CD1       57.6420   47.7250   79.4520 C.3   123  LEU123      0.0001
    110  CD2       58.0440   45.4080   80.3640 C.3   123  LEU123      0.0001
    111  N         55.2180   44.0000   75.8790 N.am  124  HIS124     -0.1973
    112  CA        54.0090   43.5490   75.1910 C.3   124  HIS124      0.1656
    113  C         54.0520   42.0280   75.2460 C.2   124  HIS124      0.2291
    114  O         53.0420   41.3790   75.5240 O.2   124  HIS124     -0.2864
    115  CB        54.0260   43.9730   73.7120 C.3   124  HIS124      0.0771
    116  CG        53.9510   45.4530   73.4990 C.ar  124  HIS124      0.0820
    117  ND1       52.8380   46.0750   72.9730 N.ar  124  HIS124     -0.2267
    118  CD2       54.8730   46.4260   73.6940 C.ar  124  HIS124      0.1154
    119  CE1       53.0820   47.3710   72.8480 C.ar  124  HIS124      0.1986
    120  NE2       54.3110   47.6070   73.2780 N.ar  124  HIS124     -0.2212
    121  N         57.8490   48.2020   84.3390 N.3   159  LYS159     -0.1231
    122  CA        58.1420   49.5380   83.8320 C.3   159  LYS159      0.1693
    123  C         56.8590   50.1030   83.2670 C.2   159  LYS159      0.2592
    124  O         55.9550   49.3490   82.9110 O.2   159  LYS159     -0.2718
    125  CB        59.1910   49.4830   82.7160 C.3   159  LYS159      0.0285
    126  CG        60.4680   48.7660   83.1090 C.3   159  LYS159      0.0035
    127  CD        61.4540   48.6980   81.9490 C.3   159  LYS159      0.0206
    128  CE        62.6250   47.7900   82.3070 C.3   159  LYS159      0.1093
    129  NZ        63.5610   47.5610   81.1650 N.3   159  LYS159     -0.1314
    130  N         56.7750   51.4280   83.1980 N.am  160  VAL160     -0.1966
    131  CA        55.5840   52.0760   82.6630 C.3   160  VAL160      0.1727
    132  C         55.6500   52.0860   81.1340 C.2   160  VAL160      0.2617
    133  O         56.6290   52.5760   80.5390 O.2   160  VAL160     -0.2715
    134  CB        55.4640   53.5300   83.1810 C.3   160  VAL160      0.0290
    135  CG1       54.2250   54.2010   82.5850 C.3   160  VAL160      0.0023
    136  CG2       55.3640   53.5160   84.7250 C.3   160  VAL160      0.0023
    137  N         54.6300   51.5250   80.4960 N.am  161  SER161     -0.1936
    138  CA        54.5920   51.4890   79.0370 C.3   161  SER161      0.2055
    139  C         53.1980   51.7650   78.5050 C.2   161  SER161      0.2643
    140  O         52.2510   51.0360   78.8060 O.2   161  SER161     -0.2714
    141  CB        55.0520   50.1320   78.5100 C.3   161  SER161      0.2130
    142  OG        54.8380   50.0500   77.1000 O.3   161  SER161     -0.2179
    143  N         53.0740   52.8390   77.7260 N.am  162  VAL162     -0.1963
    144  CA        51.7900   53.1700   77.1140 C.3   162  VAL162      0.1727
    145  C         51.3900   51.9950   76.2110 C.2   162  VAL162      0.2616
    146  O         50.3060   51.4160   76.3440 O.2   162  VAL162     -0.2715
    147  CB        51.9280   54.4560   76.2480 C.3   162  VAL162      0.0290
    148  CG1       50.6740   54.6640   75.3650 C.3   162  VAL162      0.0023
    149  CG2       52.1740   55.6740   77.1790 C.3   162  VAL162      0.0023
    150  N         52.2900   51.6340   75.3020 N.am  163  GLY163     -0.1955
    151  CA        51.9760   50.5780   74.3580 C.3   163  GLY163      0.1869
    152  C         51.6110   49.2340   74.9570 C.2   163  GLY163      0.2309
    153  O         50.6320   48.6030   74.5320 O.2   163  GLY163     -0.2863
    154  N         48.1900   57.5090   80.4970 N.3   187  GLU187     -0.1245
    155  CA        47.8990   58.4310   79.3980 C.3   187  GLU187      0.1567
    156  C         46.4250   58.5950   78.9940 C.2   187  GLU187      0.2260
    157  O         45.6250   57.6520   79.0350 O.2   187  GLU187     -0.2867
    158  CB        48.7360   58.0530   78.1700 C.3   187  GLU187      0.0388
    159  CG        50.1110   58.7620   78.0850 C.3   187  GLU187      0.1160
    160  CD        51.1160   58.3250   79.1570 C.2   187  GLU187      0.3649
    161  OE1       50.8390   57.3560   79.9060 O.co2 187  GLU187     -0.2457
    162  OE2       52.2040   58.9530   79.2330 O.co2 187  GLU187     -0.2457
    163  N         46.3660   66.1440   72.3220 N.3   231  ARG231     -0.1245
    164  CA        47.0470   67.0300   73.2640 C.3   231  ARG231      0.1563
    165  C         48.4260   67.4960   72.7920 C.2   231  ARG231      0.2260
    166  O         48.8620   68.5840   73.1630 O.2   231  ARG231     -0.2867
    167  CB        47.1760   66.3450   74.6390 C.3   231  ARG231      0.0307
    168  CG        48.0300   65.0700   74.6560 C.3   231  ARG231      0.0489
    169  CD        47.8410   64.3190   75.9800 C.3   231  ARG231      0.2205
    170  NE        48.3840   62.9630   75.8790 N.pl3 231  ARG231     -0.0865
    171  CZ        49.6140   62.5990   76.2170 C.cat 231  ARG231      0.5346
    172  NH1       50.4830   63.4780   76.7220 N.pl3 231  ARG231      0.1354
    173  NH2       50.0000   61.3450   75.9840 N.pl3 231  ARG231      0.1354
    174  N         55.0070   65.4630   79.2140 N.3   302  PRO302     -0.2102
    175  CA        55.1930   64.4610   78.1530 C.3   302  PRO302      0.1504
    176  C         56.4110   64.5440   77.2400 C.2   302  PRO302      0.2576
    177  O         56.7450   65.6190   76.7420 O.2   302  PRO302     -0.2718
    178  CB        53.8860   64.5600   77.3760 C.3   302  PRO302      0.0282
    179  CG        53.5550   66.0650   77.4570 C.3   302  PRO302      0.0208
    180  CD        53.8700   66.3660   78.9250 C.3   302  PRO302      0.0893
    181  N         57.0570   63.4000   77.0130 N.am  303  THR303     -0.1939
    182  CA        58.2130   63.3820   76.1270 C.3   303  THR303      0.2028
    183  C         57.7770   63.8640   74.7280 C.2   303  THR303      0.2642
    184  O         58.5730   64.4400   73.9910 O.2   303  THR303     -0.2714
    185  CB        58.8410   61.9590   76.0330 C.3   303  THR303      0.1808
    186  OG1       59.8970   61.9690   75.0630 O.3   303  THR303     -0.2208
    187  CG2       57.7820   60.9020   75.6290 C.3   303  THR303      0.0379
    188  N         56.5110   63.6740   74.3620 N.am  304  ASP304     -0.1971
    189  CA        56.1030   64.1330   73.0170 C.3   304  ASP304      0.1709
    190  C         56.0590   65.6760   72.8760 C.2   304  ASP304      0.2293
    191  O         55.8400   66.1940   71.7720 O.2   304  ASP304     -0.2864
    192  CB        54.7680   63.5110   72.5920 C.3   304  ASP304      0.1436
    193  CG        54.9400   62.0960   72.0210 C.2   304  ASP304      0.3671
    194  OD1       56.0910   61.6650   71.8070 O.co2 304  ASP304     -0.2456
    195  OD2       53.9200   61.4120   71.7760 O.co2 304  ASP304     -0.2456
    196  N         62.4930   59.3520   79.1230 N.3   326  ILE326     -0.1231
    197  CA        61.7580   58.2780   78.4670 C.3   326  ILE326      0.1692
    198  C         62.5090   57.6040   77.3280 C.2   326  ILE326      0.2592
    199  O         62.6320   56.3730   77.2880 O.2   326  ILE326     -0.2718
    200  CB        60.3890   58.8110   77.9280 C.3   326  ILE326      0.0266
    201  CG1       59.6310   59.5460   79.0420 C.3   326  ILE326      0.0019
    202  CG2       59.5330   57.6520   77.3950 C.3   326  ILE326      0.0020
    203  CD1       59.1220   58.6260   80.1770 C.3   326  ILE326      0.0001
    204  N         63.0140   58.3980   76.3940 N.am  327  PHE327     -0.1962
    205  CA        63.7120   57.8270   75.2480 C.3   327  PHE327      0.1771
    206  C         65.1650   58.2170   75.3060 C.2   327  PHE327      0.2619
    207  O         65.4810   59.3150   75.7350 O.2   327  PHE327     -0.2715
    208  CB        63.0650   58.3280   73.9560 C.3   327  PHE327      0.0574
    209  CG        61.6980   57.7330   73.7100 C.ar  327  PHE327     -0.0200
    210  CD1       61.5730   56.3850   73.3690 C.ar  327  PHE327     -0.0042
    211  CD2       60.5430   58.5070   73.8420 C.ar  327  PHE327     -0.0042
    212  CE1       60.3080   55.8090   73.1510 C.ar  327  PHE327     -0.0003
    213  CE2       59.2690   57.9440   73.6320 C.ar  327  PHE327     -0.0003
    214  CZ        59.1570   56.6020   73.2870 C.ar  327  PHE327     -0.0000
    215  N         66.0380   57.3350   74.8300 N.am  328  GLU328     -0.1977
    216  CA        67.4880   57.5770   74.8830 C.3   328  GLU328      0.1602
    217  C         68.1210   58.3310   73.7090 C.2   328  GLU328      0.2287
    218  O         69.2590   58.7850   73.8020 O.2   328  GLU328     -0.2864
    219  CB        68.2210   56.2370   75.0530 C.3   328  GLU328      0.0415
    220  CG        68.0510   55.2940   73.8590 C.3   328  GLU328      0.1163
    221  CD        66.8690   54.2970   73.9790 C.2   328  GLU328      0.3649
    222  OE1       65.7480   54.6820   74.4150 O.co2 328  GLU328     -0.2457
    223  OE2       67.0760   53.1120   73.5970 O.co2 328  GLU328     -0.2457
    224  N         66.5760   61.1440   71.8220 N.3   330  ARG330     -0.1245
    225  CA        65.6380   62.1810   71.4020 C.3   330  ARG330      0.1563
    226  C         66.1780   63.6150   71.5040 C.2   330  ARG330      0.2260
    227  O         65.4480   64.5270   71.9130 O.2   330  ARG330     -0.2867
    228  CB        64.3250   62.0550   72.1920 C.3   330  ARG330      0.0307
    229  CG        63.1030   62.5790   71.4100 C.3   330  ARG330      0.0489
    230  CD        61.7560   62.3740   72.0930 C.3   330  ARG330      0.2205
    231  NE        60.7030   62.5690   71.0870 N.pl3 330  ARG330     -0.0865
    232  CZ        59.4190   62.2370   71.2310 C.cat 330  ARG330      0.5346
    233  NH1       58.9740   61.6900   72.3680 N.pl3 330  ARG330      0.1354
    234  NH2       58.5850   62.4180   70.2100 N.pl3 330  ARG330      0.1354
    235  N         58.0690   64.7370   66.0070 N.3   370  ARG370     -0.1245
    236  CA        58.0780   65.9620   66.8210 C.3   370  ARG370      0.1563
    237  C         59.2750   66.8830   66.5870 C.2   370  ARG370      0.2260
    238  O         59.1230   68.1100   66.6540 O.2   370  ARG370     -0.2867
    239  CB        57.9650   65.6310   68.3200 C.3   370  ARG370      0.0307
    240  CG        56.7640   64.7200   68.6470 C.3   370  ARG370      0.0489
    241  CD        55.4160   65.3140   68.1450 C.3   370  ARG370      0.2205
    242  NE        54.3350   64.3440   68.2870 N.pl3 370  ARG370     -0.0865
    243  CZ        53.0740   64.5400   67.9000 C.cat 370  ARG370      0.5346
    244  NH1       52.6980   65.6870   67.3370 N.pl3 370  ARG370      0.1354
    245  NH2       52.1920   63.5770   68.0720 N.pl3 370  ARG370      0.1354
@<TRIPOS>BOND
     1    25    23    1
     2    26    27    1
     3    23    24    1
     4    23    22    1
     5    56    57    1
     6     8     7    1
     7     8     9    1
     8    57    58    1
     9    57    60    1
    10    41    38    1
    11    39    38    1
    12    39    40    2
    13     6     7    1
    14     6     5    1
    15    37    38    1
    16    37    28   am
    17    27    28    1
    18    27    30    1
    19   235   236    1
    20    58    59    2
    21    28    29    2
    22     5     2    1
    23    61    60    1
    24    22    19    1
    25    19    18    1
    26    19    20    1
    27   237   238    2
    28   237   236    1
    29     2     1    1
    30     2     3    1
    31    21    20    2
    32   236   239    1
    33     4     3    2
    34    30    31    1
    35   244   243    1
    36     3    10   am
    37    44    45    2
    38    44    43    1
    39    62    63    1
    40   243   245    1
    41   243   242    2
    42    42    43    1
    43   241   242    1
    44   241   240    1
    45    79    78    1
    46   239   240    1
    47    68    66    1
    48    31    32    1
    49    43    46    1
    50    16    15    2
    51    32    33    1
    52    10    11    1
    53    46    47    1
    54    52    54   ar
    55    52    49   ar
    56    63    66    1
    57    63    64    1
    58    54    55   ar
    59    78    80    1
    60    78    77    2
    61    66    67    1
    62    76    77    1
    63    76    75    1
    64    35    34    1
    65    11    12    1
    66    11    14    1
    67    15    17   am
    68    15    14    1
    69    67    69    1
    70    47    49   ar
    71    47    48   ar
    72    49    51   ar
    73    33    34    2
    74    64    65    2
    75   234   232    1
    76    12    13    2
    77    73    72    2
    78    74    75    1
    79    74    71    1
    80    34    36    1
    81    93    92    1
    82    55    53   ar
    83    94    92    1
    84    48    50   ar
    85   231   232    2
    86   231   230    1
    87    51    53   ar
    88    51    50   ar
    89   232   233    1
    90    72    71    1
    91    72    81   am
    92    92    89    1
    93    70    71    1
    94   225   226    1
    95   225   224    1
    96   225   228    1
    97   229   230    1
    98   229   228    1
    99   226   227    2
   100   191   190    2
   101   195   193   ar
   102   194   193   ar
   103   193   192    1
   104    82    81    1
   105    82    83    1
   106    82    85    1
   107    81    87    1
   108   163   164    1
   109    88    83   am
   110    88    89    1
   111    83    84    2
   112   192   189    1
   113    89    90    1
   114   165   166    2
   115   165   164    1
   116   119   117   ar
   117   119   120   ar
   118   190   189    1
   119   117   116   ar
   120   189   188    1
   121   212   214   ar
   122   212   210   ar
   123   164   167    1
   124   120   118   ar
   125   214   213   ar
   126   210   209   ar
   127    85    86    1
   128    87    86    1
   129   116   118   ar
   130   116   115    1
   131   223   221   ar
   132   213   211   ar
   133    90    91    2
   134    90    95   am
   135   217   218    2
   136   217   216    1
   137   209   211   ar
   138   209   208    1
   139   115   112    1
   140   220   221    1
   141   220   219    1
   142   208   205    1
   143   221   222   ar
   144   184   183    2
   145   151   152    1
   146   151   150    1
   147   188   183   am
   148    95    96    1
   149   153   152    2
   150   167   168    1
   151   168   169    1
   152   183   182    1
   153   215   216    1
   154   215   206   am
   155   216   219    1
   156   186   185    1
   157   112   113    1
   158   112   111    1
   159   113   114    2
   160   205   206    1
   161   205   204    1
   162   150   145   am
   163   206   207    2
   164   148   147    1
   165    96    99    1
   166    96    97    1
   167   187   185    1
   168   111   105   am
   169   170   169    1
   170   170   171    2
   171   173   171    1
   172   185   182    1
   173   182   181    1
   174   145   146    2
   175   145   144    1
   176   171   172    1
   177   101   100   ar
   178   147   144    1
   179   147   149    1
   180    99   100    1
   181   204   198   am
   182    97   103   am
   183    97    98    2
   184   177   176    2
   185   103   104    1
   186   100   102   ar
   187   181   176   am
   188   142   141    1
   189   144   143    1
   190   105   104    1
   191   105   106    2
   192   176   175    1
   193   199   198    2
   194   198   197    1
   195   178   179    1
   196   178   175    1
   197   202   200    1
   198   179   180    1
   199   143   139   am
   200   104   107    1
   201   200   197    1
   202   200   201    1
   203   159   158    1
   204   159   160    1
   205   175   174    1
   206   158   155    1
   207   107   108    1
   208   197   196    1
   209   139   140    2
   210   139   138    1
   211   141   138    1
   212   180   174    1
   213   156   157    2
   214   156   155    1
   215   138   137    1
   216   201   203    1
   217   108   109    1
   218   108   110    1
   219   160   162   ar
   220   160   161   ar
   221   155   154    1
   222   137   132   am
   223   133   132    2
   224   132   131    1
   225   129   128    1
   226   127   128    1
   227   127   126    1
   228   135   134    1
   229   131   134    1
   230   131   130    1
   231   125   126    1
   232   125   122    1
   233   124   123    2
   234   134   136    1
   235   130   123   am
   236   123   122    1
   237   122   121    1
