@<TRIPOS>MOLECULE
tmp/3ltwA01.pdb
 102 99 0 0 0
SMALL
GASTEIGER

@<TRIPOS>ATOM
      1  N        -37.9960  -11.2710  -22.6630 N.3   145  GLN145     -0.1245
      2  CA       -37.5790  -10.1030  -23.4330 C.3   145  GLN145      0.1566
      3  C        -37.6700   -8.8350  -22.5870 C.2   145  GLN145      0.2260
      4  O        -38.6810   -8.5940  -21.9240 O.2   145  GLN145     -0.2867
      5  CB       -38.4270   -9.9720  -24.7050 C.3   145  GLN145      0.0367
      6  CG       -38.0340   -8.8150  -25.6320 C.3   145  GLN145      0.0905
      7  CD       -36.6340   -8.9590  -26.2090 C.2   145  GLN145      0.2608
      8  OE1      -36.3430   -9.9040  -26.9420 O.2   145  GLN145     -0.2717
      9  NE2      -35.7640   -8.0110  -25.8850 N.am  145  GLN145     -0.0878
     10  N        -34.1490   -4.1460  -23.9060 N.3   148  LEU148     -0.1231
     11  CA       -32.9430   -4.3640  -24.6950 C.3   148  LEU148      0.1693
     12  C        -32.8600   -5.8260  -25.1530 C.2   148  LEU148      0.2592
     13  O        -33.6600   -6.2580  -25.9870 O.2   148  LEU148     -0.2718
     14  CB       -31.7000   -3.9370  -23.9020 C.3   148  LEU148      0.0284
     15  CG       -31.6040   -2.4620  -23.4900 C.3   148  LEU148      0.0019
     16  CD1      -30.6900   -2.2880  -22.2860 C.3   148  LEU148      0.0001
     17  CD2      -31.1430   -1.5860  -24.6510 C.3   148  LEU148      0.0001
     18  N        -31.9110   -6.5830  -24.6020 N.am  149  GLU149     -0.1966
     19  CA       -31.7170   -7.9900  -24.9640 C.3   149  GLU149      0.1718
     20  C        -32.7410   -8.9010  -24.2790 C.2   149  GLU149      0.2458
     21  O        -33.2750   -8.5480  -23.2260 O.2   149  GLU149     -0.2730
     22  CB       -30.3020   -8.4580  -24.5910 C.3   149  GLU149      0.0428
     23  CG       -29.1580   -7.6410  -25.1920 C.3   149  GLU149      0.1163
     24  CD       -28.7460   -6.4570  -24.3290 C.2   149  GLU149      0.3649
     25  OE1      -29.3940   -6.2000  -23.2930 O.co2 149  GLU149     -0.2457
     26  OE2      -27.7620   -5.7780  -24.6890 O.co2 149  GLU149     -0.2457
     27  N        -33.0260  -10.0740  -24.8780 N.am  150  PRO150     -0.2727
     28  CA       -33.8000  -11.0780  -24.1460 C.3   150  PRO150      0.1402
     29  C        -32.9190  -11.8750  -23.1850 C.2   150  PRO150      0.2269
     30  O        -31.7200  -12.0390  -23.4320 O.2   150  PRO150     -0.2865
     31  CB       -34.3510  -11.9840  -25.2500 C.3   150  PRO150      0.0296
     32  CG       -33.4310  -11.8130  -26.3940 C.3   150  PRO150      0.0237
     33  CD       -32.8070  -10.4530  -26.2870 C.3   150  PRO150      0.0939
     34  N        -29.1950  -13.1350  -24.8960 N.3   165  MET165     -0.1230
     35  CA       -28.9260  -13.0960  -26.3290 C.3   165  MET165      0.1702
     36  C        -28.1090  -11.8630  -26.6940 C.2   165  MET165      0.2592
     37  O        -28.6450  -10.7580  -26.8180 O.2   165  MET165     -0.2718
     38  CB       -30.2310  -13.1280  -27.1230 C.3   165  MET165      0.0401
     39  CG       -30.5560  -14.4730  -27.7370 C.3   165  MET165      0.0596
     40  SD       -30.0890  -14.5580  -29.4750 S.3   165  MET165     -0.1393
     41  CE       -31.4370  -13.6380  -30.2180 C.3   165  MET165      0.0692
     42  N        -26.8030  -12.0650  -26.8410 N.am  166  VAL166     -0.1966
     43  CA       -25.8910  -11.0110  -27.2680 C.3   166  VAL166      0.1727
     44  C        -25.4690  -11.3050  -28.7030 C.2   166  VAL166      0.2616
     45  O        -24.9730  -12.3990  -29.0020 O.2   166  VAL166     -0.2715
     46  CB       -24.6490  -10.9100  -26.3480 C.3   166  VAL166      0.0290
     47  CG1      -23.7930   -9.7080  -26.7290 C.3   166  VAL166      0.0023
     48  CG2      -25.0680  -10.8140  -24.8840 C.3   166  VAL166      0.0023
     49  N        -25.6730  -10.3230  -29.5790 N.am  167  ARG167     -0.1977
     50  CA       -25.4750  -10.4820  -31.0230 C.3   167  ARG167      0.1597
     51  C        -26.3470  -11.6110  -31.5880 C.2   167  ARG167      0.2287
     52  O        -27.5680  -11.4630  -31.6830 O.2   167  ARG167     -0.2864
     53  CB       -23.9900  -10.6690  -31.3730 C.3   167  ARG167      0.0334
     54  CG       -23.1100   -9.5710  -30.7760 C.3   167  ARG167      0.0492
     55  CD       -23.1220   -8.2170  -31.4880 C.3   167  ARG167      0.2205
     56  NE       -24.4530   -7.6300  -31.7300 N.pl3 167  ARG167     -0.0865
     57  CZ       -24.9780   -6.5120  -31.1870 C.cat 167  ARG167      0.5346
     58  NH1      -24.3030   -5.7960  -30.2630 N.pl3 167  ARG167      0.1354
     59  NH2      -26.1950   -6.0950  -31.5510 N.pl3 167  ARG167      0.1354
     60  N        -27.1880    0.6190  -25.0890 N.3   215  ARG215     -0.1245
     61  CA       -26.2010    0.4100  -24.0320 C.3   215  ARG215      0.1563
     62  C        -24.9150    1.1720  -24.3390 C.2   215  ARG215      0.2260
     63  O        -24.3450    1.0350  -25.4240 O.2   215  ARG215     -0.2867
     64  CB       -25.8840   -1.0790  -23.8580 C.3   215  ARG215      0.0307
     65  CG       -26.9860   -1.9070  -23.2160 C.3   215  ARG215      0.0489
     66  CD       -26.4550   -3.2770  -22.8260 C.3   215  ARG215      0.2205
     67  NE       -27.5030   -4.1850  -22.3610 N.pl3 215  ARG215     -0.0865
     68  CZ       -27.9200   -4.2870  -21.1010 C.cat 215  ARG215      0.5346
     69  NH1      -27.3920   -3.5270  -20.1490 N.pl3 215  ARG215      0.1354
     70  NH2      -28.8780   -5.1500  -20.7930 N.pl3 215  ARG215      0.1354
     71  N        -24.1500    0.0460  -28.0720 N.3   226  HIS226     -0.1226
     72  CA       -24.9340   -1.0730  -28.5860 C.3   226  HIS226      0.1752
     73  C        -26.4050   -0.6960  -28.7350 C.2   226  HIS226      0.2596
     74  O        -27.0800   -0.3820  -27.7520 O.2   226  HIS226     -0.2718
     75  CB       -24.7910   -2.3030  -27.6830 C.3   226  HIS226      0.0759
     76  CG       -23.3720   -2.7080  -27.4310 C.ar  226  HIS226      0.0818
     77  ND1      -22.5890   -3.3150  -28.3890 N.ar  226  HIS226     -0.2268
     78  CD2      -22.5960   -2.5960  -26.3270 C.ar  226  HIS226      0.1154
     79  CE1      -21.3900   -3.5550  -27.8890 C.ar  226  HIS226      0.1986
     80  NE2      -21.3690   -3.1310  -26.6380 N.ar  226  HIS226     -0.2212
     81  N        -26.8850   -0.7220  -29.9730 N.am  227  ARG227     -0.1966
     82  CA       -28.2900   -0.4630  -30.2750 C.3   227  ARG227      0.1729
     83  C        -28.9530   -1.7300  -30.8110 C.2   227  ARG227      0.2616
     84  O        -28.2700   -2.7190  -31.0990 O.2   227  ARG227     -0.2715
     85  CB       -28.4210    0.6840  -31.2830 C.3   227  ARG227      0.0348
     86  CG       -27.9810    2.0370  -30.7410 C.3   227  ARG227      0.0492
     87  CD       -28.1830    3.1450  -31.7610 C.3   227  ARG227      0.2205
     88  NE       -27.7880    4.4500  -31.2290 N.pl3 227  ARG227     -0.0865
     89  CZ       -26.5710    4.9780  -31.3450 C.cat 227  ARG227      0.5346
     90  NH1      -25.6080    4.3190  -31.9790 N.pl3 227  ARG227      0.1354
     91  NH2      -26.3140    6.1710  -30.8250 N.pl3 227  ARG227      0.1354
     92  N        -30.2790   -1.6980  -30.9340 N.am  228  ARG228     -0.1977
     93  CA       -31.0450   -2.8270  -31.4660 C.3   228  ARG228      0.1597
     94  C        -30.6450   -3.1500  -32.9070 C.2   228  ARG228      0.2287
     95  O        -30.5770   -4.3190  -33.2910 O.2   228  ARG228     -0.2864
     96  CB       -32.5470   -2.5450  -31.3840 C.3   228  ARG228      0.0334
     97  CG       -33.2810   -2.1270  -30.1550 C.3   228  ARG228      0.0492
     98  CD       -32.8970   -2.9600  -28.9450 C.3   228  ARG228      0.2205
     99  NE       -33.3750   -4.3000  -29.0740 N.pl3 228  ARG228     -0.0865
    100  CZ       -34.6280   -4.7350  -28.8840 C.cat 228  ARG228      0.5346
    101  NH1      -35.6030   -3.9250  -28.4820 N.pl3 228  ARG228      0.1354
    102  NH2      -34.8970   -6.0220  -29.1060 N.pl3 228  ARG228      0.1354
@<TRIPOS>BOND
     1    95    94    2
     2    94    93    1
     3    90    89    1
     4    87    88    1
     5    87    86    1
     6    56    55    1
     7    56    57    2
     8    52    51    2
     9    51    50    1
    10    59    57    1
    11    55    54    1
    12    93    96    1
    13    93    92    1
    14    96    97    1
    15    53    50    1
    16    53    54    1
    17    89    88    2
    18    89    91    1
    19    85    86    1
    20    85    82    1
    21    57    58    1
    22    84    83    2
    23    50    49    1
    24    92    83   am
    25    83    82    1
    26    82    81    1
    27    41    40    1
    28    97    98    1
    29    81    73   am
    30    49    44   am
    31    40    39    1
    32   102   100    1
    33    99    98    1
    34    99   100    2
    35    45    44    2
    36   100   101    1
    37    73    72    1
    38    73    74    2
    39    44    43    1
    40    72    71    1
    41    72    75    1
    42    77    79   ar
    43    77    76   ar
    44    79    80   ar
    45    39    38    1
    46    75    76    1
    47    76    78   ar
    48    43    42    1
    49    43    46    1
    50    38    35    1
    51     8     7    2
    52    42    36   am
    53    37    36    2
    54    47    46    1
    55    36    35    1
    56    80    78   ar
    57    32    33    1
    58    32    31    1
    59    46    48    1
    60    35    34    1
    61    33    27    1
    62     7     9   am
    63     7     6    1
    64    13    12    2
    65     6     5    1
    66    63    62    2
    67    31    28    1
    68    23    22    1
    69    23    24    1
    70    12    11    1
    71    12    18   am
    72    60    61    1
    73    19    18    1
    74    19    22    1
    75    19    20    1
    76    27    20   am
    77    27    28    1
    78     5     2    1
    79    11    10    1
    80    11    14    1
    81    26    24   ar
    82    17    15    1
    83    62    61    1
    84    24    25   ar
    85    20    21    2
    86    28    29    1
    87    61    64    1
    88    14    15    1
    89    64    65    1
    90    15    16    1
    91     2     1    1
    92     2     3    1
    93    30    29    2
    94    65    66    1
    95    66    67    1
    96     3     4    2
    97    67    68    2
    98    68    70    1
    99    68    69    1
