@<TRIPOS>MOLECULE
tmp/3ltwA00.pdb
 134 134 0 0 0
SMALL
GASTEIGER

@<TRIPOS>ATOM
      1  N        -22.6980    2.2360  -13.9020 N.3    35  PHE35      -0.1241
      2  CA       -21.7430    1.2720  -13.3850 C.3    35  PHE35       0.1605
      3  C        -20.3640    1.8850  -13.5940 C.2    35  PHE35       0.2264
      4  O        -20.0800    2.4170  -14.6680 O.2    35  PHE35      -0.2867
      5  CB       -21.8650   -0.0470  -14.1500 C.3    35  PHE35       0.0534
      6  CG       -20.8580   -1.0950  -13.7490 C.ar   35  PHE35      -0.0203
      7  CD1      -21.2040   -2.1010  -12.8530 C.ar   35  PHE35      -0.0042
      8  CD2      -19.5730   -1.0950  -14.2900 C.ar   35  PHE35      -0.0042
      9  CE1      -20.2850   -3.0850  -12.4960 C.ar   35  PHE35      -0.0003
     10  CE2      -18.6440   -2.0690  -13.9300 C.ar   35  PHE35      -0.0003
     11  CZ       -19.0020   -3.0660  -13.0310 C.ar   35  PHE35      -0.0000
     12  N        -20.1180   -0.5550   -8.5720 N.3    66  TYR66      -0.1227
     13  CA       -20.3020   -1.8850   -9.1590 C.3    66  TYR66       0.1736
     14  C        -21.3880   -2.7180   -8.4630 C.2    66  TYR66       0.2596
     15  O        -22.1990   -2.1720   -7.7140 O.2    66  TYR66      -0.2718
     16  CB       -18.9680   -2.6370   -9.3690 C.3    66  TYR66       0.0548
     17  CG       -18.1590   -3.0370   -8.1470 C.ar   66  TYR66      -0.0200
     18  CD1      -16.7980   -3.3210   -8.2760 C.ar   66  TYR66      -0.0009
     19  CD2      -18.7370   -3.1550   -6.8800 C.ar   66  TYR66      -0.0009
     20  CE1      -16.0360   -3.7040   -7.1840 C.ar   66  TYR66       0.0417
     21  CE2      -17.9790   -3.5370   -5.7780 C.ar   66  TYR66       0.0417
     22  CZ       -16.6310   -3.8110   -5.9390 C.ar   66  TYR66       0.1957
     23  OH       -15.8710   -4.1920   -4.8590 O.3    66  TYR66      -0.2866
     24  N        -21.4010   -4.0250   -8.7230 N.am   67  CYS67      -0.1956
     25  CA       -22.5040   -4.9100   -8.3210 C.3    67  CYS67       0.1843
     26  C        -22.8860   -4.8500   -6.8410 C.2    67  CYS67       0.2625
     27  O        -24.0700   -4.7660   -6.5080 O.2    67  CYS67      -0.2714
     28  CB       -22.2190   -6.3590   -8.7360 C.3    67  CYS67       0.0997
     29  SG       -20.8540   -7.1590   -7.8570 S.3    67  CYS67      -0.0797
     30  N        -21.8870   -4.8940   -5.9630 N.am   68  TYR68      -0.1974
     31  CA       -22.1250   -4.8310   -4.5230 C.3    68  TYR68       0.1639
     32  C        -22.7460   -3.5030   -4.1020 C.2    68  TYR68       0.2290
     33  O        -23.5390   -3.4520   -3.1600 O.2    68  TYR68      -0.2864
     34  CB       -20.8310   -5.0840   -3.7480 C.3    68  TYR68       0.0560
     35  CG       -20.2970   -6.4920   -3.8920 C.ar   68  TYR68      -0.0198
     36  CD1      -19.2790   -6.7830   -4.7980 C.ar   68  TYR68      -0.0009
     37  CD2      -20.8090   -7.5330   -3.1190 C.ar   68  TYR68      -0.0009
     38  CE1      -18.7840   -8.0770   -4.9340 C.ar   68  TYR68       0.0417
     39  CE2      -20.3250   -8.8280   -3.2490 C.ar   68  TYR68       0.0417
     40  CZ       -19.3120   -9.0930   -4.1550 C.ar   68  TYR68       0.1957
     41  OH       -18.8300  -10.3730   -4.2760 O.3    68  TYR68      -0.2866
     42  N        -19.1290  -15.1890  -12.1320 N.3    92  VAL92      -0.1245
     43  CA       -19.2580  -14.6330  -13.4830 C.3    92  VAL92       0.1561
     44  C        -18.5510  -15.5060  -14.5280 C.2    92  VAL92       0.2260
     45  O        -17.3550  -15.7830  -14.4140 O.2    92  VAL92      -0.2867
     46  CB       -18.7480  -13.1680  -13.5440 C.3    92  VAL92       0.0252
     47  CG1      -18.8880  -12.5950  -14.9500 C.3    92  VAL92       0.0019
     48  CG2      -19.5040  -12.3050  -12.5400 C.3    92  VAL92       0.0019
     49  N        -19.0910  -14.8800  -18.0660 N.3    94  TRP94      -0.1241
     50  CA       -19.3060  -14.1690  -19.3330 C.3    94  TRP94       0.1605
     51  C        -18.1420  -14.3290  -20.3170 C.2    94  TRP94       0.2264
     52  O        -16.9840  -14.0770  -19.9750 O.2    94  TRP94      -0.2867
     53  CB       -19.6260  -12.6900  -19.0720 C.3    94  TRP94       0.0550
     54  CG       -20.1620  -11.9310  -20.2660 C.ar   94  TRP94       0.0003
     55  CD1      -20.7400  -12.4570  -21.3900 C.ar   94  TRP94       0.0946
     56  CD2      -20.2020  -10.5060  -20.4280 C.ar   94  TRP94       0.0152
     57  NE1      -21.1120  -11.4500  -22.2470 N.ar   94  TRP94      -0.2442
     58  CE2      -20.7960  -10.2430  -21.6800 C.ar   94  TRP94       0.0810
     59  CE3      -19.7850   -9.4260  -19.6390 C.ar   94  TRP94       0.0012
     60  CZ2      -20.9830   -8.9450  -22.1620 C.ar   94  TRP94       0.0191
     61  CZ3      -19.9710   -8.1340  -20.1190 C.ar   94  TRP94       0.0001
     62  CH2      -20.5670   -7.9070  -21.3690 C.ar   94  TRP94       0.0015
     63  N        -17.7880  -13.3210   -7.0210 N.3   106  THR106     -0.1203
     64  CA       -17.5580  -11.8740   -6.9660 C.3   106  THR106      0.1994
     65  C        -18.7520  -11.0460   -7.4570 C.2   106  THR106      0.2617
     66  O        -18.6360   -9.8320   -7.6470 O.2   106  THR106     -0.2717
     67  CB       -16.2950  -11.4660   -7.7590 C.3   106  THR106      0.1784
     68  OG1      -16.3870  -11.9670   -9.0970 O.3   106  THR106     -0.2211
     69  CG2      -15.0340  -12.0100   -7.0960 C.3   106  THR106      0.0376
     70  N        -19.8890  -11.7060   -7.6610 N.am  107  HIS107     -0.1975
     71  CA       -21.1200  -11.0260   -8.0590 C.3   107  HIS107      0.1656
     72  C        -22.2000  -11.2290   -7.0010 C.2   107  HIS107      0.2291
     73  O        -22.2050  -12.2420   -6.2950 O.2   107  HIS107     -0.2864
     74  CB       -21.5970  -11.5300   -9.4300 C.3   107  HIS107      0.0771
     75  CG       -22.7320  -10.7410  -10.0130 C.ar  107  HIS107      0.0820
     76  ND1      -22.8070   -9.3670   -9.9310 N.ar  107  HIS107     -0.2267
     77  CD2      -23.8240  -11.1340  -10.7120 C.ar  107  HIS107      0.1154
     78  CE1      -23.9030   -8.9480  -10.5390 C.ar  107  HIS107      0.1986
     79  NE2      -24.5360  -10.0000  -11.0250 N.ar  107  HIS107     -0.2212
     80  N        -26.5260   -4.2520  -11.1840 N.3   126  GLY126     -0.1210
     81  CA       -25.0940   -4.0490  -10.9830 C.3   126  GLY126      0.1956
     82  C        -24.1510   -4.8580  -11.8560 C.2   126  GLY126      0.2612
     83  O        -22.9400   -4.8470  -11.6320 O.2   126  GLY126     -0.2717
     84  N        -24.6920   -5.5610  -12.8490 N.am  127  PHE127     -0.1962
     85  CA       -23.8580   -6.3350  -13.7660 C.3   127  PHE127      0.1771
     86  C        -23.4400   -5.4830  -14.9690 C.2   127  PHE127      0.2620
     87  O        -23.9590   -5.6430  -16.0740 O.2   127  PHE127     -0.2715
     88  CB       -24.5670   -7.6210  -14.2070 C.3   127  PHE127      0.0574
     89  CG       -23.6650   -8.6040  -14.9050 C.ar  127  PHE127     -0.0200
     90  CD1      -22.7010   -9.3140  -14.1930 C.ar  127  PHE127     -0.0042
     91  CD2      -23.7810   -8.8240  -16.2740 C.ar  127  PHE127     -0.0042
     92  CE1      -21.8630  -10.2250  -14.8350 C.ar  127  PHE127     -0.0003
     93  CE2      -22.9480   -9.7340  -16.9260 C.ar  127  PHE127     -0.0003
     94  CZ       -21.9870  -10.4350  -16.2040 C.ar  127  PHE127     -0.0000
     95  N        -22.4900   -4.5810  -14.7320 N.am  128  GLY128     -0.1954
     96  CA       -22.0370   -3.6170  -15.7360 C.3   128  GLY128      0.1869
     97  C        -21.7540   -4.1930  -17.1050 C.2   128  GLY128      0.2309
     98  O        -20.9970   -5.1570  -17.2440 O.2   128  GLY128     -0.2863
     99  N        -12.5520   -8.3740   -5.0020 N.3   193  VAL193     -0.1245
    100  CA       -12.6850   -7.8390   -6.3540 C.3   193  VAL193      0.1561
    101  C        -12.2690   -6.3600   -6.4620 C.2   193  VAL193      0.2260
    102  O        -12.0120   -5.8640   -7.5600 O.2   193  VAL193     -0.2867
    103  CB       -14.1070   -8.1310   -6.9340 C.3   193  VAL193      0.0252
    104  CG1      -15.1060   -7.0520   -6.5550 C.3   193  VAL193      0.0019
    105  CG2      -14.0500   -8.3320   -8.4400 C.3   193  VAL193      0.0019
    106  N         -9.9470   -7.4570  -12.5340 N.3   200  HIS200     -0.1226
    107  CA       -10.1630   -6.6070  -13.7060 C.3   200  HIS200      0.1752
    108  C        -10.5950   -5.1940  -13.3160 C.2   200  HIS200      0.2596
    109  O        -10.4350   -4.2550  -14.0960 O.2   200  HIS200     -0.2718
    110  CB       -11.1990   -7.2300  -14.6530 C.3   200  HIS200      0.0759
    111  CG       -10.8770   -8.6320  -15.0730 C.ar  200  HIS200      0.0818
    112  ND1       -9.6690   -8.9840  -15.6390 N.ar  200  HIS200     -0.2268
    113  CD2      -11.6120   -9.7680  -15.0220 C.ar  200  HIS200      0.1154
    114  CE1       -9.6710  -10.2780  -15.9080 C.ar  200  HIS200      0.1986
    115  NE2      -10.8390  -10.7770  -15.5450 N.ar  200  HIS200     -0.2212
    116  N        -11.1360   -5.0490  -12.1070 N.am  201  PHE201     -0.1976
    117  CA       -11.5720   -3.7460  -11.6040 C.3   201  PHE201      0.1639
    118  C        -10.4360   -2.9600  -10.9480 C.2   201  PHE201      0.2290
    119  O        -10.5870   -1.7740  -10.6440 O.2   201  PHE201     -0.2864
    120  CB       -12.7630   -3.8960  -10.6500 C.3   201  PHE201      0.0560
    121  CG       -13.9580   -4.5610  -11.2770 C.ar  201  PHE201     -0.0200
    122  CD1      -14.3680   -5.8190  -10.8550 C.ar  201  PHE201     -0.0042
    123  CD2      -14.6640   -3.9350  -12.3000 C.ar  201  PHE201     -0.0042
    124  CE1      -15.4700   -6.4430  -11.4350 C.ar  201  PHE201     -0.0003
    125  CE2      -15.7630   -4.5500  -12.8900 C.ar  201  PHE201     -0.0003
    126  CZ       -16.1670   -5.8060  -12.4560 C.ar  201  PHE201     -0.0000
    127  N        -13.7690    0.2290  -16.2740 N.3   206  MET206     -0.1245
    128  CA       -15.0490   -0.1690  -16.8510 C.3   206  MET206      0.1570
    129  C        -16.1760    0.7540  -16.3980 C.2   206  MET206      0.2261
    130  O        -16.3230    1.0400  -15.2060 O.2   206  MET206     -0.2867
    131  CB       -15.3820   -1.6310  -16.5240 C.3   206  MET206      0.0387
    132  CG       -16.5220   -2.1980  -17.3680 C.3   206  MET206      0.0595
    133  SD       -16.8320   -3.9580  -17.1340 S.3   206  MET206     -0.1393
    134  CE       -18.0090   -4.2620  -18.4480 C.3   206  MET206      0.0692
@<TRIPOS>BOND
     1    57    58   ar
     2    57    55   ar
     3    60    58   ar
     4    60    62   ar
     5    58    56   ar
     6    55    54   ar
     7    62    61   ar
     8    56    54   ar
     9    56    59   ar
    10    51    52    2
    11    51    50    1
    12    54    53    1
    13    61    59   ar
    14    50    53    1
    15    50    49    1
    16   134   133    1
    17   132   133    1
    18   132   131    1
    19    98    97    2
    20    97    96    1
    21    93    91   ar
    22    93    94   ar
    23   128   131    1
    24   128   129    1
    25   128   127    1
    26   129   130    2
    27    91    89   ar
    28    94    92   ar
    29    87    86    2
    30   114   112   ar
    31   114   115   ar
    32    96    95    1
    33   112   111   ar
    34   115   113   ar
    35   111   113   ar
    36   111   110    1
    37    86    95   am
    38    86    85    1
    39    47    46    1
    40    89    88    1
    41    89    90   ar
    42    92    90   ar
    43     4     3    2
    44   110   107    1
    45    44    45    2
    46    44    43    1
    47     8    10   ar
    48     8     6   ar
    49    88    85    1
    50     5     6    1
    51     5     2    1
    52   109   108    2
    53    10    11   ar
    54     1     2    1
    55    85    84    1
    56     6     7   ar
    57   107   108    1
    58   107   106    1
    59     3     2    1
    60    46    43    1
    61    46    48    1
    62    43    42    1
    63   108   116   am
    64    11     9   ar
    65   125   126   ar
    66   125   123   ar
    67     7     9   ar
    68    84    82   am
    69   126   124   ar
    70   123   121   ar
    71   116   117    1
    72    82    83    2
    73    82    81    1
    74   117   118    1
    75   117   120    1
    76   124   122   ar
    77   121   122   ar
    78   121   120    1
    79    80    81    1
    80    79    77   ar
    81    79    78   ar
    82   118   119    2
    83    77    75   ar
    84    78    76   ar
    85    75    76   ar
    86    75    74    1
    87    74    71    1
    88    16    13    1
    89    16    17    1
    90    13    12    1
    91    13    14    1
    92    68    67    1
    93    28    25    1
    94    28    29    1
    95    24    14   am
    96    24    25    1
    97    14    15    2
    98   105   103    1
    99    25    26    1
   100    18    17   ar
   101    18    20   ar
   102    17    19   ar
   103    71    70    1
   104    71    72    1
   105    67    69    1
   106    67    64    1
   107    70    65   am
   108    66    65    2
   109   102   101    2
   110    65    64    1
   111    20    22   ar
   112    63    64    1
   113    72    73    2
   114   103   104    1
   115   103   100    1
   116    19    21   ar
   117    26    27    2
   118    26    30   am
   119   101   100    1
   120   100    99    1
   121    30    31    1
   122    22    21   ar
   123    22    23    1
   124    38    36   ar
   125    38    40   ar
   126    36    35   ar
   127    31    32    1
   128    31    34    1
   129    41    40    1
   130    40    39   ar
   131    32    33    2
   132    35    34    1
   133    35    37   ar
   134    39    37   ar
