@<TRIPOS>MOLECULE
tmp/3lu1D01.pdb
 223 215 0 0 0
SMALL
GASTEIGER

@<TRIPOS>ATOM
      1  N        -23.2140  -41.9380  -16.4470 N.3   102  GLY102     -0.1210
      2  CA       -24.1010  -43.0550  -16.1460 C.3   102  GLY102      0.1956
      3  C        -25.5110  -42.5980  -15.8220 C.2   102  GLY102      0.2613
      4  O        -25.8670  -41.4380  -16.0430 O.2   102  GLY102     -0.2717
      5  N        -26.3140  -43.5210  -15.2940 N.am  103  SER103     -0.1938
      6  CA       -27.6910  -43.2500  -14.8640 C.3   103  SER103      0.2055
      7  C        -28.6940  -43.3870  -16.0020 C.2   103  SER103      0.2643
      8  O        -28.7370  -42.5670  -16.9170 O.2   103  SER103     -0.2714
      9  CB       -27.8180  -41.8770  -14.1870 C.3   103  SER103      0.2130
     10  OG       -29.1290  -41.6700  -13.6840 O.3   103  SER103     -0.2179
     11  N        -29.4970  -44.4430  -15.9170 N.am  104  VAL104     -0.1963
     12  CA       -30.5650  -44.7280  -16.8670 C.3   104  VAL104      0.1712
     13  C        -31.5900  -43.5760  -16.9330 C.2   104  VAL104      0.2458
     14  O        -31.9770  -43.1590  -18.0300 O.2   104  VAL104     -0.2730
     15  CB       -31.2330  -46.0990  -16.5350 C.3   104  VAL104      0.0289
     16  CG1      -32.5280  -46.3110  -17.3070 C.3   104  VAL104      0.0023
     17  CG2      -30.2540  -47.2430  -16.7870 C.3   104  VAL104      0.0023
     18  N        -32.0250  -43.0440  -15.7670 N.am  105  PRO105     -0.2727
     19  CA       -32.9900  -41.9370  -15.8430 C.3   105  PRO105      0.1402
     20  C        -32.3830  -40.6660  -16.4220 C.2   105  PRO105      0.2269
     21  O        -33.0700  -39.9220  -17.1110 O.2   105  PRO105     -0.2865
     22  CB       -33.4020  -41.7260  -14.3820 C.3   105  PRO105      0.0296
     23  CG       -33.1030  -43.0340  -13.7160 C.3   105  PRO105      0.0237
     24  CD       -31.8410  -43.4950  -14.3740 C.3   105  PRO105      0.0939
     25  N        -21.8080  -52.3160  -19.4440 N.3   142  SER142     -0.1202
     26  CA       -22.9250  -52.2990  -18.5020 C.3   142  SER142      0.2020
     27  C        -23.8130  -53.5400  -18.5830 C.2   142  SER142      0.2619
     28  O        -24.0460  -54.0740  -19.6630 O.2   142  SER142     -0.2717
     29  CB       -23.7700  -51.0360  -18.7180 C.3   142  SER142      0.2103
     30  OG       -24.8600  -50.9640  -17.8020 O.3   142  SER142     -0.2182
     31  N        -24.3200  -53.9830  -17.4340 N.am  143  SER143     -0.1937
     32  CA       -25.2490  -55.1110  -17.3890 C.3   143  SER143      0.2055
     33  C        -26.6030  -54.7520  -17.9940 C.2   143  SER143      0.2643
     34  O        -27.3930  -55.6360  -18.3370 O.2   143  SER143     -0.2714
     35  CB       -25.4270  -55.6170  -15.9600 C.3   143  SER143      0.2130
     36  OG       -25.7580  -54.5600  -15.0810 O.3   143  SER143     -0.2179
     37  N        -26.8600  -53.4520  -18.1330 N.am  144  SER144     -0.1949
     38  CA       -28.0830  -52.9650  -18.7680 C.3   144  SER144      0.1924
     39  C        -28.1800  -53.4230  -20.2240 C.2   144  SER144      0.2314
     40  O        -29.2630  -53.3980  -20.8180 O.2   144  SER144     -0.2863
     41  CB       -28.1410  -51.4430  -18.7040 C.3   144  SER144      0.2116
     42  OG       -27.1830  -50.8740  -19.5790 O.3   144  SER144     -0.2180
     43  N        -29.3710  -45.0590  -22.2460 N.3   166  TYR166     -0.1241
     44  CA       -28.1010  -45.4140  -21.5960 C.3   166  TYR166      0.1605
     45  C        -27.6200  -46.7770  -22.0730 C.2   166  TYR166      0.2264
     46  O        -26.4600  -46.9360  -22.4630 O.2   166  TYR166     -0.2867
     47  CB       -28.2220  -45.4010  -20.0660 C.3   166  TYR166      0.0534
     48  CG       -26.9990  -45.9380  -19.3490 C.ar  166  TYR166     -0.0201
     49  CD1      -25.8500  -45.1580  -19.2060 C.ar  166  TYR166     -0.0009
     50  CD2      -26.9910  -47.2300  -18.8080 C.ar  166  TYR166     -0.0009
     51  CE1      -24.7330  -45.6450  -18.5470 C.ar  166  TYR166      0.0417
     52  CE2      -25.8730  -47.7270  -18.1460 C.ar  166  TYR166      0.0417
     53  CZ       -24.7490  -46.9290  -18.0210 C.ar  166  TYR166      0.1957
     54  OH       -23.6330  -47.4100  -17.3720 O.3   166  TYR166     -0.2866
     55  N        -20.2230  -54.1140  -16.1330 N.3   193  TYR193     -0.1241
     56  CA       -20.3920  -53.9820  -14.6910 C.3   193  TYR193      0.1605
     57  C        -21.8250  -54.2790  -14.3100 C.2   193  TYR193      0.2264
     58  O        -22.7310  -54.1480  -15.1230 O.2   193  TYR193     -0.2867
     59  CB       -20.0070  -52.5910  -14.2050 C.3   193  TYR193      0.0534
     60  CG       -18.5710  -52.1890  -14.4260 C.ar  193  TYR193     -0.0201
     61  CD1      -17.5480  -53.1390  -14.4580 C.ar  193  TYR193     -0.0009
     62  CD2      -18.2250  -50.8410  -14.5640 C.ar  193  TYR193     -0.0009
     63  CE1      -16.2160  -52.7560  -14.6560 C.ar  193  TYR193      0.0417
     64  CE2      -16.9050  -50.4480  -14.7490 C.ar  193  TYR193      0.0417
     65  CZ       -15.9080  -51.4090  -14.7990 C.ar  193  TYR193      0.1957
     66  OH       -14.6030  -51.0250  -14.9780 O.3   193  TYR193     -0.2866
     67  N        -23.9070  -53.1690  -11.2210 N.3   195  ASN195     -0.1240
     68  CA       -24.2180  -52.4490   -9.9670 C.3   195  ASN195      0.1653
     69  C        -23.0730  -52.4650   -8.9510 C.2   195  ASN195      0.2266
     70  O        -23.1170  -53.1750   -7.9380 O.2   195  ASN195     -0.2867
     71  CB       -25.4950  -52.9940   -9.3190 C.3   195  ASN195      0.1155
     72  CG       -26.6870  -52.9240  -10.2390 C.2   195  ASN195      0.2627
     73  OD1      -27.5000  -52.0100  -10.1340 O.2   195  ASN195     -0.2716
     74  ND2      -26.7930  -53.8760  -11.1610 N.am  195  ASN195     -0.0877
     75  N        -29.4350  -38.3950   -9.0910 N.3   207  TYR207     -0.1227
     76  CA       -29.1740  -39.6240   -9.8490 C.3   207  TYR207      0.1736
     77  C        -28.3560  -40.6730   -9.0920 C.2   207  TYR207      0.2595
     78  O        -27.8810  -41.6440   -9.6950 O.2   207  TYR207     -0.2718
     79  CB       -28.4570  -39.3030  -11.1620 C.3   207  TYR207      0.0548
     80  CG       -29.2540  -38.4900  -12.1550 C.ar  207  TYR207     -0.0200
     81  CD1      -30.4900  -38.9400  -12.6290 C.ar  207  TYR207     -0.0009
     82  CD2      -28.7560  -37.2840  -12.6470 C.ar  207  TYR207     -0.0009
     83  CE1      -31.2070  -38.2050  -13.5460 C.ar  207  TYR207      0.0417
     84  CE2      -29.4640  -36.5470  -13.5700 C.ar  207  TYR207      0.0417
     85  CZ       -30.6880  -37.0100  -14.0160 C.ar  207  TYR207      0.1957
     86  OH       -31.3970  -36.2700  -14.9310 O.3   207  TYR207     -0.2866
     87  N        -28.1880  -40.4830   -7.7870 N.am  208  ALA208     -0.1966
     88  CA       -27.3910  -41.4010   -6.9770 C.3   208  ALA208      0.1728
     89  C        -27.9600  -42.8270   -7.0070 C.2   208  ALA208      0.2616
     90  O        -29.1780  -43.0140   -7.0500 O.2   208  ALA208     -0.2715
     91  CB       -27.2900  -40.8890   -5.5510 C.3   208  ALA208      0.0334
     92  N        -27.0720  -43.8210   -6.9940 N.am  209  ALA209     -0.1963
     93  CA       -27.4730  -45.2310   -7.0160 C.3   209  ALA209      0.1728
     94  C        -28.0400  -45.6700   -5.6590 C.2   209  ALA209      0.2616
     95  O        -27.7220  -45.0600   -4.6420 O.2   209  ALA209     -0.2715
     96  CB       -26.2920  -46.1030   -7.4230 C.3   209  ALA209      0.0334
     97  N        -28.8680  -46.7210   -5.6450 N.am  210  VAL210     -0.1977
     98  CA       -29.5860  -47.1470   -4.4190 C.3   210  VAL210      0.1596
     99  C        -28.7400  -47.2130   -3.1590 C.2   210  VAL210      0.2287
    100  O        -29.1250  -46.6770   -2.1200 O.2   210  VAL210     -0.2864
    101  CB       -30.2720  -48.5330   -4.5300 C.3   210  VAL210      0.0276
    102  CG1      -31.7290  -48.3870   -4.8770 C.3   210  VAL210      0.0022
    103  CG2      -29.5260  -49.4680   -5.4820 C.3   210  VAL210      0.0022
    104  N        -27.5660  -43.8550   -2.0030 N.3   213  LYS213     -0.1231
    105  CA       -28.8460  -43.1600   -1.8340 C.3   213  LYS213      0.1693
    106  C        -29.4540  -43.5110   -0.4740 C.2   213  LYS213      0.2592
    107  O        -29.6570  -42.6320    0.3690 O.2   213  LYS213     -0.2718
    108  CB       -29.8070  -43.5450   -2.9770 C.3   213  LYS213      0.0285
    109  CG       -31.2110  -42.9300   -2.9400 C.3   213  LYS213      0.0035
    110  CD       -31.2630  -41.5570   -3.6010 C.3   213  LYS213      0.0206
    111  CE       -32.6980  -41.1250   -3.8920 C.3   213  LYS213      0.1093
    112  NZ       -33.2680  -41.7980   -5.0910 N.3   213  LYS213     -0.1314
    113  N        -29.7060  -44.8050   -0.2650 N.am  214  TRP214     -0.1976
    114  CA       -30.4010  -45.3000    0.9220 C.3   214  TRP214      0.1640
    115  C        -29.6460  -45.0900    2.2340 C.2   214  TRP214      0.2290
    116  O        -30.2600  -44.7550    3.2470 O.2   214  TRP214     -0.2864
    117  CB       -30.7690  -46.7770    0.7500 C.3   214  TRP214      0.0576
    118  CG       -31.9240  -47.0220   -0.1700 C.ar  214  TRP214      0.0006
    119  CD1      -32.6050  -46.0950   -0.9080 C.ar  214  TRP214      0.0946
    120  CD2      -32.5120  -48.2900   -0.4800 C.ar  214  TRP214      0.0152
    121  NE1      -33.5900  -46.7050   -1.6420 N.ar  214  TRP214     -0.2442
    122  CE2      -33.5530  -48.0530   -1.4010 C.ar  214  TRP214      0.0810
    123  CE3      -32.2640  -49.6040   -0.0630 C.ar  214  TRP214      0.0012
    124  CZ2      -34.3480  -49.0820   -1.9110 C.ar  214  TRP214      0.0191
    125  CZ3      -33.0520  -50.6240   -0.5700 C.ar  214  TRP214      0.0001
    126  CH2      -34.0830  -50.3560   -1.4850 C.ar  214  TRP214      0.0015
    127  N        -37.3590  -44.9760   -0.5240 N.3   225  TYR225     -0.1227
    128  CA       -38.2500  -45.3070   -1.6320 C.3   225  TYR225      0.1736
    129  C        -37.8490  -46.6000   -2.3370 C.2   225  TYR225      0.2595
    130  O        -36.6630  -46.8630   -2.5730 O.2   225  TYR225     -0.2718
    131  CB       -38.3310  -44.1610   -2.6430 C.3   225  TYR225      0.0548
    132  CG       -38.9400  -42.8840   -2.1040 C.ar  225  TYR225     -0.0200
    133  CD1      -40.3110  -42.7900   -1.8560 C.ar  225  TYR225     -0.0009
    134  CD2      -38.1440  -41.7610   -1.8620 C.ar  225  TYR225     -0.0009
    135  CE1      -40.8740  -41.6140   -1.3670 C.ar  225  TYR225      0.0417
    136  CE2      -38.6950  -40.5760   -1.3780 C.ar  225  TYR225      0.0417
    137  CZ       -40.0620  -40.5100   -1.1330 C.ar  225  TYR225      0.1957
    138  OH       -40.6120  -39.3410   -0.6550 O.3   225  TYR225     -0.2866
    139  N        -38.8610  -47.3980   -2.6580 N.am  226  ILE226     -0.1966
    140  CA       -38.6820  -48.6430   -3.3830 C.3   226  ILE226      0.1727
    141  C        -39.5060  -48.5660   -4.6700 C.2   226  ILE226      0.2616
    142  O        -40.7360  -48.6900   -4.6430 O.2   226  ILE226     -0.2715
    143  CB       -39.0370  -49.8770   -2.5070 C.3   226  ILE226      0.0290
    144  CG1      -37.9530  -50.0950   -1.4390 C.3   226  ILE226      0.0022
    145  CG2      -39.1890  -51.1250   -3.3570 C.3   226  ILE226      0.0023
    146  CD1      -38.2540  -51.1980   -0.4200 C.3   226  ILE226      0.0001
    147  N        -38.8050  -48.3220   -5.7800 N.am  227  ASN227     -0.1972
    148  CA       -39.4100  -48.1800   -7.1050 C.3   227  ASN227      0.1688
    149  C        -40.0650  -49.4750   -7.5910 C.2   227  ASN227      0.2292
    150  O        -39.3930  -50.3880   -8.0890 O.2   227  ASN227     -0.2864
    151  CB       -38.3720  -47.6740   -8.1150 C.3   227  ASN227      0.1181
    152  CG       -37.8440  -46.2840   -7.7720 C.2   227  ASN227      0.2629
    153  OD1      -38.5060  -45.5020   -7.0910 O.2   227  ASN227     -0.2716
    154  ND2      -36.6470  -45.9730   -8.2530 N.am  227  ASN227     -0.0877
    155  N        -37.5130  -56.5850   -7.5850 N.3   232  THR232     -0.1218
    156  CA       -36.4730  -56.4380   -8.5910 C.3   232  THR232      0.1862
    157  C        -35.1140  -56.7130   -7.9470 C.2   232  THR232      0.2287
    158  O        -34.7950  -56.1790   -6.8790 O.2   232  THR232     -0.2866
    159  CB       -36.5510  -55.0680   -9.3680 C.3   232  THR232      0.1770
    160  OG1      -35.2570  -54.4430   -9.4170 O.3   232  THR232     -0.2211
    161  CG2      -37.5650  -54.1100   -8.7440 C.3   232  THR232      0.0375
    162  N        -30.7300  -57.5210   -8.0360 N.3   234  ARG234     -0.1245
    163  CA       -29.4550  -57.0660   -8.5920 C.3   234  ARG234      0.1563
    164  C        -28.2800  -57.8920   -8.0640 C.2   234  ARG234      0.2260
    165  O        -28.3550  -58.4870   -6.9870 O.2   234  ARG234     -0.2867
    166  CB       -29.2120  -55.5770   -8.2770 C.3   234  ARG234      0.0307
    167  CG       -30.1280  -54.5770   -8.9870 C.3   234  ARG234      0.0489
    168  CD       -29.9210  -54.5960  -10.4950 C.3   234  ARG234      0.2205
    169  NE       -30.6540  -53.5350  -11.1890 N.pl3 234  ARG234     -0.0865
    170  CZ       -31.8900  -53.6550  -11.6780 C.cat 234  ARG234      0.5346
    171  NH1      -32.5690  -54.7950  -11.5490 N.pl3 234  ARG234      0.1354
    172  NH2      -32.4520  -52.6240  -12.3000 N.pl3 234  ARG234      0.1354
    173  N        -34.5550  -55.7430   -3.7610 N.3   271  LEU271     -0.1245
    174  CA       -34.4870  -54.4190   -3.1410 C.3   271  LEU271      0.1561
    175  C        -34.9420  -54.4180   -1.6720 C.2   271  LEU271      0.2260
    176  O        -34.4370  -53.6310   -0.8630 O.2   271  LEU271     -0.2867
    177  CB       -35.2570  -53.3890   -3.9750 C.3   271  LEU271      0.0270
    178  CG       -34.6510  -53.0290   -5.3380 C.3   271  LEU271      0.0019
    179  CD1      -35.6040  -52.1510   -6.1330 C.3   271  LEU271      0.0001
    180  CD2      -33.2990  -52.3390   -5.1810 C.3   271  LEU271      0.0001
    181  N        -43.1700  -46.5840   -4.1030 N.3   291  ARG291     -0.1245
    182  CA       -43.7460  -45.8480   -5.2330 C.3   291  ARG291      0.1563
    183  C        -43.7870  -46.7400   -6.4810 C.2   291  ARG291      0.2260
    184  O        -43.7120  -47.9700   -6.3720 O.2   291  ARG291     -0.2867
    185  CB       -43.0320  -44.4980   -5.4770 C.3   291  ARG291      0.0307
    186  CG       -41.5310  -44.5570   -5.7910 C.3   291  ARG291      0.0489
    187  CD       -40.8720  -43.1700   -5.6960 C.3   291  ARG291      0.2205
    188  NE       -39.4860  -43.1860   -6.1790 N.pl3 291  ARG291     -0.0865
    189  CZ       -38.5540  -42.2760   -5.8870 C.cat 291  ARG291      0.5346
    190  NH1      -38.8280  -41.2450   -5.0980 N.pl3 291  ARG291      0.1354
    191  NH2      -37.3310  -42.4000   -6.3860 N.pl3 291  ARG291      0.1354
    192  N        -39.4960  -47.6260  -11.9450 N.3   294  ARG294     -0.1245
    193  CA       -38.7250  -46.7660  -12.8250 C.3   294  ARG294      0.1563
    194  C        -38.9900  -47.2250  -14.2570 C.2   294  ARG294      0.2260
    195  O        -38.9460  -48.4260  -14.5510 O.2   294  ARG294     -0.2867
    196  CB       -37.2430  -46.9240  -12.5110 C.3   294  ARG294      0.0307
    197  CG       -36.4940  -45.6350  -12.2980 C.3   294  ARG294      0.0489
    198  CD       -35.0150  -45.9370  -12.2560 C.3   294  ARG294      0.2205
    199  NE       -34.3260  -45.2120  -11.1930 N.pl3 294  ARG294     -0.0865
    200  CZ       -33.0810  -45.4700  -10.7990 C.cat 294  ARG294      0.5346
    201  NH1      -32.3790  -46.4370  -11.3780 N.pl3 294  ARG294      0.1354
    202  NH2      -32.5410  -44.7600   -9.8180 N.pl3 294  ARG294      0.1354
    203  N        -36.3240  -49.4250  -16.6200 N.3   297  ASP297     -0.1225
    204  CA       -35.6160  -50.2050  -15.6090 C.3   297  ASP297      0.1805
    205  C        -35.4570  -51.6520  -16.0660 C.2   297  ASP297      0.2597
    206  O        -36.3120  -52.1810  -16.7810 O.2   297  ASP297     -0.2718
    207  CB       -36.3880  -50.1610  -14.2850 C.3   297  ASP297      0.1424
    208  CG       -35.6070  -50.7450  -13.1190 C.2   297  ASP297      0.3668
    209  OD1      -34.3690  -50.5730  -13.0810 O.co2 297  ASP297     -0.2456
    210  OD2      -36.2350  -51.3640  -12.2280 O.co2 297  ASP297     -0.2456
    211  N        -34.3520  -52.2760  -15.6630 N.am  298  VAL298     -0.1980
    212  CA       -34.1550  -53.7140  -15.8480 C.3   298  VAL298      0.1595
    213  C        -34.7360  -54.4590  -14.6360 C.2   298  VAL298      0.2287
    214  O        -34.5050  -54.0710  -13.4890 O.2   298  VAL298     -0.2864
    215  CB       -32.6550  -54.0540  -16.0830 C.3   298  VAL298      0.0276
    216  CG1      -32.3680  -55.5460  -15.8760 C.3   298  VAL298      0.0022
    217  CG2      -32.2240  -53.6050  -17.4750 C.3   298  VAL298      0.0022
    218  N        -31.4500  -59.0160  -12.3740 N.3   301  SER301     -0.1217
    219  CA       -30.0860  -59.0450  -12.8710 C.3   301  SER301      0.1889
    220  C        -29.1950  -59.8900  -11.9670 C.2   301  SER301      0.2288
    221  O        -29.0400  -59.5970  -10.7790 O.2   301  SER301     -0.2866
    222  CB       -29.5430  -57.6180  -13.0200 C.3   301  SER301      0.2089
    223  OG       -28.1870  -57.6160  -13.4370 O.3   301  SER301     -0.2183
@<TRIPOS>BOND
     1    46    45    2
     2    43    44    1
     3    45    44    1
     4    44    47    1
     5    40    39    2
     6    39    38    1
     7    47    48    1
     8    28    27    2
     9    42    41    1
    10    25    26    1
    11    48    49   ar
    12    48    50   ar
    13    49    51   ar
    14    50    52   ar
    15    38    41    1
    16    38    37    1
    17    29    26    1
    18    29    30    1
    19    27    26    1
    20    27    31   am
    21    51    53   ar
    22    34    33    2
    23    52    53   ar
    24    37    33   am
    25    14    13    2
    26    53    54    1
    27    33    32    1
    28   217   215    1
    29    31    32    1
    30    32    35    1
    31    16    15    1
    32    21    20    2
    33    13    12    1
    34    13    18   am
    35     8     7    2
    36    12    15    1
    37    12    11    1
    38    17    15    1
    39   206   205    2
    40   203   204    1
    41     1     2    1
    42    20    19    1
    43     2     3    1
    44    55    56    1
    45   215   216    1
    46   215   212    1
    47   205   211   am
    48   205   204    1
    49     4     3    2
    50     7    11   am
    51     7     6    1
    52    35    36    1
    53   212   211    1
    54   212   213    1
    55    19    18    1
    56    19    22    1
    57     3     5   am
    58    18    24    1
    59   204   207    1
    60     5     6    1
    61    58    57    2
    62    66    65    1
    63    86    85    1
    64     6     9    1
    65    65    64   ar
    66    65    63   ar
    67    64    62   ar
    68    56    57    1
    69    56    59    1
    70    63    61   ar
    71   213   214    2
    72    62    60   ar
    73   195   194    2
    74    61    60   ar
    75    60    59    1
    76    22    23    1
    77    24    23    1
    78   207   208    1
    79   194   193    1
    80     9    10    1
    81    85    84   ar
    82    85    83   ar
    83    84    82   ar
    84    83    81   ar
    85   223   222    1
    86   208   209   ar
    87   208   210   ar
    88   222   219    1
    89   219   218    1
    90   219   220    1
    91   193   196    1
    92   193   192    1
    93    82    80   ar
    94    81    80   ar
    95   196   197    1
    96   172   170    1
    97   197   198    1
    98   198   199    1
    99    80    79    1
   100   220   221    2
   101   170   171    1
   102   170   169    2
   103   201   200    1
   104    67    68    1
   105   199   200    2
   106   169   168    1
   107    79    76    1
   108    74    72   am
   109   200   202    1
   110   168   167    1
   111    72    73    2
   112    72    71    1
   113    68    71    1
   114    68    69    1
   115    76    77    1
   116    76    75    1
   117    78    77    2
   118   160   159    1
   119   159   161    1
   120   159   156    1
   121    77    87   am
   122   167   166    1
   123    69    70    2
   124   163   166    1
   125   163   164    1
   126   163   162    1
   127   156   157    1
   128   156   155    1
   129   154   152   am
   130   151   152    1
   131   151   148    1
   132   150   149    2
   133   164   165    2
   134   157   158    2
   135    87    88    1
   136   152   153    2
   137   149   148    1
   138    96    93    1
   139   148   147    1
   140    90    89    2
   141    93    92    1
   142    93    94    1
   143    89    92   am
   144    89    88    1
   145    88    91    1
   146   183   184    2
   147   183   182    1
   148   191   189    1
   149   188   189    2
   150   188   187    1
   151   179   178    1
   152   189   190    1
   153   186   187    1
   154   186   185    1
   155   147   141   am
   156    94    97   am
   157    94    95    2
   158    97    98    1
   159   103   101    1
   160   185   182    1
   161   178   180    1
   162   178   177    1
   163   182   181    1
   164   112   111    1
   165   102   101    1
   166   141   142    2
   167   141   140    1
   168   101    98    1
   169    98    99    1
   170   177   174    1
   171   111   110    1
   172   173   174    1
   173   110   109    1
   174   140   139    1
   175   140   143    1
   176   145   143    1
   177    99   100    2
   178   174   175    1
   179   108   109    1
   180   108   105    1
   181   139   129   am
   182   131   132    1
   183   131   128    1
   184   130   129    2
   185   143   144    1
   186   129   128    1
   187   132   134   ar
   188   132   133   ar
   189   104   105    1
   190   124   126   ar
   191   124   122   ar
   192   134   136   ar
   193   133   135   ar
   194   105   106    1
   195   175   176    2
   196   121   122   ar
   197   121   119   ar
   198   128   127    1
   199   126   125   ar
   200   144   146    1
   201   122   120   ar
   202   136   137   ar
   203   135   137   ar
   204   137   138    1
   205   119   118   ar
   206   125   123   ar
   207   120   118   ar
   208   120   123   ar
   209   106   113   am
   210   106   107    2
   211   113   114    1
   212   118   117    1
   213   117   114    1
   214   114   115    1
   215   115   116    2
