@<TRIPOS>MOLECULE
tmp/3lu6A01.pdb
 145 133 0 0 0
SMALL
GASTEIGER

@<TRIPOS>ATOM
      1  N          8.4020   14.4860    8.6360 N.3   202  PHE202     -0.1241
      2  CA         9.7400   15.0480    8.5000 C.3   202  PHE202      0.1605
      3  C         10.8150   14.0170    8.0940 C.2   202  PHE202      0.2264
      4  O         12.0200   14.3120    8.0890 O.2   202  PHE202     -0.2867
      5  CB        10.0920   15.7530    9.7980 C.3   202  PHE202      0.0534
      6  CG         9.0920   16.7890   10.1700 C.ar  202  PHE202     -0.0203
      7  CD1        9.1720   18.0700    9.6290 C.ar  202  PHE202     -0.0042
      8  CD2        8.0290   16.4760   11.0030 C.ar  202  PHE202     -0.0042
      9  CE1        8.2320   19.0280    9.9420 C.ar  202  PHE202     -0.0003
     10  CE2        7.0730   17.4270   11.3280 C.ar  202  PHE202     -0.0003
     11  CZ         7.1710   18.7090   10.7980 C.ar  202  PHE202     -0.0000
     12  N         15.5240   10.6850    8.4070 N.3   205  ARG205     -0.1231
     13  CA        16.7070   11.4950    8.6830 C.3   205  ARG205      0.1694
     14  C         16.5090   12.3810    9.9010 C.2   205  ARG205      0.2591
     15  O         17.4490   12.6140   10.6580 O.2   205  ARG205     -0.2718
     16  CB        17.0700   12.3500    7.4730 C.3   205  ARG205      0.0321
     17  CG        18.1280   11.7200    6.5740 C.3   205  ARG205      0.0489
     18  CD        18.2500   12.4920    5.2780 C.3   205  ARG205      0.2205
     19  NE        18.6450   13.8860    5.5000 N.pl3 205  ARG205     -0.0865
     20  CZ        18.3030   14.9130    4.7220 C.cat 205  ARG205      0.5346
     21  NH1       17.5220   14.7390    3.6570 N.pl3 205  ARG205      0.1354
     22  NH2       18.7380   16.1320    5.0170 N.pl3 205  ARG205      0.1354
     23  N         15.2880   12.8710   10.0790 N.am  206  ALA206     -0.1980
     24  CA        14.9190   13.6650   11.2530 C.3   206  ALA206      0.1597
     25  C         14.7260   12.8020   12.5040 C.2   206  ALA206      0.2287
     26  O         15.1450   13.1740   13.5960 O.2   206  ALA206     -0.2864
     27  CB        13.6540   14.4580   10.9690 C.3   206  ALA206      0.0319
     28  N         16.1440    9.8990   12.8090 N.3   208  LYS208     -0.1231
     29  CA        17.5610    9.4990   12.9280 C.3   208  LYS208      0.1693
     30  C         18.3800   10.5130   13.7030 C.2   208  LYS208      0.2591
     31  O         19.1820   10.1640   14.5690 O.2   208  LYS208     -0.2718
     32  CB        18.1890    9.3280   11.5400 C.3   208  LYS208      0.0285
     33  CG        17.9220    7.9670   10.8660 C.3   208  LYS208      0.0035
     34  CD        19.0190    7.5800    9.8610 C.3   208  LYS208      0.0206
     35  CE        19.3750    6.0790    9.9030 C.3   208  LYS208      0.1093
     36  NZ        20.8380    5.8060    9.5960 N.3   208  LYS208     -0.1314
     37  N         18.1660   11.7770   13.3700 N.am  209  ALA209     -0.1980
     38  CA        18.8050   12.8860   14.0500 C.3   209  ALA209      0.1597
     39  C         18.4670   12.8990   15.5330 C.2   209  ALA209      0.2287
     40  O         19.3010   13.2260   16.3670 O.2   209  ALA209     -0.2864
     41  CB        18.3830   14.1900   13.4040 C.3   209  ALA209      0.0319
     42  N         20.0870    9.4170   17.4470 N.3   212  VAL212     -0.1245
     43  CA        21.5480    9.5170   17.5650 C.3   212  VAL212      0.1561
     44  C         21.9530   10.4780   18.6870 C.2   212  VAL212      0.2260
     45  O         22.9220   10.2420   19.4040 O.2   212  VAL212     -0.2867
     46  CB        22.2210    9.9540   16.2250 C.3   212  VAL212      0.0252
     47  CG1       22.2850   11.4710   16.0900 C.3   212  VAL212      0.0019
     48  CG2       23.6220    9.3730   16.1140 C.3   212  VAL212      0.0019
     49  N         31.0730    6.0470   17.4590 N.3   224  PHE224     -0.1241
     50  CA        30.0620    6.6010   16.5660 C.3   224  PHE224      0.1605
     51  C         29.4190    5.5310   15.6800 C.2   224  PHE224      0.2264
     52  O         28.1960    5.5040   15.5180 O.2   224  PHE224     -0.2867
     53  CB        30.6510    7.6810   15.6760 C.3   224  PHE224      0.0534
     54  CG        29.7780    8.0250   14.5170 C.ar  224  PHE224     -0.0203
     55  CD1       28.5580    8.6520   14.7270 C.ar  224  PHE224     -0.0042
     56  CD2       30.1560    7.6950   13.2220 C.ar  224  PHE224     -0.0042
     57  CE1       27.7380    8.9690   13.6710 C.ar  224  PHE224     -0.0003
     58  CE2       29.3410    8.0040   12.1510 C.ar  224  PHE224     -0.0003
     59  CZ        28.1250    8.6440   12.3740 C.ar  224  PHE224     -0.0000
     60  N         25.3500    4.7350   15.2790 N.3   228  SER228     -0.1217
     61  CA        24.6540    4.7160   13.9810 C.3   228  SER228      0.1889
     62  C         23.9430    3.3960   13.7260 C.2   228  SER228      0.2288
     63  O         22.8110    3.3810   13.2260 O.2   228  SER228     -0.2866
     64  CB        25.6310    4.9700   12.8280 C.3   228  SER228      0.2089
     65  OG        25.4680    6.2820   12.3180 O.3   228  SER228     -0.2183
     66  N         21.0250    3.3530   15.9430 N.3   231  VAL231     -0.1245
     67  CA        20.0630    4.3040   15.3900 C.3   231  VAL231      0.1561
     68  C         19.3010    3.7120   14.1950 C.2   231  VAL231      0.2260
     69  O         18.0590    3.7290   14.1500 O.2   231  VAL231     -0.2867
     70  CB        20.7280    5.6250   14.9710 C.3   231  VAL231      0.0252
     71  CG1       19.8370    6.4060   13.9830 C.3   231  VAL231      0.0019
     72  CG2       21.0110    6.4890   16.1920 C.3   231  VAL231      0.0019
     73  N         25.3900   13.7980    5.6460 N.3   320  ASP320     -0.1225
     74  CA        24.5700   13.1350    6.6500 C.3   320  ASP320      0.1805
     75  C         25.4480   12.5020    7.7200 C.2   320  ASP320      0.2597
     76  O         25.3380   12.8570    8.8910 O.2   320  ASP320     -0.2718
     77  CB        23.6580   12.0870    6.0130 C.3   320  ASP320      0.1424
     78  CG        22.4700   12.7010    5.3010 C.2   320  ASP320      0.3668
     79  OD1       22.2830   13.9370    5.3820 O.co2 320  ASP320     -0.2456
     80  OD2       21.7190   11.9380    4.6600 O.co2 320  ASP320     -0.2456
     81  N         26.3380   11.5980    7.3160 N.am  321  VAL321     -0.1980
     82  CA        27.2430   10.9300    8.2650 C.3   321  VAL321      0.1595
     83  C         28.0630   11.9620    9.0550 C.2   321  VAL321      0.2287
     84  O         28.2620   11.8080   10.2570 O.2   321  VAL321     -0.2864
     85  CB        28.2050    9.9310    7.5680 C.3   321  VAL321      0.0276
     86  CG1       29.1230    9.2750    8.5880 C.3   321  VAL321      0.0022
     87  CG2       27.4360    8.8530    6.8140 C.3   321  VAL321      0.0022
     88  N         27.2790   15.2300    9.6910 N.3   323  LEU323     -0.1231
     89  CA        26.3200   15.8500   10.6160 C.3   323  LEU323      0.1693
     90  C         25.8530   14.8860   11.7020 C.2   323  LEU323      0.2592
     91  O         25.5110   15.3080   12.8020 O.2   323  LEU323     -0.2718
     92  CB        25.1100   16.3730    9.8500 C.3   323  LEU323      0.0284
     93  CG        25.3980   17.5990    8.9910 C.3   323  LEU323      0.0019
     94  CD1       24.3230   17.7810    7.9460 C.3   323  LEU323      0.0001
     95  CD2       25.5100   18.8340    9.8630 C.3   323  LEU323      0.0001
     96  N         25.8220   13.5960   11.3740 N.am  324  GLY324     -0.1957
     97  CA        25.5890   12.5510   12.3590 C.3   324  GLY324      0.1869
     98  C         26.7290   12.4850   13.3670 C.2   324  GLY324      0.2309
     99  O         26.5030   12.2710   14.5650 O.2   324  GLY324     -0.2863
    100  N         26.4980   15.5170   15.6170 N.3   327  LEU327     -0.1245
    101  CA        25.3760   15.2120   16.5040 C.3   327  LEU327      0.1561
    102  C         25.7880   14.2240   17.5980 C.2   327  LEU327      0.2260
    103  O         25.3160   14.3180   18.7290 O.2   327  LEU327     -0.2867
    104  CB        24.2130   14.6360   15.6810 C.3   327  LEU327      0.0270
    105  CG        22.8040   15.2280   15.8190 C.3   327  LEU327      0.0019
    106  CD1       22.7980   16.6740   16.2690 C.3   327  LEU327      0.0001
    107  CD2       22.0740   15.0830   14.4820 C.3   327  LEU327      0.0001
    108  N         19.4570   19.6400   18.1060 N.3   343  LEU343     -0.1245
    109  CA        19.0050   19.5460   16.7100 C.3   343  LEU343      0.1561
    110  C         18.9700   20.9390   16.0750 C.2   343  LEU343      0.2260
    111  O         19.2480   21.0940   14.8880 O.2   343  LEU343     -0.2867
    112  CB        17.6160   18.8800   16.6130 C.3   343  LEU343      0.0270
    113  CG        17.4140   17.3940   16.9850 C.3   343  LEU343      0.0019
    114  CD1       16.2600   16.7640   16.2000 C.3   343  LEU343      0.0001
    115  CD2       18.6870   16.5430   16.8000 C.3   343  LEU343      0.0001
    116  N         22.8430   21.8390   15.5910 N.3   346  ALA346     -0.1231
    117  CA        23.3220   21.0730   14.4390 C.3   346  ALA346      0.1694
    118  C         22.8080   21.5890   13.1000 C.2   346  ALA346      0.2591
    119  O         23.4670   21.4020   12.0730 O.2   346  ALA346     -0.2718
    120  CB        22.9390   19.6120   14.5950 C.3   346  ALA346      0.0304
    121  N         21.6280   22.2070   13.1010 N.am  347  LYS347     -0.1980
    122  CA        21.0320   22.6880   11.8600 C.3   347  LYS347      0.1596
    123  C         21.6610   24.0010   11.4780 C.2   347  LYS347      0.2287
    124  O         21.8570   24.2700   10.2950 O.2   347  LYS347     -0.2864
    125  CB        19.5140   22.8370   11.9770 C.3   347  LYS347      0.0298
    126  CG        18.7950   22.9460   10.6310 C.3   347  LYS347      0.0038
    127  CD        18.8290   21.6360    9.8240 C.3   347  LYS347      0.0206
    128  CE        18.6080   21.8950    8.3310 C.3   347  LYS347      0.1093
    129  NZ        19.6170   22.8270    7.7270 N.3   347  LYS347     -0.1314
    130  N         24.6820   22.8750    9.6600 N.3   350  GLU350     -0.1245
    131  CA        24.3920   22.3990    8.2950 C.3   350  GLU350      0.1567
    132  C         24.2700   23.5440    7.3120 C.2   350  GLU350      0.2260
    133  O         24.8850   23.5440    6.2490 O.2   350  GLU350     -0.2867
    134  CB        23.0910   21.5890    8.2430 C.3   350  GLU350      0.0388
    135  CG        22.7410   21.0880    6.8290 C.3   350  GLU350      0.1160
    136  CD        21.3330   20.5490    6.7270 C.2   350  GLU350      0.3649
    137  OE1       20.9940   19.6450    7.5140 O.co2 350  GLU350     -0.2457
    138  OE2       20.5610   21.0320    5.8640 O.co2 350  GLU350     -0.2457
    139  N         11.5330   20.7960   15.0210 N.3   478  VAL478     -0.1245
    140  CA        12.2480   21.2150   16.2420 C.3   478  VAL478      0.1561
    141  C         12.0680   22.6900   16.6050 C.2   478  VAL478      0.2260
    142  O         12.3060   23.0770   17.7490 O.2   478  VAL478     -0.2867
    143  CB        13.7670   20.8830   16.1990 C.3   478  VAL478      0.0252
    144  CG1       13.9770   19.4410   16.5260 C.3   478  VAL478      0.0019
    145  CG2       14.4110   21.2500   14.8510 C.3   478  VAL478      0.0019
@<TRIPOS>BOND
     1    21    20    1
     2    80    78   ar
     3    20    22    1
     4    20    19    2
     5    18    19    1
     6    18    17    1
     7    78    79   ar
     8    78    77    1
     9    73    74    1
    10   138   136   ar
    11    77    74    1
    12   133   132    2
    13    17    16    1
    14    74    75    1
    15   136   135    1
    16   136   137   ar
    17    87    85    1
    18   135   134    1
    19   132   131    1
    20    81    75   am
    21    81    82    1
    22    16    13    1
    23    85    82    1
    24    85    86    1
    25    75    76    2
    26   129   128    1
    27    94    93    1
    28     4     3    2
    29     3     2    1
    30   134   131    1
    31    82    83    1
    32   131   130    1
    33   128   127    1
    34    12    13    1
    35     2     1    1
    36     2     5    1
    37    13    14    1
    38    93    92    1
    39    93    95    1
    40    83    84    2
    41    36    35    1
    42     7     9   ar
    43     7     6   ar
    44    88    89    1
    45     5     6    1
    46   127   126    1
    47    92    89    1
    48    34    35    1
    49    34    33    1
    50    14    23   am
    51    14    15    2
    52     9    11   ar
    53    23    24    1
    54     6     8   ar
    55   124   123    2
    56    89    90    1
    57   126   125    1
    58    11    10   ar
    59    33    32    1
    60    27    24    1
    61     8    10   ar
    62    24    25    1
    63    96    90   am
    64    96    97    1
    65   123   122    1
    66    32    29    1
    67    90    91    2
    68   122   125    1
    69   122   121    1
    70   119   118    2
    71    58    59   ar
    72    58    56   ar
    73    65    64    1
    74    97    98    1
    75    59    57   ar
    76    25    26    2
    77    28    29    1
    78    64    61    1
    79    29    30    1
    80   118   121   am
    81   118   117    1
    82    56    54   ar
    83    63    62    2
    84    98    99    2
    85    37    30   am
    86    37    38    1
    87    41    38    1
    88    57    55   ar
    89    30    31    2
    90    62    61    1
    91    61    60    1
    92    71    70    1
    93    38    39    1
    94    69    68    2
    95    68    67    1
    96   117   120    1
    97   117   116    1
    98   107   105    1
    99    54    55   ar
   100    54    53    1
   101   145   143    1
   102   111   110    2
   103    70    67    1
   104    70    72    1
   105   139   140    1
   106    67    66    1
   107    52    51    2
   108    39    40    2
   109   100   101    1
   110    53    50    1
   111    51    50    1
   112   104   105    1
   113   104   101    1
   114   105   106    1
   115   110   109    1
   116    47    46    1
   117    48    46    1
   118   143   140    1
   119   143   144    1
   120   114   113    1
   121    46    43    1
   122   140   141    1
   123   101   102    1
   124    50    49    1
   125   141   142    2
   126   112   109    1
   127   112   113    1
   128   109   108    1
   129   115   113    1
   130    42    43    1
   131    43    44    1
   132   102   103    2
   133    44    45    2
