@<TRIPOS>MOLECULE
tmp/3lu6A00.pdb
 180 171 0 0 0
SMALL
GASTEIGER

@<TRIPOS>ATOM
      1  N          2.8870    2.4500   21.0610 N.3   146  TYR146     -0.1241
      2  CA         3.9560    1.4970   20.7940 C.3   146  TYR146      0.1605
      3  C          3.5180    0.1170   21.3000 C.2   146  TYR146      0.2264
      4  O          3.5560   -0.1600   22.4990 O.2   146  TYR146     -0.2867
      5  CB         5.2290    1.9790   21.5010 C.3   146  TYR146      0.0534
      6  CG         6.5590    1.4350   21.0390 C.ar  146  TYR146     -0.0201
      7  CD1        6.7540    0.9490   19.7540 C.ar  146  TYR146     -0.0009
      8  CD2        7.6450    1.4530   21.9020 C.ar  146  TYR146     -0.0009
      9  CE1        7.9910    0.4690   19.3660 C.ar  146  TYR146      0.0417
     10  CE2        8.8750    0.9870   21.5180 C.ar  146  TYR146      0.0417
     11  CZ         9.0470    0.5090   20.2550 C.ar  146  TYR146      0.1957
     12  OH        10.2860    0.0510   19.8970 O.3   146  TYR146     -0.2866
     13  N          4.7750   10.1630   23.9480 N.3   191  LYS191     -0.1245
     14  CA         6.1390    9.9960   23.4330 C.3   191  LYS191      0.1561
     15  C          6.1770    9.2420   22.0740 C.2   191  LYS191      0.2260
     16  O          6.9760    9.5890   21.1760 O.2   191  LYS191     -0.2867
     17  CB         7.0080    9.2360   24.4380 C.3   191  LYS191      0.0271
     18  CG         7.3060    9.9560   25.7490 C.3   191  LYS191      0.0035
     19  CD         7.6830    8.9550   26.8780 C.3   191  LYS191      0.0206
     20  CE         9.0190    8.2430   26.6210 C.3   191  LYS191      0.1093
     21  NZ         9.0710    6.8670   27.2150 N.3   191  LYS191     -0.1314
     22  N          4.9410   11.3870   18.8900 N.3   194  LEU194     -0.1231
     23  CA         6.0750   12.2010   18.4160 C.3   194  LEU194      0.1693
     24  C          6.9820   11.4430   17.4420 C.2   194  LEU194      0.2591
     25  O          7.5030   12.0340   16.4900 O.2   194  LEU194     -0.2718
     26  CB         6.9380   12.6250   19.6000 C.3   194  LEU194      0.0284
     27  CG         7.6870   13.9400   19.5920 C.3   194  LEU194      0.0019
     28  CD1        8.7150   13.8530   20.7090 C.3   194  LEU194      0.0001
     29  CD2        8.3300   14.3160   18.2590 C.3   194  LEU194      0.0001
     30  N          7.2080   10.1500   17.6800 N.am  195  LYS195     -0.1980
     31  CA         8.0980    9.4040   16.7860 C.3   195  LYS195      0.1596
     32  C          7.4000    9.1910   15.4390 C.2   195  LYS195      0.2287
     33  O          7.9940    9.4020   14.3800 O.2   195  LYS195     -0.2864
     34  CB         8.5490    8.0890   17.4180 C.3   195  LYS195      0.0298
     35  CG         9.5160    8.2980   18.5790 C.3   195  LYS195      0.0038
     36  CD         9.8670    6.9970   19.2520 C.3   195  LYS195      0.0206
     37  CE        10.5220    7.2230   20.6060 C.3   195  LYS195      0.1093
     38  NZ        10.6900    5.9270   21.3250 N.3   195  LYS195     -0.1314
     39  N          7.2710   12.5250   13.7050 N.3   198  SER198     -0.1217
     40  CA         8.5780   12.8260   13.0840 C.3   198  SER198      0.1889
     41  C          8.8020   12.0160   11.8260 C.2   198  SER198      0.2288
     42  O          9.1970   12.5450   10.7970 O.2   198  SER198     -0.2866
     43  CB         9.7170   12.5280   14.0440 C.3   198  SER198      0.2089
     44  OG         9.4640   13.1220   15.2950 O.3   198  SER198     -0.2183
     45  N         14.0680   11.6630   12.3520 N.3   207  PHE207     -0.1241
     46  CA        13.9690   10.7030   13.4420 C.3   207  PHE207      0.1605
     47  C         15.3590   10.2670   13.8340 C.2   207  PHE207      0.2264
     48  O         15.7030   10.2690   15.0240 O.2   207  PHE207     -0.2867
     49  CB        13.1590    9.4900   13.0120 C.3   207  PHE207      0.0534
     50  CG        13.1120    8.3880   14.0420 C.ar  207  PHE207     -0.0203
     51  CD1       12.0960    8.3540   15.0030 C.ar  207  PHE207     -0.0042
     52  CD2       14.0630    7.3750   14.0420 C.ar  207  PHE207     -0.0042
     53  CE1       12.0490    7.3320   15.9460 C.ar  207  PHE207     -0.0003
     54  CE2       14.0230    6.3650   14.9860 C.ar  207  PHE207     -0.0003
     55  CZ        13.0150    6.3410   15.9320 C.ar  207  PHE207     -0.0000
     56  N         17.2370   12.5280   15.8560 N.3   210  TRP210     -0.1227
     57  CA        16.7530   12.5890   17.2320 C.3   210  TRP210      0.1737
     58  C         17.3080   11.4540   18.0750 C.2   210  TRP210      0.2595
     59  O         17.7090   11.6600   19.2150 O.2   210  TRP210     -0.2718
     60  CB        15.2250   12.5460   17.2670 C.3   210  TRP210      0.0564
     61  CG        14.6640   13.2210   18.4770 C.ar  210  TRP210      0.0003
     62  CD1       14.8350   12.8570   19.7820 C.ar  210  TRP210      0.0946
     63  CD2       13.8360   14.3890   18.4940 C.ar  210  TRP210      0.0152
     64  NE1       14.1680   13.7310   20.6120 N.ar  210  TRP210     -0.2442
     65  CE2       13.5470   14.6800   19.8450 C.ar  210  TRP210      0.0810
     66  CE3       13.3010   15.2120   17.4960 C.ar  210  TRP210      0.0012
     67  CZ2       12.7480   15.7490   20.2170 C.ar  210  TRP210      0.0191
     68  CZ3       12.5190   16.2810   17.8690 C.ar  210  TRP210      0.0001
     69  CH2       12.2440   16.5370   19.2170 C.ar  210  TRP210      0.0015
     70  N         17.3050   10.2520   17.5180 N.am  211  ALA211     -0.1980
     71  CA        17.8020    9.0820   18.2440 C.3   211  ALA211      0.1597
     72  C         19.3120    9.1820   18.5020 C.2   211  ALA211      0.2287
     73  O         19.7520    9.0900   19.6450 O.2   211  ALA211     -0.2864
     74  CB        17.4650    7.8060   17.4920 C.3   211  ALA211      0.0319
     75  N         20.0360   11.1900   21.1940 N.3   214  ARG214     -0.1231
     76  CA        19.4900   10.6270   22.4140 C.3   214  ARG214      0.1694
     77  C         20.3340    9.4440   22.9100 C.2   214  ARG214      0.2591
     78  O         20.7560    9.4190   24.0690 O.2   214  ARG214     -0.2718
     79  CB        18.0510   10.1860   22.1660 C.3   214  ARG214      0.0321
     80  CG        17.2400   10.0540   23.4190 C.3   214  ARG214      0.0489
     81  CD        16.6880   11.3770   23.8910 C.3   214  ARG214      0.2205
     82  NE        15.6180   11.1600   24.8570 N.pl3 214  ARG214     -0.0865
     83  CZ        15.7920   10.8090   26.1330 C.cat 214  ARG214      0.5346
     84  NH1       14.7300   10.6340   26.9240 N.pl3 214  ARG214      0.1354
     85  NH2       17.0170   10.6350   26.6280 N.pl3 214  ARG214      0.1354
     86  N         20.5680    8.4750   22.0250 N.am  215  LEU215     -0.1980
     87  CA        21.3560    7.2760   22.3480 C.3   215  LEU215      0.1596
     88  C         22.7780    7.6290   22.7590 C.2   215  LEU215      0.2287
     89  O         23.3370    7.0070   23.6700 O.2   215  LEU215     -0.2864
     90  CB        21.4220    6.3220   21.1580 C.3   215  LEU215      0.0297
     91  CG        20.1390    5.7430   20.5600 C.3   215  LEU215      0.0022
     92  CD1       20.4780    4.6200   19.6030 C.3   215  LEU215      0.0001
     93  CD2       19.1950    5.2230   21.6270 C.3   215  LEU215      0.0001
     94  N         22.9290    8.9310   26.1810 N.3   218  ARG218     -0.1231
     95  CA        22.8990    7.7680   27.0550 C.3   218  ARG218      0.1694
     96  C         24.1770    6.9120   27.0060 C.2   218  ARG218      0.2592
     97  O         24.6800    6.4950   28.0450 O.2   218  ARG218     -0.2718
     98  CB        21.6810    6.9160   26.7030 C.3   218  ARG218      0.0321
     99  CG        20.4100    7.4150   27.3530 C.3   218  ARG218      0.0489
    100  CD        20.0890    6.5800   28.5870 C.3   218  ARG218      0.2205
    101  NE        19.1400    7.2430   29.4710 N.pl3 218  ARG218     -0.0865
    102  CZ        17.8590    7.4730   29.1830 C.cat 218  ARG218      0.5346
    103  NH1       17.3400    7.0990   28.0140 N.pl3 218  ARG218      0.1354
    104  NH2       17.0860    8.0880   30.0790 N.pl3 218  ARG218      0.1354
    105  N         24.6960    6.6740   25.8050 N.am  219  PHE219     -0.1976
    106  CA        25.8270    5.7610   25.5950 C.3   219  PHE219      0.1639
    107  C         27.1070    6.4690   25.1350 C.2   219  PHE219      0.2290
    108  O         27.6730    6.1200   24.0900 O.2   219  PHE219     -0.2864
    109  CB        25.4540    4.7150   24.5410 C.3   219  PHE219      0.0560
    110  CG        24.2580    3.8790   24.8960 C.ar  219  PHE219     -0.0200
    111  CD1       24.1110    3.3520   26.1710 C.ar  219  PHE219     -0.0042
    112  CD2       23.2990    3.5730   23.9350 C.ar  219  PHE219     -0.0042
    113  CE1       23.0190    2.5580   26.4900 C.ar  219  PHE219     -0.0003
    114  CE2       22.2010    2.7770   24.2500 C.ar  219  PHE219     -0.0003
    115  CZ        22.0630    2.2720   25.5240 C.ar  219  PHE219     -0.0000
    116  N         16.8280    0.9610   15.4260 N.3   234  LEU234     -0.1245
    117  CA        15.7190    1.6560   16.0650 C.3   234  LEU234      0.1561
    118  C         14.7570    2.2170   15.0090 C.2   234  LEU234      0.2260
    119  O         13.5470    2.0150   15.0880 O.2   234  LEU234     -0.2867
    120  CB        16.2720    2.7960   16.9230 C.3   234  LEU234      0.0270
    121  CG        15.4880    3.3220   18.1250 C.3   234  LEU234      0.0019
    122  CD1       15.6220    2.3630   19.2970 C.3   234  LEU234      0.0001
    123  CD2       16.0160    4.6740   18.4970 C.3   234  LEU234      0.0001
    124  N         10.7590    1.6710   14.6700 N.3   238  HIS238     -0.1241
    125  CA         9.7000    2.6700   14.7900 C.3   238  HIS238      0.1621
    126  C          8.9570    2.8850   13.4530 C.2   238  HIS238      0.2264
    127  O          7.7270    2.9690   13.4390 O.2   238  HIS238     -0.2867
    128  CB        10.2130    3.9660   15.4280 C.3   238  HIS238      0.0745
    129  CG        10.4360    3.8450   16.9050 C.ar  238  HIS238      0.0817
    130  ND1        9.4090    3.6010   17.7920 N.ar  238  HIS238     -0.2268
    131  CD2       11.5710    3.8810   17.6460 C.ar  238  HIS238      0.1154
    132  CE1        9.9010    3.5090   19.0160 C.ar  238  HIS238      0.1986
    133  NE2       11.2100    3.6810   18.9560 N.ar  238  HIS238     -0.2212
    134  N         12.3960   -5.1690   17.4670 N.3   253  ARG253     -0.1245
    135  CA        12.7070   -4.6040   18.7800 C.3   253  ARG253      0.1563
    136  C         13.3840   -5.6500   19.6390 C.2   253  ARG253      0.2260
    137  O         14.4050   -5.3870   20.2660 O.2   253  ARG253     -0.2867
    138  CB        11.4510   -4.1400   19.4640 C.3   253  ARG253      0.0307
    139  CG        11.7040   -3.3110   20.6800 C.3   253  ARG253      0.0489
    140  CD        10.3960   -2.8300   21.2490 C.3   253  ARG253      0.2205
    141  NE        10.6240   -2.0290   22.4420 N.pl3 253  ARG253     -0.0865
    142  CZ        10.1350   -2.2950   23.6570 C.cat 253  ARG253      0.5346
    143  NH1        9.3700   -3.3620   23.8890 N.pl3 253  ARG253      0.1354
    144  NH2       10.4230   -1.4740   24.6590 N.pl3 253  ARG253      0.1354
    145  N         17.0920   -6.2500   18.6530 N.3   256  LEU256     -0.1245
    146  CA        17.9130   -5.1420   19.1520 C.3   256  LEU256      0.1561
    147  C         18.2070   -5.2660   20.6280 C.2   256  LEU256      0.2260
    148  O         19.3270   -5.0270   21.0730 O.2   256  LEU256     -0.2867
    149  CB        17.1740   -3.8270   18.9270 C.3   256  LEU256      0.0270
    150  CG        17.9600   -2.5400   19.1380 C.3   256  LEU256      0.0019
    151  CD1       19.2290   -2.5180   18.2940 C.3   256  LEU256      0.0001
    152  CD2       17.0600   -1.3810   18.8050 C.3   256  LEU256      0.0001
    153  N         21.9130   -5.3990   21.8930 N.3   260  ILE260     -0.1245
    154  CA        22.4150   -4.5470   22.9630 C.3   260  ILE260      0.1561
    155  C         22.9680   -5.4050   24.1000 C.2   260  ILE260      0.2260
    156  O         24.0880   -5.1830   24.5650 O.2   260  ILE260     -0.2867
    157  CB        21.3110   -3.5680   23.4740 C.3   260  ILE260      0.0252
    158  CG1       21.0660   -2.4890   22.4230 C.3   260  ILE260      0.0019
    159  CG2       21.7110   -2.9100   24.8060 C.3   260  ILE260      0.0019
    160  CD1       19.9100   -1.5840   22.7210 C.3   260  ILE260      0.0001
    161  N         16.0170   -1.2350   29.3600 N.3   286  ILE286     -0.1231
    162  CA        17.0980   -0.6710   28.5370 C.3   286  ILE286      0.1692
    163  C         16.7600    0.7400   28.0680 C.2   286  ILE286      0.2591
    164  O         17.5530    1.6670   28.2330 O.2   286  ILE286     -0.2718
    165  CB        17.3700   -1.5680   27.2980 C.3   286  ILE286      0.0266
    166  CG1       18.0640   -2.8650   27.7200 C.3   286  ILE286      0.0019
    167  CG2       18.2330   -0.8470   26.2720 C.3   286  ILE286      0.0020
    168  CD1       18.0900   -3.9560   26.6390 C.3   286  ILE286      0.0001
    169  N         15.5650    0.8830   27.4950 N.am  287  ALA287     -0.1980
    170  CA        15.0850    2.1550   26.9400 C.3   287  ALA287      0.1597
    171  C         15.2120    3.3230   27.9040 C.2   287  ALA287      0.2287
    172  O         15.5280    4.4370   27.4860 O.2   287  ALA287     -0.2864
    173  CB        13.6430    2.0230   26.5130 C.3   287  ALA287      0.0319
    174  N         17.0500    3.3570   30.9460 N.3   289  VAL289     -0.1245
    175  CA        18.2000    3.2400   31.8520 C.3   289  VAL289      0.1561
    176  C         18.8350    4.6320   32.0490 C.2   289  VAL289      0.2260
    177  O         18.4730    5.5720   31.3470 O.2   289  VAL289     -0.2867
    178  CB        19.2220    2.2110   31.2850 C.3   289  VAL289      0.0252
    179  CG1       20.0530    2.8150   30.1550 C.3   289  VAL289      0.0019
    180  CG2       20.1130    1.6390   32.3850 C.3   289  VAL289      0.0019
@<TRIPOS>BOND
     1    42    41    2
     2    41    40    1
     3    45    46    1
     4    49    46    1
     5    49    50    1
     6    40    39    1
     7    40    43    1
     8   127   126    2
     9    46    47    1
    10   126   125    1
    11    47    48    2
    12    50    52   ar
    13    50    51   ar
    14    52    54   ar
    15    43    44    1
    16    33    32    2
    17   124   125    1
    18   125   128    1
    19    54    55   ar
    20    51    53   ar
    21   118   119    2
    22   118   117    1
    23   116   117    1
    24   128   129    1
    25    32    31    1
    26    56    57    1
    27    55    53   ar
    28   117   120    1
    29    25    24    2
    30    31    34    1
    31    31    30    1
    32   129   131   ar
    33   129   130   ar
    34   120   121    1
    35    57    60    1
    36    57    58    1
    37    60    61    1
    38    34    35    1
    39    24    30   am
    40    24    23    1
    41   134   135    1
    42    74    71    1
    43    66    68   ar
    44    66    63   ar
    45    70    58   am
    46    70    71    1
    47   131   133   ar
    48   130   132   ar
    49    68    69   ar
    50    58    59    2
    51   121   123    1
    52   121   122    1
    53    71    72    1
    54    29    27    1
    55   151   150    1
    56    23    22    1
    57    23    26    1
    58    61    63   ar
    59    61    62   ar
    60    63    65   ar
    61    72    73    2
    62    35    36    1
    63   145   146    1
    64   135   138    1
    65   135   136    1
    66   152   150    1
    67   149   150    1
    68   149   146    1
    69   133   132   ar
    70   146   147    1
    71    69    67   ar
    72    36    37    1
    73     9     7   ar
    74     9    11   ar
    75   138   139    1
    76    27    26    1
    77    27    28    1
    78    92    91    1
    79   136   137    2
    80     7     6   ar
    81    62    64   ar
    82    65    67   ar
    83    65    64   ar
    84    12    11    1
    85    11    10   ar
    86    91    90    1
    87    91    93    1
    88    37    38    1
    89   147   148    2
    90   139   140    1
    91     2     1    1
    92     2     3    1
    93     2     5    1
    94     6     5    1
    95     6     8   ar
    96    90    87    1
    97    16    15    2
    98    75    76    1
    99   140   141    1
   100     3     4    2
   101    10     8   ar
   102   153   154    1
   103    86    87    1
   104    86    77   am
   105    15    14    1
   106    79    76    1
   107    79    80    1
   108    87    88    1
   109    76    77    1
   110   158   160    1
   111   158   157    1
   112   141   142    2
   113    88    89    2
   114    77    78    2
   115   154   157    1
   116   154   155    1
   117    80    81    1
   118    14    13    1
   119    14    17    1
   120   157   159    1
   121   142   143    1
   122   142   144    1
   123    81    82    1
   124   112   114   ar
   125   112   110   ar
   126   108   107    2
   127   155   156    2
   128   114   115   ar
   129    17    18    1
   130   109   110    1
   131   109   106    1
   132    82    83    2
   133   110   111   ar
   134   107   106    1
   135   115   113   ar
   136   106   105    1
   137    18    19    1
   138   105    96   am
   139    83    85    1
   140    83    84    1
   141   111   113   ar
   142    94    95    1
   143   167   165    1
   144   173   170    1
   145    20    19    1
   146    20    21    1
   147   168   166    1
   148    98    95    1
   149    98    99    1
   150   170   169    1
   151   170   171    1
   152    96    95    1
   153    96    97    2
   154   165   166    1
   155   165   162    1
   156    99   100    1
   157   172   171    2
   158   169   163   am
   159   103   102    1
   160   163   164    2
   161   163   162    1
   162   162   161    1
   163   100   101    1
   164   102   101    2
   165   102   104    1
   166   179   178    1
   167   174   175    1
   168   178   175    1
   169   178   180    1
   170   177   176    2
   171   175   176    1
