@<TRIPOS>MOLECULE
tmp/3lu7B00.pdb
 210 199 0 0 0
SMALL
GASTEIGER

@<TRIPOS>ATOM
      1  N        -13.1540  -20.0730  -44.2600 N.3   147  TYR147     -0.1241
      2  CA       -13.6980  -18.7310  -44.0390 C.3   147  TYR147      0.1605
      3  C        -15.1710  -18.6770  -44.4990 C.2   147  TYR147      0.2264
      4  O        -15.4730  -18.7330  -45.6930 O.2   147  TYR147     -0.2867
      5  CB       -12.8210  -17.7020  -44.7670 C.3   147  TYR147      0.0534
      6  CG       -13.1140  -16.2500  -44.4710 C.ar  147  TYR147     -0.0201
      7  CD1      -13.7420  -15.8500  -43.2810 C.ar  147  TYR147     -0.0009
      8  CD2      -12.7380  -15.2610  -45.3710 C.ar  147  TYR147     -0.0009
      9  CE1      -13.9970  -14.5040  -43.0160 C.ar  147  TYR147      0.0417
     10  CE2      -12.9900  -13.9260  -45.1120 C.ar  147  TYR147      0.0417
     11  CZ       -13.6160  -13.5590  -43.9300 C.ar  147  TYR147      0.1957
     12  OH       -13.8810  -12.2480  -43.6790 O.3   147  TYR147     -0.2866
     13  N        -16.8980  -16.3530  -46.9320 N.3   150  GLU150     -0.1245
     14  CA       -16.3570  -16.7060  -48.2330 C.3   150  GLU150      0.1567
     15  C        -17.0590  -17.9190  -48.7900 C.2   150  GLU150      0.2260
     16  O        -17.4300  -17.9140  -49.9630 O.2   150  GLU150     -0.2867
     17  CB       -14.8550  -16.9810  -48.1450 C.3   150  GLU150      0.0388
     18  CG       -13.9940  -15.7610  -48.4310 C.3   150  GLU150      0.1160
     19  CD       -13.7570  -15.5420  -49.9080 C.2   150  GLU150      0.3649
     20  OE1      -13.3110  -16.4990  -50.5830 O.co2 150  GLU150     -0.2457
     21  OE2      -13.9920  -14.4080  -50.3740 O.co2 150  GLU150     -0.2457
     22  N         -5.2640  -20.2230  -47.2640 N.3   192  LYS192     -0.1231
     23  CA        -5.1400  -18.8220  -46.8910 C.3   192  LYS192      0.1693
     24  C         -5.7130  -18.5840  -45.4780 C.2   192  LYS192      0.2591
     25  O         -5.0220  -18.0030  -44.6280 O.2   192  LYS192     -0.2718
     26  CB        -5.7940  -17.8920  -47.9420 C.3   192  LYS192      0.0285
     27  CG        -4.7980  -17.0750  -48.8260 C.3   192  LYS192      0.0035
     28  CD        -5.1250  -17.1240  -50.3230 C.3   192  LYS192      0.0206
     29  CE        -6.5670  -16.7170  -50.6290 C.3   192  LYS192      0.1093
     30  NZ        -7.2420  -17.7090  -51.5300 N.3   192  LYS192     -0.1314
     31  N         -6.9280  -19.0620  -45.2000 N.am  193  GLN193     -0.1979
     32  CA        -7.5400  -18.8120  -43.8740 C.3   193  GLN193      0.1601
     33  C         -6.8730  -19.5530  -42.7180 C.2   193  GLN193      0.2287
     34  O         -6.8200  -19.0400  -41.5880 O.2   193  GLN193     -0.2864
     35  CB        -9.0300  -19.1340  -43.8870 C.3   193  GLN193      0.0394
     36  CG        -9.8130  -18.5790  -42.7260 C.3   193  GLN193      0.0908
     37  CD        -9.8610  -17.0370  -42.6710 C.2   193  GLN193      0.2608
     38  OE1      -10.4300  -16.4630  -41.7270 O.2   193  GLN193     -0.2717
     39  NE2       -9.2600  -16.3680  -43.6690 N.am  193  GLN193     -0.0878
     40  N         -3.7380  -20.1360  -42.2690 N.3   195  LEU195     -0.1231
     41  CA        -2.6580  -19.2890  -41.7980 C.3   195  LEU195      0.1693
     42  C         -3.2040  -18.1810  -40.8800 C.2   195  LEU195      0.2591
     43  O         -2.6470  -17.9310  -39.8100 O.2   195  LEU195     -0.2718
     44  CB        -1.9070  -18.6800  -42.9790 C.3   195  LEU195      0.0284
     45  CG        -0.6530  -17.8200  -42.7230 C.3   195  LEU195      0.0019
     46  CD1        0.4510  -18.5720  -41.9790 C.3   195  LEU195      0.0001
     47  CD2       -0.0980  -17.3110  -44.0370 C.3   195  LEU195      0.0001
     48  N         -4.3000  -17.5290  -41.2720 N.am  196  LYS196     -0.1980
     49  CA        -4.8650  -16.4340  -40.4640 C.3   196  LYS196      0.1596
     50  C         -5.2520  -16.9230  -39.0860 C.2   196  LYS196      0.2287
     51  O         -5.0440  -16.2200  -38.1090 O.2   196  LYS196     -0.2864
     52  CB        -6.1010  -15.7830  -41.1290 C.3   196  LYS196      0.0298
     53  CG        -5.8450  -15.1560  -42.4950 C.3   196  LYS196      0.0038
     54  CD        -6.6840  -13.9050  -42.7180 C.3   196  LYS196      0.0206
     55  CE        -6.7990  -13.5210  -44.2090 C.3   196  LYS196      0.1093
     56  NZ        -5.5950  -13.8480  -45.0360 N.3   196  LYS196     -0.1314
     57  N         -2.2360  -17.9620  -36.9870 N.3   199  SER199     -0.1217
     58  CA        -1.6360  -16.7230  -36.4590 C.3   199  SER199      0.1889
     59  C         -2.2970  -16.2530  -35.1790 C.2   199  SER199      0.2288
     60  O         -1.6370  -16.0110  -34.1670 O.2   199  SER199     -0.2866
     61  CB        -1.7410  -15.6100  -37.4870 C.3   199  SER199      0.2089
     62  OG        -1.2870  -16.0850  -38.7360 O.3   199  SER199     -0.2183
     63  N          0.1620  -10.4920  -33.5520 N.3   207  ALA207     -0.1231
     64  CA         0.7860  -11.0620  -34.7520 C.3   207  ALA207      0.1694
     65  C         -0.0640  -10.8280  -35.9910 C.2   207  ALA207      0.2592
     66  O          0.4100  -10.3220  -37.0070 O.2   207  ALA207     -0.2718
     67  CB         1.0440  -12.5620  -34.5730 C.3   207  ALA207      0.0304
     68  N         -1.3270  -11.2040  -35.9030 N.am  208  PHE208     -0.1976
     69  CA        -2.2690  -10.8860  -36.9510 C.3   208  PHE208      0.1639
     70  C         -2.2080   -9.3950  -37.3060 C.2   208  PHE208      0.2290
     71  O         -2.0300   -9.0390  -38.4670 O.2   208  PHE208     -0.2864
     72  CB        -3.6750  -11.2360  -36.5050 C.3   208  PHE208      0.0560
     73  CG        -4.6790  -11.0680  -37.5710 C.ar  208  PHE208     -0.0200
     74  CD1       -4.9830  -12.1170  -38.4150 C.ar  208  PHE208     -0.0042
     75  CD2       -5.3000   -9.8480  -37.7610 C.ar  208  PHE208     -0.0042
     76  CE1       -5.9140  -11.9620  -39.4360 C.ar  208  PHE208     -0.0003
     77  CE2       -6.2370   -9.6740  -38.7760 C.ar  208  PHE208     -0.0003
     78  CZ        -6.5460  -10.7350  -39.6140 C.ar  208  PHE208     -0.0000
     79  N          0.5710   -8.2970  -39.4390 N.3   211  TRP211     -0.1227
     80  CA         0.4120   -8.8410  -40.7980 C.3   211  TRP211      0.1737
     81  C         -0.5710   -7.9560  -41.5750 C.2   211  TRP211      0.2595
     82  O         -0.2540   -7.4800  -42.6520 O.2   211  TRP211     -0.2718
     83  CB        -0.0430  -10.3180  -40.7830 C.3   211  TRP211      0.0564
     84  CG         0.2320  -11.0630  -42.0760 C.ar  211  TRP211      0.0003
     85  CD1       -0.2270  -10.7350  -43.3110 C.ar  211  TRP211      0.0946
     86  CD2        1.0310  -12.2570  -42.2560 C.ar  211  TRP211      0.0152
     87  NE1        0.2310  -11.6360  -44.2530 N.ar  211  TRP211     -0.2442
     88  CE2        1.0040  -12.5780  -43.6320 C.ar  211  TRP211      0.0810
     89  CE3        1.7600  -13.0820  -41.3890 C.ar  211  TRP211      0.0012
     90  CZ2        1.6810  -13.6880  -44.1650 C.ar  211  TRP211      0.0191
     91  CZ3        2.4320  -14.1890  -41.9230 C.ar  211  TRP211      0.0001
     92  CH2        2.3870  -14.4770  -43.2980 C.ar  211  TRP211      0.0015
     93  N         -1.7390   -7.7020  -40.9920 N.am  212  ALA212     -0.1980
     94  CA        -2.7780   -6.8870  -41.6300 C.3   212  ALA212      0.1597
     95  C         -2.3290   -5.4580  -41.9890 C.2   212  ALA212      0.2287
     96  O         -2.5730   -4.9870  -43.0980 O.2   212  ALA212     -0.2864
     97  CB        -3.9970   -6.8430  -40.7540 C.3   212  ALA212      0.0319
     98  N          0.0030   -5.7080  -44.8760 N.3   215  ARG215     -0.1231
     99  CA        -0.7050   -6.0730  -46.0850 C.3   215  ARG215      0.1694
    100  C         -1.6060   -4.9490  -46.5970 C.2   215  ARG215      0.2591
    101  O         -1.5810   -4.6140  -47.7810 O.2   215  ARG215     -0.2718
    102  CB        -1.5290   -7.3250  -45.8310 C.3   215  ARG215      0.0321
    103  CG        -1.9780   -8.0050  -47.0900 C.3   215  ARG215      0.0489
    104  CD        -0.8970   -8.8550  -47.6620 C.3   215  ARG215      0.2205
    105  NE        -1.3750   -9.6200  -48.8100 N.pl3 215  ARG215     -0.0865
    106  CZ        -1.4970   -9.1360  -50.0440 C.cat 215  ARG215      0.5346
    107  NH1       -1.1770   -7.8640  -50.3270 N.pl3 215  ARG215      0.1354
    108  NH2       -1.9430   -9.9370  -51.0070 N.pl3 215  ARG215      0.1354
    109  N         -2.4060   -4.3740  -45.7130 N.am  216  LEU216     -0.1980
    110  CA        -3.3270   -3.3290  -46.1170 C.3   216  LEU216      0.1596
    111  C         -2.5930   -2.0780  -46.5820 C.2   216  LEU216      0.2287
    112  O         -3.0590   -1.3720  -47.4760 O.2   216  LEU216     -0.2864
    113  CB        -4.2760   -2.9880  -44.9750 C.3   216  LEU216      0.0297
    114  CG        -5.3310   -4.0520  -44.6790 C.3   216  LEU216      0.0022
    115  CD1       -6.0790   -3.7100  -43.4120 C.3   216  LEU216      0.0001
    116  CD2       -6.3040   -4.1940  -45.8300 C.3   216  LEU216      0.0001
    117  N         -1.4710   -2.4700  -49.9990 N.3   219  ARG219     -0.1231
    118  CA        -2.6490   -2.3560  -50.8300 C.3   219  ARG219      0.1694
    119  C         -3.1240   -0.9260  -50.9430 C.2   219  ARG219      0.2592
    120  O         -3.4270   -0.4790  -52.0380 O.2   219  ARG219     -0.2718
    121  CB        -3.7800   -3.2120  -50.2740 C.3   219  ARG219      0.0321
    122  CG        -4.7470   -3.6740  -51.3230 C.3   219  ARG219      0.0489
    123  CD        -4.0380   -4.5210  -52.3680 C.3   219  ARG219      0.2205
    124  NE        -4.7800   -5.7370  -52.6770 N.pl3 219  ARG219     -0.0865
    125  CZ        -4.6810   -6.8770  -51.9970 C.cat 219  ARG219      0.5346
    126  NH1       -5.4020   -7.9280  -52.3640 N.pl3 219  ARG219      0.1354
    127  NH2       -3.8870   -6.9760  -50.9450 N.pl3 219  ARG219      0.1354
    128  N         -3.1860   -0.2110  -49.8180 N.am  220  PHE220     -0.1976
    129  CA        -3.7570    1.1480  -49.7790 C.3   220  PHE220      0.1639
    130  C         -2.7270    2.2150  -49.4090 C.2   220  PHE220      0.2290
    131  O         -2.8460    2.8510  -48.3650 O.2   220  PHE220     -0.2864
    132  CB        -4.9040    1.1950  -48.7830 C.3   220  PHE220      0.0560
    133  CG        -5.9950    0.1920  -49.0530 C.ar  220  PHE220     -0.0200
    134  CD1       -6.5980    0.1240  -50.2950 C.ar  220  PHE220     -0.0042
    135  CD2       -6.4510   -0.6490  -48.0540 C.ar  220  PHE220     -0.0042
    136  CE1       -7.6220   -0.7690  -50.5490 C.ar  220  PHE220     -0.0003
    137  CE2       -7.4670   -1.5470  -48.3030 C.ar  220  PHE220     -0.0003
    138  CZ        -8.0550   -1.6040  -49.5560 C.ar  220  PHE220     -0.0000
    139  N        -10.8170   -5.3520  -39.4220 N.3   235  LEU235     -0.1245
    140  CA       -10.4140   -6.6510  -39.9840 C.3   235  LEU235      0.1561
    141  C         -9.9420   -7.6720  -38.9410 C.2   235  LEU235      0.2260
    142  O        -10.1850   -8.8570  -39.0980 O.2   235  LEU235     -0.2867
    143  CB        -9.3150   -6.4730  -41.0390 C.3   235  LEU235      0.0270
    144  CG        -9.0460   -7.6990  -41.9320 C.3   235  LEU235      0.0019
    145  CD1      -10.2100   -7.9240  -42.8850 C.3   235  LEU235      0.0001
    146  CD2       -7.7410   -7.5650  -42.7210 C.3   235  LEU235      0.0001
    147  N        -11.7960  -11.5830  -38.4410 N.3   239  HIS239     -0.1241
    148  CA       -11.0860  -12.8580  -38.5180 C.3   239  HIS239      0.1621
    149  C        -10.8710  -13.5380  -37.1630 C.2   239  HIS239      0.2264
    150  O        -10.5650  -14.7370  -37.1160 O.2   239  HIS239     -0.2867
    151  CB        -9.7470  -12.6880  -39.2440 C.3   239  HIS239      0.0745
    152  CG        -9.8800  -12.6170  -40.7310 C.ar  239  HIS239      0.0817
    153  ND1      -10.3660  -13.6640  -41.4810 N.ar  239  HIS239     -0.2268
    154  CD2       -9.6030  -11.6250  -41.6060 C.ar  239  HIS239      0.1154
    155  CE1      -10.3740  -13.3250  -42.7570 C.ar  239  HIS239      0.1986
    156  NE2       -9.9150  -12.0910  -42.8610 N.ar  239  HIS239     -0.2212
    157  N        -18.0210   -8.3820  -41.2560 N.3   254  ARG254     -0.1245
    158  CA       -17.3540   -8.3530  -42.5560 C.3   254  ARG254      0.1563
    159  C        -18.1480   -7.5350  -43.5710 C.2   254  ARG254      0.2260
    160  O        -17.5590   -6.7920  -44.3460 O.2   254  ARG254     -0.2867
    161  CB       -17.1380   -9.7660  -43.0970 C.3   254  ARG254      0.0307
    162  CG       -16.1230   -9.8540  -44.2350 C.3   254  ARG254      0.0489
    163  CD       -16.5960  -10.8530  -45.2580 C.3   254  ARG254      0.2205
    164  NE       -15.6020  -11.1950  -46.2810 N.pl3 254  ARG254     -0.0865
    165  CZ       -15.8550  -11.9640  -47.3430 C.cat 254  ARG254      0.5346
    166  NH1      -17.0680  -12.4610  -47.5390 N.pl3 254  ARG254      0.1354
    167  NH2      -14.8970  -12.2410  -48.2150 N.pl3 254  ARG254      0.1354
    168  N        -17.7610   -3.9560  -42.9530 N.3   257  LEU257     -0.1245
    169  CA       -16.4150   -3.5200  -43.3230 C.3   257  LEU257      0.1561
    170  C        -16.3540   -3.1660  -44.7990 C.2   257  LEU257      0.2260
    171  O        -15.7630   -2.1560  -45.1520 O.2   257  LEU257     -0.2867
    172  CB       -15.3690   -4.5820  -42.9500 C.3   257  LEU257      0.0270
    173  CG       -13.9030   -4.3480  -43.3300 C.3   257  LEU257      0.0019
    174  CD1      -13.3980   -2.9920  -42.8890 C.3   257  LEU257      0.0001
    175  CD2      -13.0390   -5.4420  -42.7310 C.3   257  LEU257      0.0001
    176  N        -15.6520    0.6020  -46.3250 N.3   261  ILE261     -0.1245
    177  CA       -14.6560    0.7360  -47.3720 C.3   261  ILE261      0.1561
    178  C        -15.2300    1.5090  -48.5650 C.2   261  ILE261      0.2260
    179  O        -14.6490    2.5030  -49.0140 O.2   261  ILE261     -0.2867
    180  CB       -14.1330   -0.6640  -47.7970 C.3   261  ILE261      0.0252
    181  CG1      -13.2080   -1.2260  -46.7040 C.3   261  ILE261      0.0019
    182  CG2      -13.3970   -0.6090  -49.1470 C.3   261  ILE261      0.0019
    183  CD1      -13.0380   -2.7400  -46.7450 C.3   261  ILE261      0.0001
    184  N        -17.0650   -8.2450  -51.0630 N.3   284  SER284     -0.1217
    185  CA       -15.9230   -8.4800  -50.1870 C.3   284  SER284      0.1889
    186  C        -14.9300   -9.4800  -50.7560 C.2   284  SER284      0.2288
    187  O        -13.7570   -9.4340  -50.4060 O.2   284  SER284     -0.2866
    188  CB       -16.3830   -8.9380  -48.8000 C.3   284  SER284      0.2089
    189  OG       -16.9590   -7.8620  -48.0800 O.3   284  SER284     -0.2183
    190  N        -12.9520   -6.9520  -53.0860 N.3   287  ILE287     -0.1231
    191  CA       -12.1460   -5.9560  -52.3740 C.3   287  ILE287      0.1692
    192  C        -10.9360   -6.6440  -51.7860 C.2   287  ILE287      0.2591
    193  O         -9.8270   -6.1120  -51.8400 O.2   287  ILE287     -0.2718
    194  CB       -12.9250   -5.2610  -51.2350 C.3   287  ILE287      0.0266
    195  CG1      -14.1330   -4.5060  -51.7790 C.3   287  ILE287      0.0019
    196  CG2      -12.0530   -4.2530  -50.5110 C.3   287  ILE287      0.0020
    197  CD1      -15.2420   -4.3120  -50.7580 C.3   287  ILE287      0.0001
    198  N        -11.1580   -7.8350  -51.2340 N.am  288  ALA288     -0.1980
    199  CA       -10.0730   -8.6790  -50.7260 C.3   288  ALA288      0.1597
    200  C         -8.9560   -8.9330  -51.7480 C.2   288  ALA288      0.2287
    201  O         -7.7830   -8.9840  -51.3650 O.2   288  ALA288     -0.2864
    202  CB       -10.6350  -10.0030  -50.2310 C.3   288  ALA288      0.0319
    203  N          6.5830  -17.4550  -36.3420 N.3   478  LEU478     -0.1245
    204  CA         5.6310  -17.5700  -37.4330 C.3   478  LEU478      0.1561
    205  C          6.2780  -17.0960  -38.7080 C.2   478  LEU478      0.2260
    206  O          6.0940  -17.6640  -39.7790 O.2   478  LEU478     -0.2867
    207  CB         4.4250  -16.6820  -37.1550 C.3   478  LEU478      0.0270
    208  CG         3.3420  -16.6520  -38.2220 C.3   478  LEU478      0.0019
    209  CD1        2.9960  -18.0570  -38.6560 C.3   478  LEU478      0.0001
    210  CD2        2.1310  -15.9710  -37.6460 C.3   478  LEU478      0.0001
@<TRIPOS>BOND
     1   190   191    1
     2   124   123    1
     3   124   125    2
     4   191   192    1
     5   191   194    1
     6   123   122    1
     7   126   125    1
     8   120   119    2
     9   125   127    1
    10   193   192    2
    11   192   198   am
    12   195   194    1
    13   195   197    1
    14   200   201    2
    15   200   199    1
    16    30    29    1
    17   122   121    1
    18   194   196    1
    19   198   199    1
    20   184   185    1
    21   108   106    1
    22   119   118    1
    23   119   128   am
    24   118   121    1
    25   118   117    1
    26   186   187    2
    27   186   185    1
    28   199   202    1
    29    29    28    1
    30    20    19   ar
    31   136   134   ar
    32   136   138   ar
    33    21    19   ar
    34   107   106    1
    35    28    27    1
    36   134   133   ar
    37   185   188    1
    38   106   105    2
    39    16    15    2
    40    19    18    1
    41   128   129    1
    42   129   130    1
    43   129   132    1
    44   138   137   ar
    45   130   131    2
    46   182   180    1
    47   133   132    1
    48   133   135   ar
    49   179   178    2
    50    27    26    1
    51   105   104    1
    52   188   189    1
    53    15    14    1
    54   178   177    1
    55    18    17    1
    56   137   135   ar
    57    14    17    1
    58    14    13    1
    59   167   165    1
    60    26    23    1
    61   180   177    1
    62   180   181    1
    63   101   100    2
    64   104   103    1
    65   166   165    1
    66   112   111    2
    67   177   176    1
    68   165   164    2
    69    22    23    1
    70   103   102    1
    71    23    24    1
    72   183   181    1
    73   100    99    1
    74   100   109   am
    75   111   110    1
    76   164   163    1
    77   110   109    1
    78   110   113    1
    79    99   102    1
    80    99    98    1
    81   116   114    1
    82     4     3    2
    83    24    31   am
    84    24    25    2
    85     8    10   ar
    86     8     6   ar
    87   163   162    1
    88    31    32    1
    89   171   170    2
    90    10    11   ar
    91    56    55    1
    92   113   114    1
    93   170   169    1
    94     5     6    1
    95     5     2    1
    96   114   115    1
    97     3     2    1
    98     6     7   ar
    99   160   159    2
   100     1     2    1
   101    87    88   ar
   102    87    85   ar
   103   162   161    1
   104    55    54    1
   105    90    88   ar
   106    90    92   ar
   107    47    45    1
   108    11    12    1
   109    11     9   ar
   110    35    32    1
   111    35    36    1
   112    32    33    1
   113    39    37   am
   114    88    86   ar
   115   159   158    1
   116   173   172    1
   117   173   174    1
   118   173   175    1
   119   169   168    1
   120   169   172    1
   121    85    84   ar
   122    92    91   ar
   123     7     9   ar
   124    96    95    2
   125   161   158    1
   126    44    45    1
   127    44    41    1
   128   145   144    1
   129   156   155   ar
   130   156   154   ar
   131   155   153   ar
   132    36    37    1
   133    45    46    1
   134   146   144    1
   135    33    34    2
   136    54    53    1
   137    37    38    2
   138    82    81    2
   139   158   157    1
   140    53    52    1
   141    40    41    1
   142    86    84   ar
   143    86    89   ar
   144    84    83    1
   145    95    94    1
   146   144   143    1
   147    91    89   ar
   148    41    42    1
   149    94    93    1
   150    94    97    1
   151   154   152   ar
   152    81    93   am
   153    81    80    1
   154   153   152   ar
   155    48    42   am
   156    48    49    1
   157    52    49    1
   158   143   140    1
   159    42    43    2
   160    80    83    1
   161    80    79    1
   162   152   151    1
   163    49    50    1
   164   140   139    1
   165   140   141    1
   166   206   205    2
   167    78    76   ar
   168    78    77   ar
   169    76    74   ar
   170   151   148    1
   171   142   141    2
   172    50    51    2
   173    77    75   ar
   174    62    61    1
   175   205   204    1
   176   209   208    1
   177   148   147    1
   178   148   149    1
   179    71    70    2
   180    74    73   ar
   181   208   210    1
   182   208   207    1
   183    75    73   ar
   184    73    72    1
   185    61    58    1
   186   204   207    1
   187   204   203    1
   188    70    69    1
   189   149   150    2
   190    66    65    2
   191    57    58    1
   192    69    72    1
   193    69    68    1
   194    58    59    1
   195    65    68   am
   196    65    64    1
   197    59    60    2
   198    64    67    1
   199    64    63    1
