@<TRIPOS>MOLECULE
tmp/3lu8B00.pdb
 203 199 0 0 0
SMALL
GASTEIGER

@<TRIPOS>ATOM
      1  N        -13.2430  -40.4770  -46.5360 N.3   104  PRO104     -0.2102
      2  CA       -13.0320  -40.8760  -47.9250 C.3   104  PRO104      0.1504
      3  C        -12.9040  -39.6450  -48.7830 C.2   104  PRO104      0.2576
      4  O        -13.6960  -38.7350  -48.6340 O.2   104  PRO104     -0.2718
      5  CB       -14.2980  -41.6590  -48.2790 C.3   104  PRO104      0.0282
      6  CG       -15.3290  -41.2680  -47.2720 C.3   104  PRO104      0.0208
      7  CD       -14.5820  -40.8510  -46.0370 C.3   104  PRO104      0.0893
      8  N        -11.9070  -39.6070  -49.6590 N.am  105  ARG105     -0.1966
      9  CA       -11.6180  -38.3830  -50.4050 C.3   105  ARG105      0.1729
     10  C        -12.7160  -38.0690  -51.4030 C.2   105  ARG105      0.2616
     11  O        -13.4590  -38.9570  -51.8260 O.2   105  ARG105     -0.2715
     12  CB       -10.2660  -38.4590  -51.1160 C.3   105  ARG105      0.0348
     13  CG       -10.2450  -39.3640  -52.3260 C.3   105  ARG105      0.0492
     14  CD        -9.5900  -38.7090  -53.5130 C.3   105  ARG105      0.2205
     15  NE        -8.1440  -38.6290  -53.3490 N.pl3 105  ARG105     -0.0865
     16  CZ        -7.2620  -38.6550  -54.3490 C.cat 105  ARG105      0.5346
     17  NH1       -7.6640  -38.7770  -55.6160 N.pl3 105  ARG105      0.1354
     18  NH2       -5.9570  -38.5760  -54.0790 N.pl3 105  ARG105      0.1354
     19  N        -12.8220  -36.7970  -51.7620 N.am  106  LEU106     -0.1963
     20  CA       -13.8520  -36.3610  -52.6960 C.3   106  LEU106      0.1728
     21  C        -13.5000  -36.8960  -54.0610 C.2   106  LEU106      0.2616
     22  O        -12.3710  -36.7300  -54.5190 O.2   106  LEU106     -0.2715
     23  CB       -13.9910  -34.8250  -52.7170 C.3   106  LEU106      0.0311
     24  CG       -15.1500  -34.1870  -51.9300 C.3   106  LEU106      0.0022
     25  CD1      -15.7780  -35.1270  -50.9140 C.3   106  LEU106      0.0001
     26  CD2      -14.7000  -32.9100  -51.2430 C.3   106  LEU106      0.0001
     27  N        -14.4500  -37.5990  -54.6740 N.am  107  VAL107     -0.1963
     28  CA       -14.3250  -38.0040  -56.0680 C.3   107  VAL107      0.1727
     29  C        -15.6920  -37.7600  -56.7120 C.2   107  VAL107      0.2616
     30  O        -16.6850  -38.4070  -56.3710 O.2   107  VAL107     -0.2715
     31  CB       -13.7710  -39.4680  -56.2380 C.3   107  VAL107      0.0290
     32  CG1      -14.3440  -40.4060  -55.1960 C.3   107  VAL107      0.0023
     33  CG2      -14.0150  -40.0060  -57.6560 C.3   107  VAL107      0.0023
     34  N        -15.7270  -36.7940  -57.6280 N.am  108  ARG108     -0.1964
     35  CA       -16.9860  -36.2770  -58.1290 C.3   108  ARG108      0.1714
     36  C        -17.5680  -37.2150  -59.1620 C.2   108  ARG108      0.2458
     37  O        -16.9010  -37.5650  -60.1260 O.2   108  ARG108     -0.2730
     38  CB       -16.8110  -34.8590  -58.6800 C.3   108  ARG108      0.0347
     39  CG       -16.2870  -34.6900  -60.1010 C.3   108  ARG108      0.0492
     40  CD       -15.8140  -33.2460  -60.2200 C.3   108  ARG108      0.2205
     41  NE       -15.3770  -32.8240  -61.5500 N.pl3 108  ARG108     -0.0865
     42  CZ       -14.6810  -31.7080  -61.7870 C.cat 108  ARG108      0.5346
     43  NH1      -14.3300  -30.8990  -60.7910 N.pl3 108  ARG108      0.1354
     44  NH2      -14.3290  -31.3850  -63.0250 N.pl3 108  ARG108      0.1354
     45  N        -18.8080  -37.6610  -58.9460 N.am  109  PRO109     -0.2727
     46  CA       -19.4160  -38.5760  -59.9050 C.3   109  PRO109      0.1402
     47  C        -19.7340  -37.9140  -61.2540 C.2   109  PRO109      0.2269
     48  O        -19.5220  -36.7060  -61.4300 O.2   109  PRO109     -0.2865
     49  CB       -20.6960  -39.0200  -59.1930 C.3   109  PRO109      0.0296
     50  CG       -21.0240  -37.8960  -58.2900 C.3   109  PRO109      0.0237
     51  CD       -19.7020  -37.3880  -57.8070 C.3   109  PRO109      0.0939
     52  N        -25.0460  -35.4590  -61.5170 N.3   114  MET114     -0.1245
     53  CA       -25.0890  -34.2320  -60.7160 C.3   114  MET114      0.1570
     54  C        -26.2470  -33.3450  -61.1190 C.2   114  MET114      0.2261
     55  O        -27.0130  -32.9130  -60.2660 O.2   114  MET114     -0.2867
     56  CB       -23.7820  -33.4500  -60.8170 C.3   114  MET114      0.0387
     57  CG       -22.5920  -34.2290  -60.3250 C.3   114  MET114      0.0595
     58  SD       -21.1280  -33.2260  -60.0710 S.3   114  MET114     -0.1393
     59  CE       -20.2860  -34.2500  -58.8860 C.3   114  MET114      0.0692
     60  N        -28.8040  -30.2090  -52.5870 N.3   125  PHE125     -0.1241
     61  CA       -27.6040  -30.4690  -53.3780 C.3   125  PHE125      0.1605
     62  C        -26.5000  -29.5100  -52.9690 C.2   125  PHE125      0.2264
     63  O        -25.3370  -29.8980  -52.8830 O.2   125  PHE125     -0.2867
     64  CB       -27.8850  -30.3300  -54.8740 C.3   125  PHE125      0.0534
     65  CG       -26.6630  -30.5200  -55.7450 C.ar  125  PHE125     -0.0203
     66  CD1      -26.1170  -31.7900  -55.9310 C.ar  125  PHE125     -0.0042
     67  CD2      -26.0590  -29.4310  -56.3790 C.ar  125  PHE125     -0.0042
     68  CE1      -24.9920  -31.9760  -56.7290 C.ar  125  PHE125     -0.0003
     69  CE2      -24.9330  -29.6030  -57.1770 C.ar  125  PHE125     -0.0003
     70  CZ       -24.3990  -30.8740  -57.3540 C.ar  125  PHE125     -0.0000
     71  N        -25.1320  -30.1850  -49.2880 N.3   128  LYS128     -0.1231
     72  CA       -24.1220  -31.2620  -49.3480 C.3   128  LYS128      0.1693
     73  C        -22.7440  -30.7910  -49.7750 C.2   128  LYS128      0.2592
     74  O        -21.7500  -31.4130  -49.4240 O.2   128  LYS128     -0.2718
     75  CB       -24.5770  -32.4030  -50.2730 C.3   128  LYS128      0.0285
     76  CG       -25.1890  -33.5920  -49.5330 C.3   128  LYS128      0.0035
     77  CD       -25.8510  -34.5780  -50.4840 C.3   128  LYS128      0.0206
     78  CE       -26.5180  -35.7030  -49.7170 C.3   128  LYS128      0.1093
     79  NZ       -27.0400  -36.7440  -50.6410 N.3   128  LYS128     -0.1314
     80  N        -22.6820  -29.6950  -50.5300 N.am  129  TYR129     -0.1976
     81  CA       -21.4090  -29.1280  -50.9660 C.3   129  TYR129      0.1639
     82  C        -20.7280  -28.2940  -49.8570 C.2   129  TYR129      0.2290
     83  O        -19.5170  -28.3850  -49.6680 O.2   129  TYR129     -0.2864
     84  CB       -21.6090  -28.3160  -52.2490 C.3   129  TYR129      0.0560
     85  CG       -20.4660  -27.3820  -52.5510 C.ar  129  TYR129     -0.0198
     86  CD1      -19.4050  -27.7790  -53.3540 C.ar  129  TYR129     -0.0009
     87  CD2      -20.4340  -26.1010  -52.0090 C.ar  129  TYR129     -0.0009
     88  CE1      -18.3610  -26.9200  -53.6160 C.ar  129  TYR129      0.0417
     89  CE2      -19.3990  -25.2570  -52.2610 C.ar  129  TYR129      0.0417
     90  CZ       -18.3690  -25.6680  -53.0620 C.ar  129  TYR129      0.1957
     91  OH       -17.3460  -24.7960  -53.2960 O.3   129  TYR129     -0.2866
     92  N        -19.4570  -31.0150  -47.2500 N.3   132  GLU132     -0.1231
     93  CA       -18.2710  -31.8260  -47.5940 C.3   132  GLU132      0.1699
     94  C        -16.9800  -31.0050  -47.6900 C.2   132  GLU132      0.2592
     95  O        -15.9380  -31.4410  -47.2290 O.2   132  GLU132     -0.2718
     96  CB       -18.5060  -32.6040  -48.8860 C.3   132  GLU132      0.0402
     97  CG       -19.7720  -33.4520  -48.8850 C.3   132  GLU132      0.1161
     98  CD       -19.6380  -34.7850  -48.1870 C.2   132  GLU132      0.3649
     99  OE1      -18.7250  -34.9640  -47.3550 O.co2 132  GLU132     -0.2457
    100  OE2      -20.4710  -35.6640  -48.4910 O.co2 132  GLU132     -0.2457
    101  N        -17.0520  -29.8170  -48.2900 N.am  133  ILE133     -0.1980
    102  CA       -15.9150  -28.9060  -48.2880 C.3   133  ILE133      0.1595
    103  C        -15.5600  -28.5030  -46.8560 C.2   133  ILE133      0.2287
    104  O        -14.4040  -28.5680  -46.4860 O.2   133  ILE133     -0.2864
    105  CB       -16.1750  -27.6280  -49.1350 C.3   133  ILE133      0.0276
    106  CG1      -16.5160  -27.9750  -50.5990 C.3   133  ILE133      0.0022
    107  CG2      -14.9680  -26.6780  -49.0710 C.3   133  ILE133      0.0022
    108  CD1      -15.7350  -29.1430  -51.1980 C.3   133  ILE133      0.0001
    109  N        -13.8610  -31.0390  -44.3580 N.3   136  ARG136     -0.1231
    110  CA       -12.4800  -31.4010  -44.7260 C.3   136  ARG136      0.1694
    111  C        -11.5470  -30.2080  -44.6080 C.2   136  ARG136      0.2592
    112  O        -10.3520  -30.3390  -44.8330 O.2   136  ARG136     -0.2718
    113  CB       -12.4150  -31.9530  -46.1570 C.3   136  ARG136      0.0321
    114  CG       -12.8930  -33.3940  -46.2980 C.3   136  ARG136      0.0489
    115  CD       -13.1230  -33.7450  -47.7620 C.3   136  ARG136      0.2205
    116  NE       -13.8830  -34.9770  -47.9890 N.pl3 136  ARG136     -0.0865
    117  CZ       -15.1740  -35.1450  -47.7040 C.cat 136  ARG136      0.5346
    118  NH1      -15.8920  -34.1820  -47.1490 N.pl3 136  ARG136      0.1354
    119  NH2      -15.7610  -36.2880  -47.9850 N.pl3 136  ARG136      0.1354
    120  N        -12.1070  -29.0500  -44.2730 N.am  137  HIS137     -0.1976
    121  CA       -11.3700  -27.8040  -44.1910 C.3   137  HIS137      0.1656
    122  C        -11.8960  -27.0540  -42.9650 C.2   137  HIS137      0.2291
    123  O        -12.5190  -26.0010  -43.0860 O.2   137  HIS137     -0.2864
    124  CB       -11.5580  -27.0300  -45.4900 C.3   137  HIS137      0.0771
    125  CG       -11.0080  -27.7420  -46.6930 C.ar  137  HIS137      0.0820
    126  ND1       -9.7520  -27.4850  -47.2010 N.ar  137  HIS137     -0.2267
    127  CD2      -11.5240  -28.7330  -47.4610 C.ar  137  HIS137      0.1154
    128  CE1       -9.5240  -28.2770  -48.2340 C.ar  137  HIS137      0.1986
    129  NE2      -10.5850  -29.0410  -48.4150 N.ar  137  HIS137     -0.2212
    130  N        -17.9030  -19.2340  -52.7590 N.3   148  PHE148     -0.1241
    131  CA       -17.7150  -20.4340  -53.5860 C.3   148  PHE148      0.1605
    132  C        -19.0410  -21.1610  -53.7740 C.2   148  PHE148      0.2264
    133  O        -19.2740  -21.7620  -54.8130 O.2   148  PHE148     -0.2867
    134  CB       -16.6760  -21.4030  -52.9820 C.3   148  PHE148      0.0534
    135  CG       -15.2580  -20.9120  -53.0730 C.ar  148  PHE148     -0.0203
    136  CD1      -14.6120  -20.3900  -51.9620 C.ar  148  PHE148     -0.0042
    137  CD2      -14.5700  -20.9620  -54.2720 C.ar  148  PHE148     -0.0042
    138  CE1      -13.3140  -19.9260  -52.0460 C.ar  148  PHE148     -0.0003
    139  CE2      -13.2590  -20.4990  -54.3630 C.ar  148  PHE148     -0.0003
    140  CZ       -12.6340  -19.9800  -53.2500 C.ar  148  PHE148     -0.0000
    141  N        -20.5630  -22.1030  -57.2790 N.3   152  TYR152     -0.1241
    142  CA       -20.8170  -23.5210  -57.4720 C.3   152  TYR152      0.1605
    143  C        -22.2400  -23.7670  -57.9740 C.2   152  TYR152      0.2264
    144  O        -22.4570  -24.5390  -58.9050 O.2   152  TYR152     -0.2867
    145  CB       -20.5830  -24.2720  -56.1530 C.3   152  TYR152      0.0534
    146  CG       -20.8510  -25.7680  -56.2110 C.ar  152  TYR152     -0.0201
    147  CD1      -19.9070  -26.6520  -56.7310 C.ar  152  TYR152     -0.0009
    148  CD2      -22.0370  -26.2960  -55.7340 C.ar  152  TYR152     -0.0009
    149  CE1      -20.1350  -28.0210  -56.7690 C.ar  152  TYR152      0.0417
    150  CE2      -22.2770  -27.6760  -55.7610 C.ar  152  TYR152      0.0417
    151  CZ       -21.3210  -28.5370  -56.2760 C.ar  152  TYR152      0.1957
    152  OH       -21.5770  -29.8960  -56.3210 O.3   152  TYR152     -0.2866
    153  N        -23.8980  -25.0550  -62.1200 N.3   156  PHE156     -0.1241
    154  CA       -24.9200  -26.0440  -62.4630 C.3   156  PHE156      0.1605
    155  C        -26.1410  -25.3750  -63.0750 C.2   156  PHE156      0.2264
    156  O        -26.7830  -25.9260  -63.9590 O.2   156  PHE156     -0.2867
    157  CB       -25.3140  -26.8440  -61.2220 C.3   156  PHE156      0.0534
    158  CG       -24.2330  -27.7730  -60.7400 C.ar  156  PHE156     -0.0203
    159  CD1      -24.1520  -29.0820  -61.2090 C.ar  156  PHE156     -0.0042
    160  CD2      -23.2970  -27.3370  -59.8300 C.ar  156  PHE156     -0.0042
    161  CE1      -23.1560  -29.9410  -60.7620 C.ar  156  PHE156     -0.0003
    162  CE2      -22.3030  -28.1790  -59.3760 C.ar  156  PHE156     -0.0003
    163  CZ       -22.2290  -29.4900  -59.8410 C.ar  156  PHE156     -0.0000
    164  N        -15.9090  -26.3650  -62.5050 N.3   173  LEU173     -0.1245
    165  CA       -15.7110  -27.1100  -61.2470 C.3   173  LEU173      0.1561
    166  C        -14.2320  -27.3070  -60.8910 C.2   173  LEU173      0.2260
    167  O        -13.8630  -27.1350  -59.7310 O.2   173  LEU173     -0.2867
    168  CB       -16.4450  -28.4510  -61.2580 C.3   173  LEU173      0.0270
    169  CG       -17.9580  -28.3370  -61.1020 C.3   173  LEU173      0.0019
    170  CD1      -18.6010  -29.6930  -61.2940 C.3   173  LEU173      0.0001
    171  CD2      -18.3200  -27.7660  -59.7490 C.3   173  LEU173      0.0001
    172  N        -13.0050  -24.1360  -59.1120 N.3   176  LEU176     -0.1231
    173  CA       -13.4340  -24.0450  -57.7130 C.3   176  LEU176      0.1693
    174  C        -12.7440  -25.1080  -56.8460 C.2   176  LEU176      0.2591
    175  O        -12.4730  -24.8730  -55.6750 O.2   176  LEU176     -0.2718
    176  CB       -14.9590  -24.2030  -57.5900 C.3   176  LEU176      0.0284
    177  CG       -15.8810  -23.1900  -58.2660 C.3   176  LEU176      0.0019
    178  CD1      -17.3270  -23.6300  -58.1240 C.3   176  LEU176      0.0001
    179  CD2      -15.7030  -21.7880  -57.6990 C.3   176  LEU176      0.0001
    180  N        -12.4910  -26.2820  -57.4150 N.am  177  ARG177     -0.1980
    181  CA       -11.6610  -27.2830  -56.7500 C.3   177  ARG177      0.1597
    182  C        -10.3060  -26.6750  -56.3720 C.2   177  ARG177      0.2287
    183  O         -9.8160  -26.8740  -55.2620 O.2   177  ARG177     -0.2864
    184  CB       -11.4740  -28.5130  -57.6480 C.3   177  ARG177      0.0334
    185  CG       -10.6550  -29.6430  -57.0260 C.3   177  ARG177      0.0492
    186  CD        -9.2310  -29.7310  -57.5940 C.3   177  ARG177      0.2205
    187  NE        -8.3240  -30.4780  -56.7120 N.pl3 177  ARG177     -0.0865
    188  CZ        -7.0450  -30.7510  -56.9740 C.cat 177  ARG177      0.5346
    189  NH1       -6.4750  -30.3550  -58.1080 N.pl3 177  ARG177      0.1354
    190  NH2       -6.3250  -31.4330  -56.0900 N.pl3 177  ARG177      0.1354
    191  N        -10.4970  -23.4210  -54.1240 N.3   180  GLY180     -0.1210
    192  CA       -10.9120  -23.9240  -52.8260 C.3   180  GLY180      0.1956
    193  C         -9.7330  -24.3060  -51.9680 C.2   180  GLY180      0.2611
    194  O         -9.5620  -23.7730  -50.8750 O.2   180  GLY180     -0.2717
    195  N         -8.9140  -25.2230  -52.4830 N.am  181  LYS181     -0.1979
    196  CA        -7.7230  -25.6960  -51.7970 C.3   181  LYS181      0.1596
    197  C         -6.7800  -24.5430  -51.4810 C.2   181  LYS181      0.2287
    198  O         -6.2170  -24.4820  -50.3890 O.2   181  LYS181     -0.2864
    199  CB        -6.9840  -26.7320  -52.6460 C.3   181  LYS181      0.0298
    200  CG        -7.6920  -28.0790  -52.7900 C.3   181  LYS181      0.0038
    201  CD        -6.8350  -29.0850  -53.5870 C.3   181  LYS181      0.0206
    202  CE        -5.7480  -29.7080  -52.7210 C.3   181  LYS181      0.1093
    203  NZ        -4.8410  -30.6290  -53.4570 N.3   181  LYS181     -0.1314
@<TRIPOS>BOND
     1   156   155    2
     2   155   154    1
     3    44    42    1
     4   164   165    1
     5   154   153    1
     6   154   157    1
     7    42    41    2
     8    42    43    1
     9    41    40    1
    10    52    53    1
    11    48    47    2
    12   170   169    1
    13   168   165    1
    14   168   169    1
    15    47    46    1
    16   165   166    1
    17   157   158    1
    18   159   161   ar
    19   159   158   ar
    20    54    53    1
    21    54    55    2
    22   169   171    1
    23   166   167    2
    24    56    53    1
    25    56    57    1
    26   161   163   ar
    27   158   160   ar
    28    57    58    1
    29    40    39    1
    30    37    36    2
    31    39    38    1
    32    58    59    1
    33    46    49    1
    34    46    45    1
    35   163   162   ar
    36   160   162   ar
    37    49    50    1
    38    36    45   am
    39    36    35    1
    40   172   173    1
    41    45    51    1
    42   144   143    2
    43    38    35    1
    44    50    51    1
    45   177   178    1
    46   177   179    1
    47   177   176    1
    48    35    34    1
    49   189   188    1
    50   143   142    1
    51   173   176    1
    52   173   174    1
    53    33    31    1
    54   184   185    1
    55   184   181    1
    56    34    29   am
    57   186   185    1
    58   186   187    1
    59   142   141    1
    60   142   145    1
    61   180   174   am
    62   180   181    1
    63    70    69   ar
    64    70    68   ar
    65    69    67   ar
    66   188   187    2
    67   188   190    1
    68   174   175    2
    69   149   147   ar
    70   149   151   ar
    71   181   182    1
    72   147   146   ar
    73    68    66   ar
    74    29    30    2
    75    29    28    1
    76    67    65   ar
    77   182   183    2
    78   152   151    1
    79   151   150   ar
    80    31    28    1
    81    31    32    1
    82   146   145    1
    83   146   148   ar
    84    28    27    1
    85    66    65   ar
    86   150   148   ar
    87    65    64    1
    88    17    16    1
    89    64    61    1
    90   133   132    2
    91    27    21   am
    92    22    21    2
    93   139   137   ar
    94   139   140   ar
    95    16    18    1
    96    16    15    2
    97   137   135   ar
    98   191   192    1
    99    21    20    1
   100   132   131    1
   101    88    86   ar
   102    88    90   ar
   103   201   200    1
   104   201   202    1
   105   131   134    1
   106   131   130    1
   107    14    15    1
   108    14    13    1
   109   203   202    1
   110    61    62    1
   111    61    60    1
   112    86    85   ar
   113    91    90    1
   114   140   138   ar
   115   135   134    1
   116   135   136   ar
   117    90    89   ar
   118    62    63    2
   119   192   193    1
   120   200   199    1
   121    23    20    1
   122    23    24    1
   123    20    19    1
   124   199   196    1
   125    85    84    1
   126    85    87   ar
   127   195   193   am
   128   195   196    1
   129    13    12    1
   130    89    87   ar
   131    84    81    1
   132   138   136   ar
   133   193   194    2
   134    24    26    1
   135    24    25    1
   136    11    10    2
   137   196   197    1
   138    19    10   am
   139   197   198    2
   140    10     9    1
   141   108   106    1
   142    12     9    1
   143    81    80    1
   144    81    82    1
   145    79    78    1
   146   106   105    1
   147    80    73   am
   148    77    78    1
   149    77    76    1
   150     9     8    1
   151    75    76    1
   152    75    72    1
   153    82    83    2
   154    73    74    2
   155    73    72    1
   156     8     3   am
   157    72    71    1
   158   105   107    1
   159   105   102    1
   160    96    97    1
   161    96    93    1
   162    97    98    1
   163     3     4    2
   164     3     2    1
   165   100    98   ar
   166   129   128   ar
   167   129   127   ar
   168   101   102    1
   169   101    94   am
   170   102   103    1
   171     5     2    1
   172     5     6    1
   173   128   126   ar
   174    98    99   ar
   175   116   115    1
   176   116   117    2
   177   119   117    1
   178     2     1    1
   179   115   114    1
   180   117   118    1
   181    94    93    1
   182    94    95    2
   183    93    92    1
   184   127   125   ar
   185     6     7    1
   186   126   125   ar
   187   103   104    2
   188   125   124    1
   189     1     7    1
   190   114   113    1
   191   113   110    1
   192   124   121    1
   193   112   111    2
   194   110   111    1
   195   110   109    1
   196   111   120   am
   197   120   121    1
   198   121   122    1
   199   123   122    2
