@<TRIPOS>MOLECULE
tmp/3ludC00.pdb
 103 97 0 0 0
SMALL
GASTEIGER

@<TRIPOS>ATOM
      1  N          9.9970   20.6440   37.4250 N.3    83  LEU83      -0.1245
      2  CA         9.2400   21.3170   38.4910 C.3    83  LEU83       0.1561
      3  C          8.9050   20.3950   39.6630 C.2    83  LEU83       0.2260
      4  O          8.5100   19.2460   39.4670 O.2    83  LEU83      -0.2867
      5  CB         7.9440   21.9250   37.9440 C.3    83  LEU83       0.0270
      6  CG         8.0720   22.7500   36.6590 C.3    83  LEU83       0.0019
      7  CD1        6.7090   23.0310   36.0520 C.3    83  LEU83       0.0001
      8  CD2        8.8360   24.0370   36.9080 C.3    83  LEU83       0.0001
      9  N          6.3010   19.7800   41.7110 N.3    85  GLY85      -0.1210
     10  CA         4.8890   19.9080   42.0070 C.3    85  GLY85       0.1956
     11  C          4.2960   21.2050   41.4810 C.2    85  GLY85       0.2612
     12  O          4.8710   21.8500   40.5960 O.2    85  GLY85      -0.2717
     13  N          3.1320   21.5750   42.0110 N.am   86  LYS86      -0.1965
     14  CA         2.4770   22.8140   41.6140 C.3    86  LYS86       0.1728
     15  C          3.2150   24.0080   42.1960 C.2    86  LYS86       0.2616
     16  O          3.3510   24.1370   43.4110 O.2    86  LYS86      -0.2715
     17  CB         1.0080   22.8200   42.0410 C.3    86  LYS86       0.0311
     18  CG         0.6760   21.8450   43.1610 C.3    86  LYS86       0.0038
     19  CD         1.2660   22.2860   44.4990 C.3    86  LYS86       0.0206
     20  CE         1.2030   21.1610   45.5270 C.3    86  LYS86       0.1093
     21  NZ         1.9100   19.9280   45.0450 N.3    86  LYS86      -0.1314
     22  N          3.7150   24.8770   41.3460 N.am   87  THR87      -0.1951
     23  CA         4.5120   26.0020   41.7690 C.3    87  THR87       0.1897
     24  C          4.2920   27.1860   40.8640 C.2    87  THR87       0.2313
     25  O          4.0300   27.0240   39.7080 O.2    87  THR87      -0.2863
     26  CB         6.0030   25.6310   41.7340 C.3    87  THR87       0.1794
     27  OG1        6.7930   26.7980   41.7740 O.3    87  THR87      -0.2208
     28  CG2        6.3280   24.8990   40.4860 C.3    87  THR87       0.0378
     29  N          5.9200   27.4090   37.1640 N.3    90  TYR90      -0.1227
     30  CA         5.3530   27.0760   35.8650 C.3    90  TYR90       0.1736
     31  C          4.8500   28.3280   35.1380 C.2    90  TYR90       0.2595
     32  O          5.1790   28.5540   33.9740 O.2    90  TYR90      -0.2718
     33  CB         4.2210   26.0650   36.0110 C.3    90  TYR90       0.0548
     34  CG         3.5670   25.7480   34.6930 C.ar   90  TYR90      -0.0200
     35  CD1        4.1050   24.7870   33.8440 C.ar   90  TYR90      -0.0009
     36  CD2        2.4200   26.4160   34.2900 C.ar   90  TYR90      -0.0009
     37  CE1        3.5250   24.5030   32.6440 C.ar   90  TYR90       0.0417
     38  CE2        1.8270   26.1410   33.0880 C.ar   90  TYR90       0.0417
     39  CZ         2.3820   25.1800   32.2710 C.ar   90  TYR90       0.1957
     40  OH         1.7950   24.9050   31.0750 O.3    90  TYR90      -0.2866
     41  N          4.0690   29.1560   35.8280 N.am   91  ALA91      -0.1980
     42  CA         3.5080   30.3440   35.1820 C.3    91  ALA91       0.1597
     43  C          4.6080   31.3250   34.7580 C.2    91  ALA91       0.2287
     44  O          4.5170   31.9540   33.7070 O.2    91  ALA91      -0.2864
     45  CB         2.4820   31.0240   36.0940 C.3    91  ALA91       0.0319
     46  N          6.4190   30.0820   31.5870 N.3    94  LYS94      -0.1245
     47  CA         5.6390   30.3510   30.4000 C.3    94  LYS94       0.1561
     48  C          5.6270   31.8400   30.0590 C.2    94  LYS94       0.2260
     49  O          5.7230   32.2080   28.8860 O.2    94  LYS94      -0.2867
     50  CB         4.2270   29.8120   30.5760 C.3    94  LYS94       0.0271
     51  CG         4.2220   28.3140   30.6550 C.3    94  LYS94       0.0035
     52  CD         5.0660   27.7870   29.5330 C.3    94  LYS94       0.0206
     53  CE         5.3050   26.2880   29.6600 C.3    94  LYS94       0.1093
     54  NZ         6.3020   25.8280   28.6600 N.3    94  LYS94      -0.1314
     55  N          9.7100   23.3190   27.8150 N.3   106  GLN106     -0.1231
     56  CA         8.8500   22.1780   28.0950 C.3   106  GLN106      0.1698
     57  C          9.0230   21.8180   29.5450 C.2   106  GLN106      0.2592
     58  O         10.1300   21.4980   29.9640 O.2   106  GLN106     -0.2718
     59  CB         9.2260   20.9770   27.2290 C.3   106  GLN106      0.0381
     60  CG         8.3720   19.7660   27.4970 C.3   106  GLN106      0.0905
     61  CD         6.8920   20.0580   27.3090 C.2   106  GLN106      0.2608
     62  OE1        6.4480   20.3570   26.1970 O.2   106  GLN106     -0.2717
     63  NE2        6.1190   19.9700   28.3960 N.am  106  GLN106     -0.0878
     64  N          7.9390   21.8610   30.3170 N.am  107  CYS107     -0.1956
     65  CA         8.0390   21.5330   31.7300 C.3   107  CYS107      0.1843
     66  C          7.8020   20.0460   31.9610 C.2   107  CYS107      0.2625
     67  O          7.1320   19.3900   31.1720 O.2   107  CYS107     -0.2714
     68  CB         7.0960   22.3960   32.5650 C.3   107  CYS107      0.0997
     69  SG         7.4840   24.1750   32.4900 S.3   107  CYS107     -0.0797
     70  N          8.3950   19.5030   33.0200 N.am  108  VAL108     -0.1963
     71  CA         8.1620   18.1110   33.3650 C.3   108  VAL108      0.1727
     72  C          8.1260   17.9890   34.8820 C.2   108  VAL108      0.2616
     73  O          8.8270   18.7230   35.5810 O.2   108  VAL108     -0.2715
     74  CB         9.2490   17.1820   32.7600 C.3   108  VAL108      0.0290
     75  CG1       10.6410   17.6550   33.1410 C.3   108  VAL108      0.0023
     76  CG2        9.0450   15.7420   33.2070 C.3   108  VAL108      0.0023
     77  N          7.3060   17.0840   35.4030 N.am  109  GLN109     -0.1977
     78  CA         7.2350   16.9410   36.8540 C.3   109  GLN109      0.1601
     79  C          8.4590   16.2250   37.4050 C.2   109  GLN109      0.2287
     80  O          8.9260   15.2310   36.8450 O.2   109  GLN109     -0.2864
     81  CB         5.9440   16.2600   37.3020 C.3   109  GLN109      0.0394
     82  CG         4.7630   17.2120   37.3970 C.3   109  GLN109      0.0908
     83  CD         4.9890   18.3030   38.4390 C.2   109  GLN109      0.2608
     84  OE1        5.3200   18.0180   39.5880 O.2   109  GLN109     -0.2717
     85  NE2        4.8070   19.5560   38.0380 N.am  109  GLN109     -0.0878
     86  N          4.5090   16.2100   23.6520 N.3   127  LYS127     -0.1245
     87  CA         4.4190   17.6360   23.9380 C.3   127  LYS127      0.1561
     88  C          5.4920   18.4220   23.1810 C.2   127  LYS127      0.2260
     89  O          5.2240   19.4960   22.6250 O.2   127  LYS127     -0.2867
     90  CB         4.5200   17.8970   25.4370 C.3   127  LYS127      0.0271
     91  CG         3.2930   17.4520   26.2200 C.3   127  LYS127      0.0035
     92  CD         3.4650   17.7380   27.6990 C.3   127  LYS127      0.0206
     93  CE         2.1850   18.2580   28.3110 C.3   127  LYS127      0.1093
     94  NZ         1.1700   17.1880   28.4510 N.3   127  LYS127     -0.1314
     95  N          5.4590   21.3050   19.9750 N.3   131  LYS131     -0.1245
     96  CA         6.0890   22.6090   20.1570 C.3   131  LYS131      0.1561
     97  C          7.1400   22.9030   19.0930 C.2   131  LYS131      0.2260
     98  O          7.2610   24.0350   18.6240 O.2   131  LYS131     -0.2867
     99  CB         6.7250   22.7200   21.5490 C.3   131  LYS131      0.0271
    100  CG         5.7260   22.8750   22.6840 C.3   131  LYS131      0.0035
    101  CD         6.4280   23.1030   24.0230 C.3   131  LYS131      0.0206
    102  CE         5.4260   23.4560   25.1240 C.3   131  LYS131      0.1093
    103  NZ         4.4890   22.3300   25.4200 N.3   131  LYS131     -0.1314
@<TRIPOS>BOND
     1    98    97    2
     2    97    96    1
     3    95    96    1
     4    96    99    1
     5    99   100    1
     6    89    88    2
     7   100   101    1
     8    88    87    1
     9    86    87    1
    10    87    90    1
    11   101   102    1
    12   102   103    1
    13    90    91    1
    14    62    61    2
    15    91    92    1
    16    59    60    1
    17    59    56    1
    18    61    60    1
    19    61    63   am
    20    92    93    1
    21    55    56    1
    22    56    57    1
    23    93    94    1
    24    54    53    1
    25    49    48    2
    26    52    53    1
    27    52    51    1
    28    57    58    2
    29    57    64   am
    30    48    47    1
    31    64    65    1
    32    47    50    1
    33    47    46    1
    34    50    51    1
    35    40    39    1
    36    67    66    2
    37    65    66    1
    38    65    68    1
    39    66    70   am
    40    39    37   ar
    41    39    38   ar
    42    69    68    1
    43    37    35   ar
    44    74    75    1
    45    74    76    1
    46    74    71    1
    47    70    71    1
    48    38    36   ar
    49    71    72    1
    50    44    43    2
    51    35    34   ar
    52    32    31    2
    53    36    34   ar
    54    34    33    1
    55    43    42    1
    56    72    77   am
    57    72    73    2
    58    31    41   am
    59    31    30    1
    60    42    41    1
    61    42    45    1
    62    77    78    1
    63    30    33    1
    64    30    29    1
    65     7     6    1
    66     6     8    1
    67     6     5    1
    68    80    79    2
    69    78    81    1
    70    78    79    1
    71    81    82    1
    72    82    83    1
    73     1     2    1
    74     5     2    1
    75    85    83   am
    76    83    84    2
    77     2     3    1
    78     4     3    2
    79    25    24    2
    80    28    26    1
    81    12    11    2
    82    24    23    1
    83    22    23    1
    84    22    15   am
    85    11    10    1
    86    11    13   am
    87    14    13    1
    88    14    17    1
    89    14    15    1
    90     9    10    1
    91    26    23    1
    92    26    27    1
    93    17    18    1
    94    15    16    2
    95    18    19    1
    96    19    20    1
    97    21    20    1
