@<TRIPOS>MOLECULE
tmp/3lujA00.pdb
 98 92 0 0 0
SMALL
GASTEIGER

@<TRIPOS>ATOM
      1  N         18.8180    4.5230  -10.7450 N.3    83  LEU83      -0.1245
      2  CA        20.0000    5.2680  -10.3070 C.3    83  LEU83       0.1561
      3  C         19.7010    6.2720   -9.1900 C.2    83  LEU83       0.2260
      4  O         18.7060    7.0010   -9.2520 O.2    83  LEU83      -0.2867
      5  CB        20.6370    5.9760  -11.5180 C.3    83  LEU83       0.0270
      6  CG        21.0690    5.0310  -12.6390 C.3    83  LEU83       0.0019
      7  CD1       21.6150    5.7760  -13.8550 C.3    83  LEU83       0.0001
      8  CD2       22.0970    4.0860  -12.0910 C.3    83  LEU83       0.0001
      9  N         20.4960    9.5010   -8.2850 N.3    85  GLY85      -0.1210
     10  CA        21.1550   10.7170   -8.7420 C.3    85  GLY85       0.1956
     11  C         22.3310   10.4860   -9.6850 C.2    85  GLY85       0.2612
     12  O         22.4150    9.4410  -10.3390 O.2    85  GLY85      -0.2717
     13  N         23.2340   11.4700   -9.7580 N.am   86  LYS86      -0.1965
     14  CA        24.4070   11.4120  -10.6350 C.3    86  LYS86       0.1728
     15  C         25.3920   10.3890  -10.1010 C.2    86  LYS86       0.2616
     16  O         25.7910   10.4560   -8.9410 O.2    86  LYS86      -0.2715
     17  CB        25.1060   12.7800  -10.7270 C.3    86  LYS86       0.0311
     18  CG        24.2000   13.9390  -11.1210 C.3    86  LYS86       0.0038
     19  CD        23.4260   13.6590  -12.4120 C.3    86  LYS86       0.0206
     20  CE        22.2910   14.6650  -12.5960 C.3    86  LYS86       0.1093
     21  NZ        21.3020   14.6250  -11.4640 N.3    86  LYS86      -0.1314
     22  N         25.7850    9.4480  -10.9490 N.am   87  THR87      -0.1951
     23  CA        26.6020    8.3320  -10.5080 C.3    87  THR87       0.1897
     24  C         27.3700    7.7140  -11.6730 C.2    87  THR87       0.2313
     25  O         26.8500    7.5850  -12.7840 O.2    87  THR87      -0.2863
     26  CB        25.7330    7.2500   -9.8200 C.3    87  THR87       0.1794
     27  OG1       26.5320    6.0980   -9.5380 O.3    87  THR87      -0.2208
     28  CG2       24.5630    6.8420  -10.7300 C.3    87  THR87       0.0378
     29  N         26.0260    4.9990  -14.1830 N.3    90  TYR90      -0.1241
     30  CA        25.3840    5.2090  -15.4780 C.3    90  TYR90       0.1605
     31  C         26.3280    4.9460  -16.6460 C.2    90  TYR90       0.2264
     32  O         25.9870    4.1990  -17.5650 O.2    90  TYR90      -0.2867
     33  CB        24.8070    6.6140  -15.5800 C.3    90  TYR90       0.0534
     34  CG        24.2140    6.8880  -16.9380 C.ar   90  TYR90      -0.0201
     35  CD1       24.9840    7.4380  -17.9520 C.ar   90  TYR90      -0.0009
     36  CD2       22.8860    6.5920  -17.2080 C.ar   90  TYR90      -0.0009
     37  CE1       24.4470    7.6940  -19.1930 C.ar   90  TYR90       0.0417
     38  CE2       22.3470    6.8370  -18.4460 C.ar   90  TYR90       0.0417
     39  CZ        23.1380    7.3890  -19.4360 C.ar   90  TYR90       0.1957
     40  OH        22.6080    7.6500  -20.6760 O.3    90  TYR90      -0.2866
     41  N         26.0590    1.7660  -19.4520 N.3    94  LYS94      -0.1245
     42  CA        26.0980    1.9970  -20.8910 C.3    94  LYS94       0.1561
     43  C         27.3240    1.3550  -21.5530 C.2    94  LYS94       0.2260
     44  O         27.2180    0.8060  -22.6510 O.2    94  LYS94      -0.2867
     45  CB        25.9520    3.4980  -21.2090 C.3    94  LYS94       0.0271
     46  CG        24.6030    4.0950  -20.7990 C.3    94  LYS94       0.0035
     47  CD        23.4230    3.2100  -21.2550 C.3    94  LYS94       0.0206
     48  CE        22.0790    3.8770  -20.9290 C.3    94  LYS94       0.1093
     49  NZ        20.8830    3.1970  -21.5340 N.3    94  LYS94      -0.1314
     50  N         17.5260    0.7400  -19.8620 N.3   106  GLN106     -0.1231
     51  CA        16.8500    2.0080  -19.6760 C.3   106  GLN106      0.1698
     52  C         17.0230    2.4690  -18.2470 C.2   106  GLN106      0.2592
     53  O         16.5240    1.8300  -17.3170 O.2   106  GLN106     -0.2718
     54  CB        15.3560    1.8930  -20.0010 C.3   106  GLN106      0.0381
     55  CG        14.6140    3.1940  -19.7890 C.3   106  GLN106      0.0905
     56  CD        15.1300    4.2720  -20.7140 C.2   106  GLN106      0.2608
     57  OE1       15.0070    4.1590  -21.9310 O.2   106  GLN106     -0.2717
     58  NE2       15.7360    5.3040  -20.1480 N.am  106  GLN106     -0.0878
     59  N         17.7210    3.5850  -18.0580 N.am  107  CYS107     -0.1956
     60  CA        17.9260    4.1060  -16.7220 C.3   107  CYS107      0.1843
     61  C         16.7730    5.0090  -16.2880 C.2   107  CYS107      0.2625
     62  O         16.0490    5.5580  -17.1140 O.2   107  CYS107     -0.2714
     63  CB        19.2720    4.8370  -16.6170 C.3   107  CYS107      0.0997
     64  SG        20.6840    3.7820  -17.0060 S.3   107  CYS107     -0.0797
     65  N         16.5960    5.1260  -14.9790 N.am  108  VAL108     -0.1963
     66  CA        15.5710    5.9810  -14.4180 C.3   108  VAL108      0.1727
     67  C         16.0780    6.4650  -13.0750 C.2   108  VAL108      0.2616
     68  O         16.7930    5.7420  -12.3680 O.2   108  VAL108     -0.2715
     69  CB        14.2070    5.2500  -14.2870 C.3   108  VAL108      0.0290
     70  CG1       14.3320    4.0590  -13.3860 C.3   108  VAL108      0.0023
     71  CG2       13.1260    6.2010  -13.7490 C.3   108  VAL108      0.0023
     72  N         15.7270    7.7000  -12.7360 N.am  109  GLN109     -0.1977
     73  CA        16.1550    8.2990  -11.4880 C.3   109  GLN109      0.1601
     74  C         15.3210    7.7820  -10.3390 C.2   109  GLN109      0.2287
     75  O         14.1100    7.6480  -10.4470 O.2   109  GLN109     -0.2864
     76  CB        16.0450    9.8180  -11.5530 C.3   109  GLN109      0.0394
     77  CG        16.9030   10.4590  -12.6220 C.3   109  GLN109      0.0908
     78  CD        16.7100   11.9580  -12.6750 C.2   109  GLN109      0.2608
     79  OE1       15.8320   12.4570  -13.3840 O.2   109  GLN109     -0.2717
     80  NE2       17.5240   12.6870  -11.9160 N.am  109  GLN109     -0.0878
     81  N         11.1390    6.8550  -23.9950 N.3   127  LYS127     -0.1245
     82  CA        12.5480    6.4650  -24.1140 C.3   127  LYS127      0.1561
     83  C         12.6880    4.9820  -24.4780 C.2   127  LYS127      0.2260
     84  O         13.5000    4.6100  -25.3270 O.2   127  LYS127     -0.2867
     85  CB        13.3120    6.7510  -22.8170 C.3   127  LYS127      0.0271
     86  CG        13.4660    8.2140  -22.4570 C.3   127  LYS127      0.0035
     87  CD        14.3020    8.3340  -21.1950 C.3   127  LYS127      0.0206
     88  CE        14.3730    9.7600  -20.6770 C.3   127  LYS127      0.1093
     89  NZ        15.1580   10.6310  -21.5910 N.3   127  LYS127     -0.1314
     90  N         14.2020    3.0120  -27.9800 N.3   131  LYS131     -0.1245
     91  CA        15.2360    1.9810  -27.8880 C.3   131  LYS131      0.1561
     92  C         14.8230    0.6690  -28.5490 C.2   131  LYS131      0.2260
     93  O         15.5640    0.1140  -29.3650 O.2   131  LYS131     -0.2867
     94  CB        15.6380    1.7420  -26.4410 C.3   131  LYS131      0.0271
     95  CG        16.2890    2.9410  -25.7710 C.3   131  LYS131      0.0035
     96  CD        16.9020    2.5420  -24.4390 C.3   131  LYS131      0.0206
     97  CE        17.7190    3.6790  -23.8010 C.3   131  LYS131      0.1093
     98  NZ        16.8780    4.8490  -23.4080 N.3   131  LYS131     -0.1314
@<TRIPOS>BOND
     1    93    92    2
     2    92    91    1
     3    90    91    1
     4    91    94    1
     5    94    95    1
     6    95    96    1
     7    84    83    2
     8    83    82    1
     9    96    97    1
    10    82    81    1
    11    82    85    1
    12    97    98    1
    13    85    86    1
    14    44    43    2
    15    86    87    1
    16    57    56    2
    17    89    88    1
    18    43    42    1
    19    49    48    1
    20    47    48    1
    21    47    46    1
    22    45    42    1
    23    45    46    1
    24    87    88    1
    25    42    41    1
    26    56    58   am
    27    56    55    1
    28    40    39    1
    29    54    55    1
    30    54    51    1
    31    50    51    1
    32    51    52    1
    33    39    37   ar
    34    39    38   ar
    35    37    35   ar
    36    38    36   ar
    37    52    59   am
    38    52    53    2
    39    59    60    1
    40    35    34   ar
    41    32    31    2
    42    36    34   ar
    43    62    61    2
    44    64    63    1
    45    34    33    1
    46    60    63    1
    47    60    61    1
    48    31    30    1
    49    61    65   am
    50    33    30    1
    51    30    29    1
    52    65    66    1
    53    66    69    1
    54    66    67    1
    55    69    71    1
    56    69    70    1
    57     7     6    1
    58    79    78    2
    59    67    72   am
    60    67    68    2
    61    25    24    2
    62    72    73    1
    63    78    77    1
    64    78    80   am
    65     6     8    1
    66     6     5    1
    67    77    76    1
    68    20    19    1
    69    20    21    1
    70    19    18    1
    71    24    23    1
    72    76    73    1
    73     5     2    1
    74    73    74    1
    75    18    17    1
    76    22    23    1
    77    22    15   am
    78     1     2    1
    79    28    26    1
    80    17    14    1
    81    14    15    1
    82    14    13    1
    83    23    26    1
    84    75    74    2
    85    12    11    2
    86     2     3    1
    87    15    16    2
    88    26    27    1
    89    13    11   am
    90    11    10    1
    91     4     3    2
    92    10     9    1
