@<TRIPOS>MOLECULE
tmp/3lumC00.pdb
 143 141 0 0 0
SMALL
GASTEIGER

@<TRIPOS>ATOM
      1  N         12.6600  113.6540   89.1450 N.3   127  ILE127     -0.1231
      2  CA        13.6470  113.7190   88.0530 C.3   127  ILE127      0.1692
      3  C         13.2380  112.8360   86.8700 C.2   127  ILE127      0.2592
      4  O         12.3570  111.9850   87.0100 O.2   127  ILE127     -0.2718
      5  CB        15.0870  113.3360   88.5170 C.3   127  ILE127      0.0266
      6  CG1       15.1300  111.8950   89.0220 C.3   127  ILE127      0.0019
      7  CG2       15.6000  114.3090   89.5840 C.3   127  ILE127      0.0020
      8  CD1       16.5350  111.3730   89.2980 C.3   127  ILE127      0.0001
      9  N         13.8870  113.0470   85.7190 N.am  128  LEU128     -0.1966
     10  CA        13.5210  112.3520   84.4740 C.3   128  LEU128      0.1728
     11  C         14.3990  111.1250   84.2110 C.2   128  LEU128      0.2617
     12  O         14.0290  110.2260   83.4610 O.2   128  LEU128     -0.2715
     13  CB        13.6260  113.3160   83.2880 C.3   128  LEU128      0.0311
     14  CG        12.7050  114.5410   83.2830 C.3   128  LEU128      0.0022
     15  CD1       13.1060  115.4920   82.1810 C.3   128  LEU128      0.0001
     16  CD2       11.2470  114.1090   83.1340 C.3   128  LEU128      0.0001
     17  N         15.5670  111.0910   84.8400 N.am  129  GLY129     -0.1940
     18  CA        16.5380  110.0550   84.5290 C.3   129  GLY129      0.2014
     19  C         17.8110  110.2500   85.3130 C.2   129  GLY129      0.2638
     20  O         18.0430  111.3240   85.8910 O.2   129  GLY129     -0.2714
     21  N         18.6370  109.2050   85.3350 N.am  130  TYR130     -0.1973
     22  CA        19.9840  109.3170   85.9120 C.3   130  TYR130      0.1639
     23  C         20.8680  108.2250   85.3330 C.2   130  TYR130      0.2290
     24  O         20.3910  107.1810   84.8670 O.2   130  TYR130     -0.2864
     25  CB        19.9600  109.2860   87.4660 C.3   130  TYR130      0.0560
     26  CG        19.7440  107.9240   88.0850 C.ar  130  TYR130     -0.0198
     27  CD1       20.8260  107.1500   88.5020 C.ar  130  TYR130     -0.0009
     28  CD2       18.4570  107.4370   88.2920 C.ar  130  TYR130     -0.0009
     29  CE1       20.6160  105.9020   89.0990 C.ar  130  TYR130      0.0417
     30  CE2       18.2390  106.2030   88.8770 C.ar  130  TYR130      0.0417
     31  CZ        19.3060  105.4460   89.2800 C.ar  130  TYR130      0.1957
     32  OH        19.0900  104.2140   89.8540 O.3   130  TYR130     -0.2866
     33  N          9.1820  116.6120   77.1070 N.3   160  PHE160     -0.1241
     34  CA        10.2170  115.5820   77.1510 C.3   160  PHE160      0.1605
     35  C          9.8180  114.3790   76.2890 C.2   160  PHE160      0.2264
     36  O          9.9550  113.2190   76.7020 O.2   160  PHE160     -0.2867
     37  CB        10.5050  115.2040   78.5950 C.3   160  PHE160      0.0534
     38  CG        10.8430  116.3930   79.4400 C.ar  160  PHE160     -0.0203
     39  CD1       11.9950  117.1410   79.1620 C.ar  160  PHE160     -0.0042
     40  CD2        9.9880  116.8020   80.4720 C.ar  160  PHE160     -0.0042
     41  CE1       12.3100  118.2720   79.9270 C.ar  160  PHE160     -0.0003
     42  CE2       10.3010  117.9330   81.2460 C.ar  160  PHE160     -0.0003
     43  CZ        11.4690  118.6670   80.9580 C.ar  160  PHE160     -0.0000
     44  N         15.1610  112.9020   74.2070 N.3   164  ARG164     -0.1231
     45  CA        16.4490  113.5190   74.5750 C.3   164  ARG164      0.1694
     46  C         16.9450  113.2090   75.9890 C.2   164  ARG164      0.2592
     47  O         18.1320  113.3710   76.2840 O.2   164  ARG164     -0.2718
     48  CB        16.4510  115.0300   74.2770 C.3   164  ARG164      0.0321
     49  CG        17.1190  115.3940   72.9200 C.3   164  ARG164      0.0489
     50  CD        16.3150  114.8100   71.7370 C.3   164  ARG164      0.2205
     51  NE        17.0240  114.9110   70.4590 N.pl3 164  ARG164     -0.0865
     52  CZ        16.8620  115.8920   69.5760 C.cat 164  ARG164      0.5346
     53  NH1       17.5380  115.8660   68.4290 N.pl3 164  ARG164      0.1354
     54  NH2       16.0300  116.9010   69.8300 N.pl3 164  ARG164      0.1354
     55  N         16.0550  112.7970   76.8900 N.am  165  THR165     -0.1953
     56  CA        16.5230  112.3800   78.2340 C.3   165  THR165      0.1897
     57  C         17.5300  111.2280   78.1160 C.2   165  THR165      0.2313
     58  O         18.5920  111.2570   78.7380 O.2   165  THR165     -0.2863
     59  CB        15.3500  112.0140   79.1870 C.3   165  THR165      0.1794
     60  OG1       14.4980  113.1540   79.3400 O.3   165  THR165     -0.2208
     61  CG2       15.8640  111.6220   80.5800 C.3   165  THR165      0.0378
     62  N         20.8420  112.5030   76.6920 N.3   168  HIS168     -0.1226
     63  CA        21.5670  113.1790   77.7670 C.3   168  HIS168      0.1752
     64  C         22.2000  112.1590   78.7120 C.2   168  HIS168      0.2595
     65  O         23.4150  112.2120   78.9600 O.2   168  HIS168     -0.2718
     66  CB        20.5870  114.0960   78.5110 C.3   168  HIS168      0.0759
     67  CG        21.1480  114.7560   79.7390 C.ar  168  HIS168      0.0818
     68  ND1       21.5440  116.0790   79.7480 N.ar  168  HIS168     -0.2268
     69  CD2       21.3220  114.3050   81.0060 C.ar  168  HIS168      0.1154
     70  CE1       21.9470  116.4130   80.9620 C.ar  168  HIS168      0.1986
     71  NE2       21.8470  115.3480   81.7410 N.ar  168  HIS168     -0.2212
     72  N         21.4050  111.1970   79.1940 N.am  169  GLU169     -0.1979
     73  CA        21.9220  110.2070   80.1460 C.3   169  GLU169      0.1602
     74  C         22.9860  109.3010   79.5300 C.2   169  GLU169      0.2287
     75  O         23.9800  108.9780   80.1920 O.2   169  GLU169     -0.2864
     76  CB        20.7810  109.3740   80.7590 C.3   169  GLU169      0.0415
     77  CG        19.7230  110.1930   81.5100 C.3   169  GLU169      0.1163
     78  CD        20.2630  110.9820   82.6860 C.2   169  GLU169      0.3649
     79  OE1       21.3480  110.6610   83.1930 O.co2 169  GLU169     -0.2457
     80  OE2       19.5630  111.9440   83.1040 O.co2 169  GLU169     -0.2457
     81  N         26.3040  110.9030   79.6880 N.3   172  HIS172     -0.1241
     82  CA        26.9770  110.6180   80.9680 C.3   172  HIS172      0.1621
     83  C         27.5950  109.2140   80.9630 C.2   172  HIS172      0.2264
     84  O         28.7030  108.9940   81.4690 O.2   172  HIS172     -0.2867
     85  CB        26.0000  110.6820   82.1320 C.3   172  HIS172      0.0745
     86  CG        25.4600  112.0480   82.4390 C.ar  172  HIS172      0.0817
     87  ND1       26.2400  113.1900   82.4820 N.ar  172  HIS172     -0.2268
     88  CD2       24.2140  112.4290   82.8020 C.ar  172  HIS172      0.1154
     89  CE1       25.4780  114.2210   82.8150 C.ar  172  HIS172      0.1986
     90  NE2       24.2470  113.7850   83.0250 N.ar  172  HIS172     -0.2212
     91  N         27.8620  117.5220   82.7510 N.3   178  HIS178     -0.1241
     92  CA        27.0370  118.6960   82.5460 C.3   178  HIS178      0.1621
     93  C         27.8700  119.8840   82.1110 C.2   178  HIS178      0.2264
     94  O         28.9090  120.1790   82.6940 O.2   178  HIS178     -0.2867
     95  CB        26.2940  119.0440   83.8190 C.3   178  HIS178      0.0745
     96  CG        25.2160  118.0690   84.1550 C.ar  178  HIS178      0.0817
     97  ND1       24.8690  117.7710   85.4540 N.ar  178  HIS178     -0.2268
     98  CD2       24.3860  117.3470   83.3640 C.ar  178  HIS178      0.1154
     99  CE1       23.8780  116.8930   85.4540 C.ar  178  HIS178      0.1986
    100  NE2       23.5720  116.6120   84.1980 N.ar  178  HIS178     -0.2212
    101  N         20.3080  121.3360   80.2910 N.3   232  TYR232     -0.1227
    102  CA        19.0570  120.8580   80.8970 C.3   232  TYR232      0.1736
    103  C         17.8130  121.3930   80.1740 C.2   232  TYR232      0.2595
    104  O         16.6880  121.3230   80.7140 O.2   232  TYR232     -0.2718
    105  CB        18.9960  121.2930   82.3560 C.3   232  TYR232      0.0548
    106  CG        19.5090  120.3150   83.3830 C.ar  232  TYR232     -0.0200
    107  CD1       19.9620  119.0350   83.0310 C.ar  232  TYR232     -0.0009
    108  CD2       19.5280  120.6620   84.7330 C.ar  232  TYR232     -0.0009
    109  CE1       20.4000  118.1430   84.0190 C.ar  232  TYR232      0.0417
    110  CE2       19.9900  119.7840   85.7050 C.ar  232  TYR232      0.0417
    111  CZ        20.4150  118.5300   85.3420 C.ar  232  TYR232      0.1957
    112  OH        20.8540  117.6490   86.3220 O.3   232  TYR232     -0.2866
    113  N         18.0000  121.9240   78.9610 N.am  233  VAL233     -0.1966
    114  CA        16.8970  122.4990   78.1990 C.3   233  VAL233      0.1727
    115  C         15.8910  121.4250   77.7450 C.2   233  VAL233      0.2616
    116  O         16.1990  120.2170   77.7740 O.2   233  VAL233     -0.2715
    117  CB        17.3890  123.2880   76.9560 C.3   233  VAL233      0.0290
    118  CG1       18.2300  124.4900   77.4050 C.3   233  VAL233      0.0023
    119  CG2       18.1850  122.3930   75.9960 C.3   233  VAL233      0.0023
    120  N         14.6960  121.8730   77.3550 N.am  234  ASP234     -0.1957
    121  CA        13.6380  120.9590   76.8550 C.3   234  ASP234      0.1840
    122  C         14.1440  120.1280   75.6600 C.2   234  ASP234      0.2622
    123  O         15.0450  120.5550   74.9430 O.2   234  ASP234     -0.2715
    124  CB        12.3850  121.7490   76.4410 C.3   234  ASP234      0.1450
    125  CG        11.6720  122.4110   77.6150 C.2   234  ASP234      0.3671
    126  OD1       11.9760  122.1250   78.7900 O.co2 234  ASP234     -0.2456
    127  OD2       10.7530  123.2310   77.3490 O.co2 234  ASP234     -0.2456
    128  N         13.5420  118.9610   75.4160 N.am  235  ASP235     -0.1971
    129  CA        13.9760  118.0680   74.3220 C.3   235  ASP235      0.1709
    130  C         14.1300  118.7530   72.9700 C.2   235  ASP235      0.2293
    131  O         15.1080  118.5140   72.2780 O.2   235  ASP235     -0.2864
    132  CB        13.0040  116.8930   74.1460 C.3   235  ASP235      0.1436
    133  CG        13.1500  115.8380   75.2250 C.2   235  ASP235      0.3671
    134  OD1       13.6670  116.1270   76.3230 O.co2 235  ASP235     -0.2456
    135  OD2       12.7290  114.6890   74.9540 O.co2 235  ASP235     -0.2456
    136  N         17.5020  120.9480   72.6640 N.3   238  MET238     -0.1245
    137  CA        18.8750  120.3950   72.6570 C.3   238  MET238      0.1570
    138  C         19.0290  119.4250   71.5070 C.2   238  MET238      0.2261
    139  O         18.1960  118.5060   71.3070 O.2   238  MET238     -0.2867
    140  CB        19.2890  119.7160   73.9790 C.3   238  MET238      0.0387
    141  CG        18.2060  118.7590   74.5120 C.3   238  MET238      0.0595
    142  SD        18.7520  117.6370   75.8010 S.3   238  MET238     -0.1393
    143  CE        19.2870  118.8400   77.0270 C.3   238  MET238      0.0692
@<TRIPOS>BOND
     1    53    52    1
     2    52    54    1
     3    52    51    2
     4    51    50    1
     5   139   138    2
     6   138   137    1
     7    50    49    1
     8   131   130    2
     9   137   136    1
    10   137   140    1
    11    49    48    1
    12   130   129    1
    13   140   141    1
    14   132   129    1
    15   132   133    1
    16    44    45    1
    17    48    45    1
    18   129   128    1
    19   141   142    1
    20    45    46    1
    21   123   122    2
    22   135   133   ar
    23   133   134   ar
    24   128   122   am
    25   122   121    1
    26   142   143    1
    27    46    47    2
    28    46    55   am
    29   119   117    1
    30    35    36    2
    31    35    34    1
    32   124   121    1
    33   124   125    1
    34    62    63    1
    35   121   120    1
    36    55    56    1
    37   117   118    1
    38   117   114    1
    39    33    34    1
    40    34    37    1
    41   127   125   ar
    42   120   115   am
    43   125   126   ar
    44   115   116    2
    45   115   114    1
    46    63    66    1
    47    63    64    1
    48    57    56    1
    49    57    58    2
    50   114   113    1
    51    56    59    1
    52    66    67    1
    53    37    38    1
    54    64    65    2
    55    64    72   am
    56   113   103   am
    57    39    38   ar
    58    39    41   ar
    59    59    60    1
    60    59    61    1
    61    72    73    1
    62    38    40   ar
    63    74    73    1
    64    74    75    2
    65    81    82    1
    66    67    68   ar
    67    67    69   ar
    68    68    70   ar
    69    41    43   ar
    70    73    76    1
    71   103   104    2
    72   103   102    1
    73   101   102    1
    74    40    42   ar
    75    76    77    1
    76   102   105    1
    77    43    42   ar
    78    70    71   ar
    79    83    82    1
    80    83    84    2
    81    82    85    1
    82    69    71   ar
    83    77    78    1
    84    93    92    1
    85    93    94    2
    86    85    86    1
    87    15    14    1
    88   105   106    1
    89    86    87   ar
    90    86    88   ar
    91    87    89   ar
    92    92    91    1
    93    92    95    1
    94    78    80   ar
    95    78    79   ar
    96    88    90   ar
    97    89    90   ar
    98   107   106   ar
    99   107   109   ar
   100    16    14    1
   101    14    13    1
   102    13    10    1
   103    98    96   ar
   104    98   100   ar
   105   106   108   ar
   106    12    11    2
   107    95    96    1
   108   109   111   ar
   109    96    97   ar
   110   100    99   ar
   111    11    10    1
   112    11    17   am
   113    10     9    1
   114    18    17    1
   115    18    19    1
   116   108   110   ar
   117    24    23    2
   118    19    21   am
   119    19    20    2
   120    23    22    1
   121    21    22    1
   122   111   110   ar
   123   111   112    1
   124    99    97   ar
   125     9     3   am
   126    22    25    1
   127     3     4    2
   128     3     2    1
   129    25    26    1
   130     2     5    1
   131     2     1    1
   132    26    28   ar
   133    26    27   ar
   134    28    30   ar
   135    27    29   ar
   136     5     6    1
   137     5     7    1
   138    30    31   ar
   139     6     8    1
   140    29    31   ar
   141    31    32    1
