@<TRIPOS>MOLECULE
tmp/3luoA00.pdb
 162 159 0 0 0
SMALL
GASTEIGER

@<TRIPOS>ATOM
      1  N         -0.1290  -11.7470  -17.2570 N.3    11  ILE11      -0.1245
      2  CA        -0.0300  -10.5750  -18.1170 C.3    11  ILE11       0.1561
      3  C         -0.7910  -10.7720  -19.4260 C.2    11  ILE11       0.2260
      4  O         -0.9470  -11.8900  -19.9270 O.2    11  ILE11      -0.2867
      5  CB         1.4480  -10.2170  -18.4550 C.3    11  ILE11       0.0252
      6  CG1        2.0960  -11.3240  -19.2930 C.3    11  ILE11       0.0019
      7  CG2        2.2440   -9.9490  -17.1900 C.3    11  ILE11       0.0019
      8  CD1        3.5780  -11.1260  -19.5440 C.3    11  ILE11       0.0001
      9  N         -0.3090   -9.2990  -23.1820 N.3    13  TYR13      -0.1241
     10  CA         0.7700   -8.6180  -23.8920 C.3    13  TYR13       0.1605
     11  C          0.5670   -8.6410  -25.3940 C.2    13  TYR13       0.2264
     12  O         -0.1080   -9.5220  -25.9270 O.2    13  TYR13      -0.2867
     13  CB         2.1090   -9.3080  -23.5970 C.3    13  TYR13       0.0534
     14  CG         2.1720  -10.6910  -24.2020 C.ar   13  TYR13      -0.0201
     15  CD1        1.6430  -11.7840  -23.5270 C.ar   13  TYR13      -0.0009
     16  CD2        2.7140  -10.8980  -25.4670 C.ar   13  TYR13      -0.0009
     17  CE1        1.6860  -13.0530  -24.0770 C.ar   13  TYR13       0.0417
     18  CE2        2.7540  -12.1640  -26.0300 C.ar   13  TYR13       0.0417
     19  CZ         2.2400  -13.2420  -25.3280 C.ar   13  TYR13       0.1957
     20  OH         2.2670  -14.5140  -25.8660 O.3    13  TYR13      -0.2866
     21  N          3.4030   -8.5010  -28.6880 N.3    15  LEU15      -0.1245
     22  CA         4.8170   -8.4990  -29.0530 C.3    15  LEU15       0.1561
     23  C          4.9790   -8.0020  -30.4840 C.2    15  LEU15       0.2260
     24  O          4.3410   -8.5210  -31.4080 O.2    15  LEU15      -0.2867
     25  CB         5.4200   -9.9010  -28.9000 C.3    15  LEU15       0.0270
     26  CG         6.7640  -10.2010  -29.5790 C.3    15  LEU15       0.0019
     27  CD1        7.8560   -9.2170  -29.1730 C.3    15  LEU15       0.0001
     28  CD2        7.2090  -11.6310  -29.2730 C.3    15  LEU15       0.0001
     29  N          3.0100  -11.7730  -32.1680 N.3    23  ASP23      -0.1225
     30  CA         2.3000  -12.5980  -31.2030 C.3    23  ASP23       0.1805
     31  C          1.6060  -11.7530  -30.1520 C.2    23  ASP23       0.2598
     32  O          1.9630  -10.6030  -29.9230 O.2    23  ASP23      -0.2718
     33  CB         3.2510  -13.5880  -30.5260 C.3    23  ASP23       0.1424
     34  CG         2.5130  -14.6280  -29.7050 C.2    23  ASP23       0.3668
     35  OD1        3.0110  -14.9960  -28.6170 O.co2  23  ASP23      -0.2456
     36  OD2        1.4250  -15.0640  -30.1440 O.co2  23  ASP23      -0.2456
     37  N          0.6040  -12.3430  -29.5180 N.am   24  GLN24      -0.1965
     38  CA        -0.1450  -11.6690  -28.4810 C.3    24  GLN24       0.1733
     39  C         -0.9150  -12.7060  -27.6970 C.2    24  GLN24       0.2617
     40  O         -1.0010  -13.8650  -28.1050 O.2    24  GLN24      -0.2715
     41  CB        -1.1090  -10.6570  -29.0950 C.3    24  GLN24       0.0408
     42  CG        -2.2200  -11.2840  -29.9070 C.3    24  GLN24       0.0908
     43  CD        -2.6980  -10.3650  -30.9970 C.2    24  GLN24       0.2608
     44  OE1       -3.3290  -10.8010  -31.9570 O.2    24  GLN24      -0.2717
     45  NE2       -2.3840   -9.0780  -30.8650 N.am   24  GLN24      -0.0878
     46  N         -1.4700  -12.2900  -26.5670 N.am   25  GLY25      -0.1940
     47  CA        -2.2340  -13.1980  -25.7440 C.3    25  GLY25       0.2014
     48  C         -2.1690  -12.9010  -24.2660 C.2    25  GLY25       0.2639
     49  O         -1.8900  -11.7730  -23.8430 O.2    25  GLY25      -0.2714
     50  N         -2.4530  -13.9350  -23.4850 N.am   26  GLU26      -0.1963
     51  CA        -2.4180  -13.8590  -22.0390 C.3    26  GLU26       0.1733
     52  C         -1.6110  -15.0290  -21.5420 C.2    26  GLU26       0.2616
     53  O         -1.8470  -16.1600  -21.9540 O.2    26  GLU26      -0.2715
     54  CB        -3.8260  -13.9650  -21.4510 C.3    26  GLU26       0.0429
     55  CG        -4.5130  -12.6490  -21.1600 C.3    26  GLU26       0.1163
     56  CD        -5.5370  -12.7790  -20.0430 C.2    26  GLU26       0.3649
     57  OE1       -5.3920  -13.7010  -19.2090 O.co2  26  GLU26      -0.2457
     58  OE2       -6.4790  -11.9570  -19.9940 O.co2  26  GLU26      -0.2457
     59  N         -0.6620  -14.7700  -20.6560 N.am   27  LEU27      -0.1963
     60  CA         0.0290  -15.8680  -19.9980 C.3    27  LEU27       0.1728
     61  C          0.2180  -15.6400  -18.5020 C.2    27  LEU27       0.2617
     62  O          0.0870  -14.5220  -17.9910 O.2    27  LEU27      -0.2715
     63  CB         1.3750  -16.1590  -20.6760 C.3    27  LEU27       0.0311
     64  CG         2.4810  -15.1060  -20.6290 C.3    27  LEU27       0.0022
     65  CD1        3.1710  -15.0810  -19.2700 C.3    27  LEU27       0.0001
     66  CD2        3.4880  -15.3810  -21.7330 C.3    27  LEU27       0.0001
     67  N          0.5260  -16.7230  -17.8090 N.am   28  SER28      -0.1936
     68  CA         0.8400  -16.6700  -16.4010 C.3    28  SER28       0.2055
     69  C          2.1810  -17.3400  -16.2370 C.2    28  SER28       0.2643
     70  O          2.4140  -18.4020  -16.7990 O.2    28  SER28      -0.2714
     71  CB        -0.2160  -17.4140  -15.5930 C.3    28  SER28       0.2130
     72  OG        -1.4590  -16.7420  -15.6760 O.3    28  SER28      -0.2179
     73  N          3.0760  -16.7160  -15.4860 N.am   29  TYR29      -0.1973
     74  CA         4.4020  -17.2850  -15.3030 C.3    29  TYR29       0.1639
     75  C          4.7730  -17.1140  -13.8430 C.2    29  TYR29       0.2290
     76  O          4.1930  -16.2830  -13.1350 O.2    29  TYR29      -0.2864
     77  CB         5.4340  -16.5940  -16.2160 C.3    29  TYR29       0.0560
     78  CG         5.7740  -15.2030  -15.7500 C.ar   29  TYR29      -0.0198
     79  CD1        6.9280  -14.9610  -15.0100 C.ar   29  TYR29      -0.0009
     80  CD2        4.9150  -14.1330  -15.9980 C.ar   29  TYR29      -0.0009
     81  CE1        7.2320  -13.6920  -14.5480 C.ar   29  TYR29       0.0417
     82  CE2        5.2180  -12.8550  -15.5500 C.ar   29  TYR29       0.0417
     83  CZ         6.3770  -12.6450  -14.8210 C.ar   29  TYR29       0.1957
     84  OH         6.6750  -11.3890  -14.3520 O.3    29  TYR29      -0.2866
     85  N         13.4750  -17.6260  -13.8310 N.3    34  ARG34      -0.1231
     86  CA        14.0030  -17.6690  -15.1910 C.3    34  ARG34       0.1694
     87  C         13.0390  -18.3110  -16.1910 C.2    34  ARG34       0.2592
     88  O         13.4640  -19.0090  -17.1100 O.2    34  ARG34      -0.2718
     89  CB        15.3540  -18.3930  -15.2070 C.3    34  ARG34       0.0321
     90  CG        16.3340  -17.8380  -14.1840 C.3    34  ARG34       0.0489
     91  CD        17.7410  -18.3730  -14.3790 C.3    34  ARG34       0.2205
     92  NE        18.7230  -17.5420  -13.6870 N.pl3  34  ARG34      -0.0865
     93  CZ        20.0130  -17.8410  -13.5740 C.cat  34  ARG34       0.5346
     94  NH1       20.4840  -18.9620  -14.1040 N.pl3  34  ARG34       0.1354
     95  NH2       20.8300  -17.0220  -12.9270 N.pl3  34  ARG34       0.1354
     96  N         11.7450  -18.0630  -16.0180 N.am   35  ASN35      -0.1960
     97  CA        10.7330  -18.5880  -16.9380 C.3    35  ASN35       0.1819
     98  C         10.4550  -17.6570  -18.1190 C.2    35  ASN35       0.2621
     99  O          9.9860  -18.0950  -19.1650 O.2    35  ASN35      -0.2715
    100  CB         9.4270  -18.9080  -16.1990 C.3    35  ASN35       0.1195
    101  CG         9.6150  -19.9440  -15.1010 C.2    35  ASN35       0.2630
    102  OD1        8.6880  -20.2410  -14.3440 O.2    35  ASN35      -0.2716
    103  ND2       10.8210  -20.4920  -15.0050 N.am   35  ASN35      -0.0877
    104  N         10.7360  -16.3700  -17.9450 N.am   36  LEU36      -0.1963
    105  CA        10.5620  -15.3950  -19.0190 C.3    36  LEU36       0.1728
    106  C         11.9270  -14.9500  -19.5260 C.2    36  LEU36       0.2616
    107  O         12.9250  -15.1000  -18.8200 O.2    36  LEU36      -0.2715
    108  CB         9.7960  -14.1680  -18.5140 C.3    36  LEU36       0.0311
    109  CG         8.2800  -14.2410  -18.3540 C.3    36  LEU36       0.0022
    110  CD1        7.7440  -12.8700  -18.0430 C.3    36  LEU36       0.0001
    111  CD2        7.6260  -14.7780  -19.5980 C.3    36  LEU36       0.0001
    112  N         11.9750  -14.3990  -20.7380 N.am   37  ILE37      -0.1964
    113  CA        13.1900  -13.7350  -21.2100 C.3    37  ILE37       0.1712
    114  C         13.5660  -12.6330  -20.2240 C.2    37  ILE37       0.2458
    115  O         12.7020  -11.8990  -19.7250 O.2    37  ILE37      -0.2730
    116  CB        13.0470  -13.1520  -22.6410 C.3    37  ILE37       0.0289
    117  CG1       11.8460  -12.2100  -22.7340 C.3    37  ILE37       0.0022
    118  CG2       12.9090  -14.2650  -23.6640 C.3    37  ILE37       0.0023
    119  CD1       11.7160  -11.5370  -24.0800 C.3    37  ILE37       0.0001
    120  N         14.8610  -12.5300  -19.9200 N.am   38  PRO38      -0.2727
    121  CA        15.3910  -11.6300  -18.8890 C.3    38  PRO38       0.1402
    122  C         14.8510  -10.1940  -18.9570 C.2    38  PRO38       0.2269
    123  O         14.4150   -9.6560  -17.9370 O.2    38  PRO38      -0.2865
    124  CB        16.8940  -11.6520  -19.1580 C.3    38  PRO38       0.0296
    125  CG        17.1360  -13.0200  -19.7120 C.3    38  PRO38       0.0237
    126  CD        15.9120  -13.3650  -20.5230 C.3    38  PRO38       0.0939
    127  N         12.1410   -8.8330  -20.2210 N.3    40  LEU40      -0.1245
    128  CA        10.7300   -8.6560  -19.9110 C.3    40  LEU40       0.1561
    129  C         10.4940   -8.7850  -18.4090 C.2    40  LEU40       0.2260
    130  O          9.7840   -7.9810  -17.8010 O.2    40  LEU40      -0.2867
    131  CB         9.8910   -9.6890  -20.6660 C.3    40  LEU40       0.0270
    132  CG         8.3690   -9.5860  -20.5500 C.3    40  LEU40       0.0019
    133  CD1        7.8890   -8.1830  -20.9130 C.3    40  LEU40       0.0001
    134  CD2        7.7270  -10.6290  -21.4500 C.3    40  LEU40       0.0001
    135  N         16.9170  -10.7350  -24.5940 N.3    62  ALA62      -0.1231
    136  CA        15.8110  -11.5440  -25.0800 C.3    62  ALA62       0.1694
    137  C         16.3140  -12.9010  -25.5640 C.2    62  ALA62       0.2592
    138  O         16.5690  -13.7920  -24.7580 O.2    62  ALA62      -0.2718
    139  CB        15.0770  -10.8130  -26.2000 C.3    62  ALA62       0.0304
    140  N         16.4650  -13.0520  -26.8790 N.am   63  TYR63      -0.1976
    141  CA        16.8910  -14.3260  -27.4610 C.3    63  TYR63       0.1639
    142  C         18.3460  -14.3150  -27.9160 C.2    63  TYR63       0.2290
    143  O         18.7860  -15.1960  -28.6500 O.2    63  TYR63      -0.2864
    144  CB        15.9350  -14.7560  -28.5830 C.3    63  TYR63       0.0560
    145  CG        14.5600  -15.0570  -28.0300 C.ar   63  TYR63      -0.0198
    146  CD1       13.5760  -14.0750  -27.9770 C.ar   63  TYR63      -0.0009
    147  CD2       14.2650  -16.3080  -27.5030 C.ar   63  TYR63      -0.0009
    148  CE1       12.3280  -14.3420  -27.4420 C.ar   63  TYR63       0.0417
    149  CE2       13.0240  -16.5850  -26.9690 C.ar   63  TYR63       0.0417
    150  CZ        12.0590  -15.6000  -26.9380 C.ar   63  TYR63       0.1957
    151  OH        10.8240  -15.8780  -26.4010 O.3    63  TYR63      -0.2866
    152  N          7.2650   -4.6710  -26.4520 N.3   122  PHE122     -0.1241
    153  CA         6.1350   -5.2290  -25.7080 C.3   122  PHE122      0.1605
    154  C          5.1970   -4.1520  -25.1970 C.2   122  PHE122      0.2264
    155  O          5.6440   -3.1510  -24.6250 O.2   122  PHE122     -0.2867
    156  CB         6.6270   -6.0190  -24.4900 C.3   122  PHE122      0.0534
    157  CG         7.1880   -7.3720  -24.8190 C.ar  122  PHE122     -0.0203
    158  CD1        6.3420   -8.4630  -25.0130 C.ar  122  PHE122     -0.0042
    159  CD2        8.5600   -7.5650  -24.8960 C.ar  122  PHE122     -0.0042
    160  CE1        6.8590   -9.7220  -25.3030 C.ar  122  PHE122     -0.0003
    161  CE2        9.0840   -8.8240  -25.1750 C.ar  122  PHE122     -0.0003
    162  CZ         8.2330   -9.9020  -25.3780 C.ar  122  PHE122     -0.0000
@<TRIPOS>BOND
     1    29    30    1
     2    44    43    2
     3    24    23    2
     4    30    33    1
     5    30    31    1
     6    43    45   am
     7    43    42    1
     8    33    34    1
     9    23    22    1
    10    31    32    2
    11    31    37   am
    12    36    34   ar
    13    42    41    1
    14    34    35   ar
    15    26    28    1
    16    26    27    1
    17    26    25    1
    18    37    38    1
    19    41    38    1
    20    22    25    1
    21    22    21    1
    22   143   142    2
    23   144   145    1
    24   144   141    1
    25    38    39    1
    26    40    39    2
    27   145   146   ar
    28   145   147   ar
    29   146   148   ar
    30   142   141    1
    31    39    46   am
    32   147   149   ar
    33   141   140    1
    34   148   150   ar
    35   149   150   ar
    36   150   151    1
    37   140   137   am
    38    46    47    1
    39   152   153    1
    40   139   136    1
    41    18    16   ar
    42    18    19   ar
    43    12    11    2
    44    20    19    1
    45    47    48    1
    46   153   154    1
    47   153   156    1
    48   137   136    1
    49   137   138    2
    50    16    14   ar
    51    11    10    1
    52   162   160   ar
    53   162   161   ar
    54    19    17   ar
    55   160   158   ar
    56   154   155    2
    57   161   159   ar
    58   136   135    1
    59   158   157   ar
    60   159   157   ar
    61   157   156    1
    62    48    49    2
    63    48    50   am
    64    14    13    1
    65    14    15   ar
    66   119   117    1
    67    17    15   ar
    68    10    13    1
    69    10     9    1
    70   118   116    1
    71    50    51    1
    72   117   116    1
    73   116   113    1
    74    51    52    1
    75    51    54    1
    76    53    52    2
    77    66    64    1
    78    52    59   am
    79    54    55    1
    80   134   132    1
    81   113   112    1
    82   113   114    1
    83    55    56    1
    84   133   132    1
    85   112   106   am
    86    63    64    1
    87    63    60    1
    88   131   132    1
    89   131   128    1
    90    59    60    1
    91    64    65    1
    92   126   120    1
    93   126   125    1
    94   114   120   am
    95   114   115    2
    96   127   128    1
    97    56    58   ar
    98    56    57   ar
    99    60    61    1
   100     4     3    2
   101   120   121    1
   102   128   129    1
   103   125   124    1
   104   111   109    1
   105     8     6    1
   106   106   105    1
   107   106   107    2
   108     3     2    1
   109     6     5    1
   110    99    98    2
   111   124   121    1
   112   105   108    1
   113   105   104    1
   114   122   121    1
   115   122   123    2
   116   108   109    1
   117    61    62    2
   118    61    67   am
   119     5     2    1
   120     5     7    1
   121   129   130    2
   122   109   110    1
   123    98   104   am
   124    98    97    1
   125     2     1    1
   126    67    68    1
   127    88    87    2
   128    97   100    1
   129    97    96    1
   130    70    69    2
   131    68    69    1
   132    68    71    1
   133    69    73   am
   134    77    78    1
   135    77    74    1
   136   100   101    1
   137    87    96   am
   138    87    86    1
   139    80    78   ar
   140    80    82   ar
   141    78    79   ar
   142    72    71    1
   143    82    83   ar
   144    73    74    1
   145    74    75    1
   146    89    86    1
   147    89    90    1
   148    86    85    1
   149   101   103   am
   150   101   102    2
   151    79    81   ar
   152    83    81   ar
   153    83    84    1
   154    91    90    1
   155    91    92    1
   156    94    93    1
   157    75    76    2
   158    92    93    2
   159    93    95    1
