@<TRIPOS>MOLECULE
tmp/3lupA00.pdb
 222 211 0 0 0
SMALL
GASTEIGER

@<TRIPOS>ATOM
      1  N          5.6940   47.7320   22.5620 N.3    28  ILE28      -0.1245
      2  CA         5.2900   48.4840   23.7610 C.3    28  ILE28       0.1561
      3  C          6.3770   49.4760   24.1660 C.2    28  ILE28       0.2260
      4  O          7.4850   49.0760   24.5030 O.2    28  ILE28      -0.2867
      5  CB         4.9500   47.5490   24.9610 C.3    28  ILE28       0.0252
      6  CG1        3.8390   46.5590   24.5630 C.3    28  ILE28       0.0019
      7  CG2        4.5790   48.3830   26.2040 C.3    28  ILE28       0.0019
      8  CD1        3.4680   45.5340   25.6040 C.3    28  ILE28       0.0001
      9  N          7.6620   54.6260   33.0240 N.3    60  LYS60      -0.1231
     10  CA         6.3060   54.1880   32.7220 C.3    60  LYS60       0.1693
     11  C          6.3110   53.4190   31.4080 C.2    60  LYS60       0.2593
     12  O          7.2760   53.4660   30.6480 O.2    60  LYS60      -0.2718
     13  CB         5.3530   55.3800   32.6290 C.3    60  LYS60       0.0285
     14  CG         5.3880   56.3150   33.8150 C.3    60  LYS60       0.0035
     15  CD         4.1480   57.1980   33.8910 C.3    60  LYS60       0.0206
     16  CE         2.9290   56.3880   34.3240 C.3    60  LYS60       0.1093
     17  NZ         2.2780   56.9980   35.5190 N.3    60  LYS60      -0.1314
     18  N          5.2390   52.6910   31.1490 N.am   61  THR61      -0.1939
     19  CA         5.0280   52.1560   29.8210 C.3    61  THR61       0.2028
     20  C          3.7510   52.7650   29.2580 C.2    61  THR61       0.2643
     21  O          2.9830   53.4190   29.9810 O.2    61  THR61      -0.2714
     22  CB         4.9340   50.6220   29.8120 C.3    61  THR61       0.1808
     23  OG1        3.8810   50.2140   30.6770 O.3    61  THR61      -0.2208
     24  CG2        6.2470   49.9920   30.2840 C.3    61  THR61       0.0379
     25  N          3.5430   52.5760   27.9580 N.am   62  SER62      -0.1935
     26  CA         2.3050   52.9840   27.3210 C.3    62  SER62       0.2055
     27  C          1.8170   51.8340   26.4780 C.2    62  SER62       0.2643
     28  O          2.6030   50.9680   26.1030 O.2    62  SER62      -0.2714
     29  CB         2.5160   54.2180   26.4570 C.3    62  SER62       0.2130
     30  OG         3.4060   53.8940   25.4130 O.3    62  SER62      -0.2179
     31  N          0.5130   51.8300   26.2050 N.am   63  GLN63      -0.1963
     32  CA        -0.1300   50.8250   25.3700 C.3    63  GLN63       0.1718
     33  C          0.5190   50.8180   23.9940 C.2    63  GLN63       0.2458
     34  O          1.0190   51.8540   23.5490 O.2    63  GLN63      -0.2730
     35  CB        -1.6190   51.1440   25.2330 C.3    63  GLN63       0.0407
     36  CG        -2.4120   50.9680   26.5140 C.3    63  GLN63       0.0908
     37  CD        -3.7840   51.6140   26.4630 C.2    63  GLN63       0.2608
     38  OE1       -4.5430   51.4520   25.4930 O.2    63  GLN63      -0.2717
     39  NE2       -4.1180   52.3430   27.5160 N.am   63  GLN63      -0.0878
     40  N          0.5450   49.6530   23.3200 N.am   64  PRO64      -0.2727
     41  CA         0.9620   49.6870   21.9140 C.3    64  PRO64       0.1402
     42  C          0.0370   50.6010   21.1110 C.2    64  PRO64       0.2269
     43  O         -1.0540   50.9270   21.5730 O.2    64  PRO64      -0.2865
     44  CB         0.8360   48.2270   21.4500 C.3    64  PRO64       0.0296
     45  CG         0.3410   47.4570   22.6070 C.3    64  PRO64       0.0237
     46  CD         0.4760   48.2830   23.8450 C.3    64  PRO64       0.0939
     47  N         -1.3110   41.4070   26.0550 N.3    89  ILE89      -0.1245
     48  CA        -1.2300   41.6840   27.4870 C.3    89  ILE89       0.1561
     49  C         -2.6100   41.7590   28.2130 C.2    89  ILE89       0.2260
     50  O         -3.5900   42.3040   27.6790 O.2    89  ILE89      -0.2867
     51  CB        -0.3770   42.9740   27.6910 C.3    89  ILE89       0.0252
     52  CG1       -0.0720   43.2360   29.1610 C.3    89  ILE89       0.0019
     53  CG2       -1.0420   44.1930   27.0580 C.3    89  ILE89       0.0019
     54  CD1        1.2590   43.9500   29.3800 C.3    89  ILE89       0.0001
     55  N         -4.0080   44.7190   33.5360 N.3    93  ILE93      -0.1231
     56  CA        -2.7360   45.4150   33.7590 C.3    93  ILE93       0.1692
     57  C         -2.4360   46.4480   32.6740 C.2    93  ILE93       0.2593
     58  O         -1.3080   46.9300   32.5650 O.2    93  ILE93      -0.2718
     59  CB        -1.5410   44.4280   33.8970 C.3    93  ILE93       0.0266
     60  CG1       -1.2790   43.6900   32.5860 C.3    93  ILE93       0.0019
     61  CG2       -1.7720   43.4440   35.0550 C.3    93  ILE93       0.0020
     62  CD1       -0.0420   42.8620   32.6170 C.3    93  ILE93       0.0001
     63  N         -3.4590   46.7810   31.8880 N.am   94  SER94      -0.1938
     64  CA        -3.3380   47.6760   30.7410 C.3    94  SER94       0.2055
     65  C         -4.7020   47.7460   30.0900 C.2    94  SER94       0.2643
     66  O         -5.3520   46.7100   29.9000 O.2    94  SER94      -0.2714
     67  CB        -2.3380   47.1270   29.7210 C.3    94  SER94       0.2130
     68  OG        -1.9770   48.1240   28.7990 O.3    94  SER94      -0.2179
     69  N         -5.1310   48.9600   29.7400 N.am   95  GLY95      -0.1954
     70  CA        -6.4210   49.1580   29.0940 C.3    95  GLY95       0.1869
     71  C         -6.3690   48.9720   27.5970 C.2    95  GLY95       0.2309
     72  O         -7.2840   49.3760   26.8840 O.2    95  GLY95      -0.2863
     73  N         -2.9660   37.3760   31.0890 N.3   119  ILE119     -0.1231
     74  CA        -1.5890   37.0590   31.4380 C.3   119  ILE119      0.1692
     75  C         -0.6050   37.8590   30.5790 C.2   119  ILE119      0.2593
     76  O         -1.0000   38.8090   29.8920 O.2   119  ILE119     -0.2718
     77  CB        -1.3450   35.5180   31.4260 C.3   119  ILE119      0.0266
     78  CG1       -0.1600   35.1530   32.3210 C.3   119  ILE119      0.0019
     79  CG2       -1.3230   34.9280   29.9990 C.3   119  ILE119      0.0020
     80  CD1       -0.4810   35.3380   33.8300 C.3   119  ILE119      0.0001
     81  N          0.6680   37.5100   30.6580 N.am  120  THR120     -0.1939
     82  CA         1.6810   38.1490   29.8420 C.3   120  THR120      0.2028
     83  C          2.9280   37.2830   29.8770 C.2   120  THR120      0.2642
     84  O          2.8660   36.1540   30.3330 O.2   120  THR120     -0.2714
     85  CB         1.9420   39.6280   30.2940 C.3   120  THR120      0.1808
     86  OG1        2.7510   40.2900   29.3210 O.3   120  THR120     -0.2208
     87  CG2        2.6120   39.7040   31.6650 C.3   120  THR120      0.0379
     88  N          4.0520   37.7930   29.3900 N.am  121  SER121     -0.1949
     89  CA         5.3000   37.0300   29.3960 C.3   121  SER121      0.1924
     90  C          5.0840   35.6670   28.7100 C.2   121  SER121      0.2314
     91  O          4.4540   35.6160   27.6430 O.2   121  SER121     -0.2863
     92  CB         5.8290   36.8840   30.8310 C.3   121  SER121      0.2116
     93  OG         7.0370   36.1470   30.8650 O.3   121  SER121     -0.2180
     94  N          3.4290   32.5420   29.3580 N.3   123  PRO123     -0.2116
     95  CA         2.1150   31.9730   29.0550 C.3   123  PRO123      0.1372
     96  C          1.4580   32.6060   27.8320 C.2   123  PRO123      0.2244
     97  O          0.8420   31.8950   27.0330 O.2   123  PRO123     -0.2868
     98  CB         1.3190   32.2750   30.3300 C.3   123  PRO123      0.0268
     99  CG         2.3150   32.1310   31.3960 C.3   123  PRO123      0.0207
    100  CD         3.5580   32.7930   30.8100 C.3   123  PRO123      0.0892
    101  N         -0.0260   32.6760   36.9490 N.3   155  GLY155     -0.1225
    102  CA         1.1830   33.4760   37.0160 C.3   155  GLY155      0.1811
    103  C          1.3930   33.9670   38.4300 C.2   155  GLY155      0.2280
    104  O          0.6030   34.7610   38.9330 O.2   155  GLY155     -0.2866
    105  N          4.2280   35.5640   41.3980 N.3   157  ILE157     -0.1245
    106  CA         5.3690   36.4810   41.4240 C.3   157  ILE157      0.1561
    107  C          5.8200   36.7840   42.8370 C.2   157  ILE157      0.2260
    108  O          5.0090   36.9120   43.7440 O.2   157  ILE157     -0.2867
    109  CB         5.0330   37.8690   40.7820 C.3   157  ILE157      0.0252
    110  CG1        4.0470   37.7410   39.6070 C.3   157  ILE157      0.0019
    111  CG2        6.3180   38.6190   40.3830 C.3   157  ILE157      0.0019
    112  CD1        3.1510   38.9740   39.4440 C.3   157  ILE157      0.0001
    113  N          5.4010   47.9370   41.5790 N.3   165  LEU165     -0.1245
    114  CA         4.0370   47.4370   41.4910 C.3   165  LEU165      0.1561
    115  C          2.9630   48.3640   42.0490 C.2   165  LEU165      0.2260
    116  O          1.8770   48.4580   41.4730 O.2   165  LEU165     -0.2867
    117  CB         3.9180   46.0560   42.1090 C.3   165  LEU165      0.0270
    118  CG         4.1140   44.9070   41.1160 C.3   165  LEU165      0.0019
    119  CD1        3.9660   43.5810   41.8220 C.3   165  LEU165      0.0001
    120  CD2        3.1340   45.0030   39.9480 C.3   165  LEU165      0.0001
    121  N         -0.0540   48.5230   39.0410 N.3   170  ARG170     -0.1245
    122  CA        -0.5660   47.2210   38.5700 C.3   170  ARG170      0.1563
    123  C         -0.9080   46.2480   39.6950 C.2   170  ARG170      0.2260
    124  O         -1.6350   45.2750   39.4710 O.2   170  ARG170     -0.2867
    125  CB         0.3340   46.5590   37.5220 C.3   170  ARG170      0.0307
    126  CG         0.8860   47.4910   36.4640 C.3   170  ARG170      0.0489
    127  CD        -0.1300   48.0100   35.4660 C.3   170  ARG170      0.2205
    128  NE         0.3160   49.3240   35.0030 N.pl3 170  ARG170     -0.0865
    129  CZ        -0.0900   49.9440   33.8990 C.cat 170  ARG170      0.5346
    130  NH1       -0.9700   49.3880   33.0910 N.pl3 170  ARG170      0.1354
    131  NH2        0.4040   51.1320   33.5990 N.pl3 170  ARG170      0.1354
    132  N         -2.0150   36.4080   39.3980 N.3   190  PHE190     -0.1241
    133  CA        -3.0850   36.9730   38.5740 C.3   190  PHE190      0.1605
    134  C         -4.4710   36.4670   38.9580 C.2   190  PHE190      0.2264
    135  O         -4.7020   35.2600   39.0640 O.2   190  PHE190     -0.2867
    136  CB        -2.8290   36.6800   37.1080 C.3   190  PHE190      0.0534
    137  CG        -1.8640   37.6270   36.4590 C.ar  190  PHE190     -0.0203
    138  CD1       -2.3160   38.5720   35.5300 C.ar  190  PHE190     -0.0042
    139  CD2       -0.5010   37.5720   36.7530 C.ar  190  PHE190     -0.0042
    140  CE1       -1.4360   39.4510   34.9080 C.ar  190  PHE190     -0.0003
    141  CE2        0.3980   38.4630   36.1380 C.ar  190  PHE190     -0.0003
    142  CZ        -0.0800   39.4050   35.2090 C.ar  190  PHE190     -0.0000
    143  N         -3.2820   41.7600   39.1790 N.3   196  ILE196     -0.1245
    144  CA        -2.3140   41.2890   40.1340 C.3   196  ILE196      0.1561
    145  C         -2.7850   41.6310   41.5320 C.2   196  ILE196      0.2260
    146  O         -3.0450   42.8000   41.8430 O.2   196  ILE196     -0.2867
    147  CB        -0.9200   41.8200   39.8800 C.3   196  ILE196      0.0252
    148  CG1       -0.5630   41.6850   38.3810 C.3   196  ILE196      0.0019
    149  CG2        0.0630   41.0790   40.8070 C.3   196  ILE196      0.0019
    150  CD1        0.8770   42.0950   38.0280 C.3   196  ILE196      0.0001
    151  N         10.6010   32.9030   35.4660 N.3   229  ILE229     -0.1245
    152  CA        10.9090   34.1490   34.7820 C.3   229  ILE229      0.1561
    153  C         11.4520   35.1300   35.8110 C.2   229  ILE229      0.2260
    154  O         10.9320   35.2030   36.9130 O.2   229  ILE229     -0.2867
    155  CB         9.6570   34.7300   34.0890 C.3   229  ILE229      0.0252
    156  CG1        8.8400   33.6110   33.4290 C.3   229  ILE229      0.0019
    157  CG2       10.0490   35.7980   33.0720 C.3   229  ILE229      0.0019
    158  CD1        7.3540   33.7040   33.6870 C.3   229  ILE229      0.0001
    159  N         12.5270   38.5630   31.9110 N.3   258  PHE258     -0.1241
    160  CA        11.6200   39.6540   31.5890 C.3   258  PHE258      0.1605
    161  C         12.3730   40.6770   30.7310 C.2   258  PHE258      0.2264
    162  O         13.6120   40.6990   30.7210 O.2   258  PHE258     -0.2867
    163  CB        11.0960   40.3380   32.8620 C.3   258  PHE258      0.0534
    164  CG        10.1880   39.4710   33.7210 C.ar  258  PHE258     -0.0203
    165  CD1        8.9220   39.0720   33.2660 C.ar  258  PHE258     -0.0042
    166  CD2       10.5780   39.0940   35.0060 C.ar  258  PHE258     -0.0042
    167  CE1        8.0660   38.2830   34.0830 C.ar  258  PHE258     -0.0003
    168  CE2        9.7520   38.3030   35.8100 C.ar  258  PHE258     -0.0003
    169  CZ         8.4900   37.9010   35.3510 C.ar  258  PHE258     -0.0000
    170  N          9.7310   46.2340   29.7090 N.3   261  VAL261     -0.1231
    171  CA         8.3010   46.4670   29.8910 C.3   261  VAL261      0.1692
    172  C          7.8390   45.9790   31.2710 C.2   261  VAL261      0.2591
    173  O          7.3040   46.7660   32.0500 O.2   261  VAL261     -0.2718
    174  CB         7.4800   45.8550   28.7320 C.3   261  VAL261      0.0266
    175  CG1        6.0000   45.9870   28.9920 C.3   261  VAL261      0.0020
    176  CG2        7.8490   46.5500   27.4040 C.3   261  VAL261      0.0020
    177  N          8.1010   44.7070   31.5840 N.am  262  ILE262     -0.1980
    178  CA         7.7000   44.0940   32.8590 C.3   262  ILE262      0.1595
    179  C          8.6500   44.4260   34.0140 C.2   262  ILE262      0.2287
    180  O          8.2030   44.6130   35.1300 O.2   262  ILE262     -0.2864
    181  CB         7.4820   42.5690   32.7060 C.3   262  ILE262      0.0276
    182  CG1        6.3760   42.3040   31.6740 C.3   262  ILE262      0.0022
    183  CG2        7.1030   41.9400   34.0310 C.3   262  ILE262      0.0022
    184  CD1        6.3280   40.8910   31.1170 C.3   262  ILE262      0.0001
    185  N          7.4650   47.4460   35.8320 N.3   265  HIS265     -0.1226
    186  CA         6.3640   47.3230   36.7930 C.3   265  HIS265      0.1752
    187  C          6.6850   46.4080   37.9730 C.2   265  HIS265      0.2595
    188  O          6.0900   46.5230   39.0510 O.2   265  HIS265     -0.2718
    189  CB         5.0830   46.8920   36.0740 C.3   265  HIS265      0.0759
    190  CG         4.6020   47.9110   35.0890 C.ar  265  HIS265      0.0818
    191  ND1        3.7700   48.9520   35.4410 N.ar  265  HIS265     -0.2268
    192  CD2        4.8940   48.0890   33.7780 C.ar  265  HIS265      0.1154
    193  CE1        3.5400   49.7060   34.3790 C.ar  265  HIS265      0.1986
    194  NE2        4.2070   49.2000   33.3560 N.ar  265  HIS265     -0.2212
    195  N          7.6420   45.5140   37.7700 N.am  266  LEU266     -0.1980
    196  CA         8.0000   44.5590   38.7880 C.3   266  LEU266      0.1596
    197  C          9.2120   45.0240   39.6000 C.2   266  LEU266      0.2287
    198  O          9.3510   44.6760   40.7780 O.2   266  LEU266     -0.2864
    199  CB         8.2570   43.2000   38.1370 C.3   266  LEU266      0.0297
    200  CG         7.2330   42.0780   38.3200 C.3   266  LEU266      0.0022
    201  CD1        5.8020   42.5130   38.0080 C.3   266  LEU266      0.0001
    202  CD2        7.6460   40.8580   37.5030 C.3   266  LEU266      0.0001
    203  N          9.2800   35.0130   39.1680 N.3   272  ALA272     -0.1231
    204  CA         7.8970   34.6100   38.9180 C.3   272  ALA272      0.1694
    205  C          7.8740   33.2330   38.3050 C.2   272  ALA272      0.2592
    206  O          8.8980   32.7370   37.8400 O.2   272  ALA272     -0.2718
    207  CB         7.2250   35.5820   37.9830 C.3   272  ALA272      0.0304
    208  N          6.7080   32.6040   38.3000 N.am  273  PHE273     -0.1962
    209  CA         6.5070   31.4970   37.3840 C.3   273  PHE273      0.1771
    210  C          5.2190   31.7100   36.5940 C.2   273  PHE273      0.2620
    211  O          4.3290   32.4550   37.0200 O.2   273  PHE273     -0.2715
    212  CB         6.5460   30.1220   38.0840 C.3   273  PHE273      0.0574
    213  CG         5.3370   29.8200   38.9320 C.ar  273  PHE273     -0.0200
    214  CD1        5.3960   29.9580   40.3170 C.ar  273  PHE273     -0.0042
    215  CD2        4.1630   29.3800   38.3560 C.ar  273  PHE273     -0.0042
    216  CE1        4.2920   29.6770   41.1200 C.ar  273  PHE273     -0.0003
    217  CE2        3.0520   29.0950   39.1380 C.ar  273  PHE273     -0.0003
    218  CZ         3.1140   29.2440   40.5320 C.ar  273  PHE273     -0.0000
    219  N          5.1380   31.0630   35.4350 N.am  274  GLY274     -0.1954
    220  CA         3.8990   30.9960   34.6810 C.3   274  GLY274      0.1869
    221  C          3.7400   29.5880   34.1530 C.2   274  GLY274      0.2309
    222  O          4.7320   28.9820   33.7080 O.2   274  GLY274     -0.2863
@<TRIPOS>BOND
     1    42    43    2
     2    42    41    1
     3    44    41    1
     4    44    45    1
     5    41    40    1
     6     1     2    1
     7    45    46    1
     8    40    46    1
     9    40    33   am
    10    34    33    2
    11     2     3    1
    12     2     5    1
    13    33    32    1
    14     3     4    2
    15     6     5    1
    16     6     8    1
    17     5     7    1
    18    35    32    1
    19    35    36    1
    20    32    31    1
    21    30    29    1
    22    38    37    2
    23    47    48    1
    24    28    27    2
    25    31    27   am
    26    29    26    1
    27    37    36    1
    28    37    39   am
    29    27    26    1
    30    72    71    2
    31    97    96    2
    32    53    51    1
    33    26    25    1
    34   176   174    1
    35    48    51    1
    36    48    49    1
    37    71    70    1
    38    91    90    2
    39    50    49    2
    40    51    52    1
    41    96    95    1
    42    25    20   am
    43    90    89    1
    44   174   175    1
    45   174   171    1
    46    68    67    1
    47    95    94    1
    48    95    98    1
    49    70    69    1
    50    52    54    1
    51    20    19    1
    52    20    21    2
    53    86    85    1
    54    94   100    1
    55    88    89    1
    56    88    83   am
    57    89    92    1
    58   170   171    1
    59    67    64    1
    60    69    65   am
    61    22    19    1
    62    22    24    1
    63    22    23    1
    64    19    18    1
    65    82    83    1
    66    82    85    1
    67    82    81    1
    68    83    84    2
    69   171   172    1
    70    76    75    2
    71    66    65    2
    72    79    77    1
    73    65    64    1
    74    85    87    1
    75    98    99    1
    76    75    81   am
    77    75    74    1
    78    12    11    2
    79   162   161    2
    80   161   160    1
    81    64    63    1
    82   100    99    1
    83    92    93    1
    84    73    74    1
    85   184   182    1
    86    18    11   am
    87   172   177   am
    88   172   173    2
    89    11    10    1
    90    77    74    1
    91    77    78    1
    92   177   178    1
    93   160   159    1
    94   160   163    1
    95   182   181    1
    96    63    57   am
    97    78    80    1
    98    58    57    2
    99    60    62    1
   100    60    59    1
   101    13    10    1
   102    13    14    1
   103    57    56    1
   104   181   178    1
   105   181   183    1
   106    10     9    1
   107   178   179    1
   108   163   164    1
   109   157   155    1
   110   130   129    1
   111   165   164   ar
   112   165   167   ar
   113   194   192   ar
   114   194   193   ar
   115   156   158    1
   116   156   155    1
   117    55    56    1
   118   131   129    1
   119   222   221    2
   120   164   166   ar
   121    56    59    1
   122   192   190   ar
   123    14    15    1
   124    15    16    1
   125    59    61    1
   126   129   128    2
   127   179   180    2
   128   167   169   ar
   129   155   152    1
   130   221   220    1
   131    16    17    1
   132   193   191   ar
   133   220   219    1
   134   152   151    1
   135   152   153    1
   136   140   142   ar
   137   140   138   ar
   138   128   127    1
   139   166   168   ar
   140   190   191   ar
   141   190   189    1
   142   142   141   ar
   143   169   168   ar
   144   219   210   am
   145   127   126    1
   146   138   137   ar
   147   153   154    2
   148   185   186    1
   149   189   186    1
   150   141   139   ar
   151   137   139   ar
   152   137   136    1
   153   126   125    1
   154   210   211    2
   155   210   209    1
   156   186   187    1
   157   101   102    1
   158   102   103    1
   159   136   133    1
   160   209   212    1
   161   209   208    1
   162   202   200    1
   163   125   122    1
   164   195   187   am
   165   195   196    1
   166   206   205    2
   167   187   188    2
   168   207   204    1
   169   201   200    1
   170   150   148    1
   171   212   213    1
   172   199   200    1
   173   199   196    1
   174   208   205   am
   175   205   204    1
   176   215   213   ar
   177   215   217   ar
   178   148   147    1
   179   103   104    2
   180   122   121    1
   181   122   123    1
   182   133   134    1
   183   133   132    1
   184   196   197    1
   185   204   203    1
   186   213   214   ar
   187   134   135    2
   188   217   218   ar
   189   143   144    1
   190   112   110    1
   191   124   123    2
   192   197   198    2
   193   110   109    1
   194   147   144    1
   195   147   149    1
   196   120   118    1
   197   144   145    1
   198   214   216   ar
   199   111   109    1
   200   218   216   ar
   201   109   106    1
   202   118   119    1
   203   118   117    1
   204   105   106    1
   205   106   107    1
   206   116   115    2
   207   114   113    1
   208   114   115    1
   209   114   117    1
   210   145   146    2
   211   107   108    2
