@<TRIPOS>MOLECULE
tmp/3luqC01.pdb
 132 130 0 0 0
SMALL
GASTEIGER

@<TRIPOS>ATOM
      1  N          8.7790  -16.7690  -38.6040 N.3    30  TRP30      -0.1241
      2  CA         9.5610  -15.9320  -39.4670 C.3    30  TRP30       0.1605
      3  C         10.9830  -15.8540  -38.9950 C.2    30  TRP30       0.2264
      4  O         11.8720  -15.9190  -39.7780 O.2    30  TRP30      -0.2867
      5  CB         8.9380  -14.5440  -39.5770 C.3    30  TRP30       0.0550
      6  CG         9.6310  -13.6510  -40.5080 C.ar   30  TRP30       0.0003
      7  CD1       10.8300  -13.1050  -40.3350 C.ar   30  TRP30       0.0946
      8  CD2        9.1740  -13.2110  -41.7650 C.ar   30  TRP30       0.0152
      9  NE1       11.1700  -12.3640  -41.3920 N.ar   30  TRP30      -0.2442
     10  CE2       10.1540  -12.3960  -42.2920 C.ar   30  TRP30       0.0810
     11  CE3        8.0270  -13.4270  -42.5000 C.ar   30  TRP30       0.0012
     12  CZ2       10.0260  -11.7890  -43.5090 C.ar   30  TRP30       0.0191
     13  CZ3        7.9060  -12.8360  -43.6920 C.ar   30  TRP30       0.0001
     14  CH2        8.8900  -12.0280  -44.1940 C.ar   30  TRP30       0.0015
     15  N         13.8280  -17.3780  -41.1960 N.3    34  TYR34      -0.1241
     16  CA        14.8030  -16.4830  -41.7370 C.3    34  TYR34       0.1605
     17  C         16.0570  -16.4630  -40.9260 C.2    34  TYR34       0.2264
     18  O         16.8680  -15.6210  -41.1070 O.2    34  TYR34      -0.2867
     19  CB        14.2240  -15.0920  -41.9000 C.3    34  TYR34       0.0534
     20  CG        13.2450  -14.9980  -43.0300 C.ar   34  TYR34      -0.0201
     21  CD1       11.9980  -15.5310  -42.9180 C.ar   34  TYR34      -0.0009
     22  CD2       13.5750  -14.3940  -44.1980 C.ar   34  TYR34      -0.0009
     23  CE1       11.1260  -15.4630  -43.9070 C.ar   34  TYR34       0.0417
     24  CE2       12.7000  -14.3260  -45.1980 C.ar   34  TYR34       0.0417
     25  CZ        11.4710  -14.8660  -45.0470 C.ar   34  TYR34       0.1957
     26  OH        10.5790  -14.8120  -46.0460 O.3    34  TYR34      -0.2866
     27  N         15.5290   -4.8860  -42.9290 N.3    45  HIS45      -0.1241
     28  CA        15.5990   -6.1770  -43.5470 C.3    45  HIS45       0.1621
     29  C         16.7420   -6.1620  -44.5350 C.2    45  HIS45       0.2264
     30  O         17.4520   -7.1130  -44.7010 O.2    45  HIS45      -0.2867
     31  CB        14.2610   -6.4300  -44.2280 C.3    45  HIS45       0.0745
     32  CG        14.0780   -7.8090  -44.7580 C.ar   45  HIS45       0.0817
     33  ND1       14.0560   -8.9170  -43.9560 N.ar   45  HIS45      -0.2268
     34  CD2       13.8760   -8.2510  -46.0120 C.ar   45  HIS45       0.1154
     35  CE1       13.8690   -9.9850  -44.6960 C.ar   45  HIS45       0.1986
     36  NE2       13.7600   -9.6070  -45.9470 N.ar   45  HIS45      -0.2212
     37  N         19.6400   -8.6590  -44.7330 N.3    49  PHE49      -0.1241
     38  CA        19.9570   -9.3690  -45.9380 C.3    49  PHE49       0.1605
     39  C         20.3000   -8.3010  -46.9240 C.2    49  PHE49       0.2264
     40  O         19.4720   -7.5140  -47.2780 O.2    49  PHE49      -0.2867
     41  CB        18.7730  -10.1800  -46.4120 C.3    49  PHE49       0.0534
     42  CG        18.2050  -11.0720  -45.3710 C.ar   49  PHE49      -0.0203
     43  CD1       18.7630  -12.2790  -45.1100 C.ar   49  PHE49      -0.0042
     44  CD2       17.1150  -10.7050  -44.6580 C.ar   49  PHE49      -0.0042
     45  CE1       18.2520  -13.0700  -44.1770 C.ar   49  PHE49      -0.0003
     46  CE2       16.6200  -11.5110  -43.7320 C.ar   49  PHE49      -0.0003
     47  CZ        17.1880  -12.6930  -43.4980 C.ar   49  PHE49      -0.0000
     48  N         21.8290   -9.0340  -49.8390 N.3    51  GLU51      -0.1231
     49  CA        22.0230   -9.7100  -51.0900 C.3    51  GLU51       0.1699
     50  C         20.7240  -10.0900  -51.7420 C.2    51  GLU51       0.2592
     51  O         20.6880  -11.0470  -52.4760 O.2    51  GLU51      -0.2718
     52  CB        22.8030  -10.9690  -50.8370 C.3    51  GLU51       0.0402
     53  CG        22.9570  -11.2930  -49.3740 C.3    51  GLU51       0.1161
     54  CD        21.6580  -11.5420  -48.6650 C.2    51  GLU51       0.3649
     55  OE1       20.9420  -12.4890  -49.0300 O.co2  51  GLU51      -0.2457
     56  OE2       21.3660  -10.7990  -47.7240 O.co2  51  GLU51      -0.2457
     57  N         19.6500   -9.3760  -51.4480 N.am   52  ILE52      -0.1980
     58  CA        18.3070   -9.8220  -51.7670 C.3    52  ILE52       0.1595
     59  C         18.0030   -9.9830  -53.2400 C.2    52  ILE52       0.2287
     60  O         17.3980  -10.9590  -53.6590 O.2    52  ILE52      -0.2864
     61  CB        17.2990   -8.8430  -51.2290 C.3    52  ILE52       0.0276
     62  CG1       17.4680   -8.6610  -49.7540 C.3    52  ILE52       0.0022
     63  CG2       15.9490   -9.3790  -51.3530 C.3    52  ILE52       0.0022
     64  CD1       16.2090   -8.9210  -49.0360 C.3    52  ILE52       0.0001
     65  N         12.9050   -8.6870  -55.4520 N.3    56  TRP56      -0.1241
     66  CA        12.1300   -8.4720  -54.2520 C.3    56  TRP56       0.1605
     67  C         11.9260   -7.0210  -53.9430 C.2    56  TRP56       0.2264
     68  O         10.9090   -6.6360  -53.4510 O.2    56  TRP56      -0.2867
     69  CB        12.7260   -9.2010  -53.0900 C.3    56  TRP56       0.0550
     70  CG        12.9000  -10.5800  -53.4040 C.ar   56  TRP56       0.0003
     71  CD1       14.0510  -11.2090  -53.6410 C.ar   56  TRP56       0.0946
     72  CD2       11.8800  -11.5390  -53.5580 C.ar   56  TRP56       0.0152
     73  NE1       13.8310  -12.5090  -53.9230 N.ar   56  TRP56      -0.2442
     74  CE2       12.4900  -12.7370  -53.8800 C.ar   56  TRP56       0.0810
     75  CE3       10.5000  -11.5030  -53.4450 C.ar   56  TRP56       0.0012
     76  CZ2       11.7760  -13.8870  -54.0920 C.ar   56  TRP56       0.0191
     77  CZ3        9.7980  -12.6480  -53.6550 C.ar   56  TRP56       0.0001
     78  CH2       10.4260  -13.8160  -53.9730 C.ar   56  TRP56       0.0015
     79  N          8.5040   -5.3250  -52.9870 N.3    60  HIS60      -0.1241
     80  CA         8.2860   -4.6040  -51.7750 C.3    60  HIS60       0.1621
     81  C          7.8380   -3.2230  -52.1460 C.2    60  HIS60       0.2264
     82  O          6.9810   -2.6650  -51.5220 O.2    60  HIS60      -0.2867
     83  CB         9.5450   -4.5620  -50.9320 C.3    60  HIS60       0.0745
     84  CG        10.0300   -5.9030  -50.4980 C.ar   60  HIS60       0.0817
     85  ND1       11.2500   -6.0880  -49.9080 N.ar   60  HIS60      -0.2268
     86  CD2        9.4640   -7.1230  -50.5640 C.ar   60  HIS60       0.1154
     87  CE1       11.4210   -7.3630  -49.6310 C.ar   60  HIS60       0.1986
     88  NE2       10.3520   -8.0150  -50.0240 N.ar   60  HIS60      -0.2212
     89  N          7.3730  -21.9390  -53.1600 N.3    86  LEU86      -0.1245
     90  CA         6.9640  -20.9380  -52.2090 C.3    86  LEU86       0.1561
     91  C          5.5590  -20.4220  -52.3660 C.2    86  LEU86       0.2260
     92  O          5.1110  -20.1680  -53.4500 O.2    86  LEU86      -0.2867
     93  CB         7.8600  -19.7450  -52.3950 C.3    86  LEU86       0.0270
     94  CG         8.7530  -19.3360  -51.2640 C.3    86  LEU86       0.0019
     95  CD1        8.0940  -18.2920  -50.4980 C.3    86  LEU86       0.0001
     96  CD2        9.0120  -20.4940  -50.4190 C.3    86  LEU86       0.0001
     97  N          3.6560  -16.9960  -51.1190 N.3    88  TRP88      -0.1241
     98  CA         3.9230  -15.7580  -50.4250 C.3    88  TRP88       0.1605
     99  C          2.9510  -14.6780  -50.7460 C.2    88  TRP88       0.2264
    100  O          2.3080  -14.7160  -51.7350 O.2    88  TRP88      -0.2867
    101  CB         5.3300  -15.2750  -50.6590 C.3    88  TRP88       0.0550
    102  CG         5.6610  -15.1410  -52.0340 C.ar   88  TRP88       0.0003
    103  CD1        6.1490  -16.0880  -52.8240 C.ar   88  TRP88       0.0946
    104  CD2        5.5300  -13.9800  -52.8320 C.ar   88  TRP88       0.0152
    105  NE1        6.3340  -15.6090  -54.0710 N.ar   88  TRP88      -0.2442
    106  CE2        5.9640  -14.3020  -54.0940 C.ar   88  TRP88       0.0810
    107  CE3        5.0820  -12.7000  -52.5950 C.ar   88  TRP88       0.0012
    108  CZ2        5.9650  -13.4070  -55.1090 C.ar   88  TRP88       0.0191
    109  CZ3        5.0820  -11.8300  -53.5890 C.ar   88  TRP88       0.0001
    110  CH2        5.5220  -12.1660  -54.8300 C.ar   88  TRP88       0.0015
    111  N          2.5080  -10.3140  -50.2510 N.3    90  VAL90      -0.1245
    112  CA         2.9340   -9.0540  -49.7300 C.3    90  VAL90       0.1561
    113  C          1.7810   -8.1230  -49.8460 C.2    90  VAL90       0.2260
    114  O          1.2190   -8.0130  -50.8880 O.2    90  VAL90      -0.2867
    115  CB         4.0330   -8.4470  -50.5470 C.3    90  VAL90       0.0252
    116  CG1        4.2980   -7.0630  -50.0800 C.3    90  VAL90       0.0019
    117  CG2        5.2510   -9.2540  -50.4730 C.3    90  VAL90       0.0019
    118  N          4.2120   -9.2290  -44.9120 N.3   105  ILE105     -0.1245
    119  CA         4.6360  -10.2320  -45.8360 C.3   105  ILE105      0.1561
    120  C          4.4350  -11.5780  -45.2320 C.2   105  ILE105      0.2260
    121  O          4.6140  -11.7470  -44.0820 O.2   105  ILE105     -0.2867
    122  CB         6.1110  -10.0730  -46.1660 C.3   105  ILE105      0.0252
    123  CG1        6.3830   -8.6980  -46.7340 C.3   105  ILE105      0.0019
    124  CG2        6.5410  -11.1090  -47.1320 C.3   105  ILE105      0.0019
    125  CD1        7.7830   -8.3770  -46.8890 C.3   105  ILE105      0.0001
    126  N          5.2040  -15.9090  -45.9950 N.3   107  THR107     -0.1218
    127  CA         5.6950  -16.9300  -46.8910 C.3   107  THR107      0.1862
    128  C          5.5560  -18.2910  -46.2970 C.2   107  THR107      0.2287
    129  O          5.5580  -18.4230  -45.1140 O.2   107  THR107     -0.2866
    130  CB         7.1420  -16.7160  -47.2340 C.3   107  THR107      0.1770
    131  OG1        7.9070  -16.7160  -46.0440 O.3   107  THR107     -0.2211
    132  CG2        7.3160  -15.4210  -47.8970 C.3   107  THR107      0.0375
@<TRIPOS>BOND
     1    65    66    1
     2   108   110   ar
     3   108   106   ar
     4   110   109   ar
     5    66    67    1
     6    66    69    1
     7   106   105   ar
     8   106   104   ar
     9    76    78   ar
    10    76    74   ar
    11   105   103   ar
    12    78    77   ar
    13    67    68    2
    14    73    74   ar
    15    73    71   ar
    16    74    72   ar
    17    60    59    2
    18    77    75   ar
    19    71    70   ar
    20   109   107   ar
    21    72    75   ar
    22    72    70   ar
    23    92    91    2
    24    70    69    1
    25    59    58    1
    26    89    90    1
    27    79    80    1
    28   104   107   ar
    29   104   102   ar
    30   103   102   ar
    31    51    50    2
    32    93    90    1
    33    93    94    1
    34    91    90    1
    35    81    80    1
    36    81    82    2
    37   102   101    1
    38    80    83    1
    39    58    57    1
    40    58    61    1
    41    50    57   am
    42    50    49    1
    43   100    99    2
    44    63    61    1
    45    94    95    1
    46    94    96    1
    47    61    62    1
    48    97    98    1
    49    49    52    1
    50    49    48    1
    51    83    84    1
    52   114   113    2
    53    52    53    1
    54    99    98    1
    55   101    98    1
    56    86    84   ar
    57    86    88   ar
    58   115   117    1
    59   115   116    1
    60   115   112    1
    61    84    85   ar
    62   111   112    1
    63    88    87   ar
    64    85    87   ar
    65   113   112    1
    66    62    64    1
    67    53    54    1
    68    55    54   ar
    69    54    56   ar
    70   132   130    1
    71    40    39    2
    72   130   127    1
    73   130   131    1
    74   124   122    1
    75    39    38    1
    76   127   128    1
    77   127   126    1
    78   125   123    1
    79   123   122    1
    80    41    38    1
    81    41    42    1
    82   128   129    2
    83   122   119    1
    84    26    25    1
    85    34    36   ar
    86    34    32   ar
    87    36    35   ar
    88    38    37    1
    89   119   120    1
    90   119   118    1
    91    42    43   ar
    92    42    44   ar
    93   120   121    2
    94    24    25   ar
    95    24    22   ar
    96    43    45   ar
    97    25    23   ar
    98    32    31    1
    99    32    33   ar
   100    30    29    2
   101    35    33   ar
   102    44    46   ar
   103    29    28    1
   104    31    28    1
   105    22    20   ar
   106    14    13   ar
   107    14    12   ar
   108    45    47   ar
   109    23    21   ar
   110    46    47   ar
   111    13    11   ar
   112    28    27    1
   113    12    10   ar
   114    20    21   ar
   115    20    19    1
   116    11     8   ar
   117    10     8   ar
   118    10     9   ar
   119    19    16    1
   120     8     6   ar
   121    16    15    1
   122    16    17    1
   123     9     7   ar
   124    18    17    2
   125     6     7   ar
   126     6     5    1
   127     4     3    2
   128     5     2    1
   129     2     3    1
   130     2     1    1
