@<TRIPOS>MOLECULE
tmp/3luqC00.pdb
 90 89 0 0 0
SMALL
GASTEIGER

@<TRIPOS>ATOM
      1  N         -2.7110   -5.3470  -34.8550 N.3     5  LEU5       -0.1245
      2  CA        -2.1410   -5.9210  -36.0270 C.3     5  LEU5        0.1561
      3  C         -0.7890   -6.4710  -35.7250 C.2     5  LEU5        0.2260
      4  O         -0.4490   -7.5540  -36.1080 O.2     5  LEU5       -0.2867
      5  CB        -1.9970   -4.8490  -37.0660 C.3     5  LEU5        0.0270
      6  CG        -3.2170   -4.6520  -37.9430 C.3     5  LEU5        0.0019
      7  CD1       -2.7820   -4.4890  -39.3420 C.3     5  LEU5        0.0001
      8  CD2       -4.1410   -5.8010  -37.8020 C.3     5  LEU5        0.0001
      9  N         -1.0800   -9.4780  -33.6550 N.3     8  PHE8       -0.1227
     10  CA        -1.5400  -10.5710  -34.4610 C.3     8  PHE8        0.1736
     11  C         -0.4260  -11.1600  -35.2950 C.2     8  PHE8        0.2596
     12  O         -0.3910  -12.3330  -35.5300 O.2     8  PHE8       -0.2718
     13  CB        -2.6290  -10.1140  -35.3970 C.3     8  PHE8        0.0547
     14  CG        -3.9760  -10.2120  -34.8340 C.ar    8  PHE8       -0.0202
     15  CD1       -5.0640   -9.8690  -35.5710 C.ar    8  PHE8       -0.0042
     16  CD2       -4.1670  -10.6210  -33.5660 C.ar    8  PHE8       -0.0042
     17  CE1       -6.3080   -9.9490  -35.0530 C.ar    8  PHE8       -0.0003
     18  CE2       -5.4190  -10.6910  -33.0570 C.ar    8  PHE8       -0.0003
     19  CZ        -6.4820  -10.3570  -33.8020 C.ar    8  PHE8       -0.0000
     20  N          0.4470  -10.3270  -35.8190 N.am    9  THR9       -0.1953
     21  CA         1.5620  -10.8470  -36.5550 C.3     9  THR9        0.1897
     22  C          2.5570  -11.5760  -35.6910 C.2     9  THR9        0.2313
     23  O          3.0490  -12.6050  -36.0670 O.2     9  THR9       -0.2863
     24  CB         2.1700   -9.8340  -37.5080 C.3     9  THR9        0.1794
     25  OG1        3.5760   -9.7920  -37.3420 O.3     9  THR9       -0.2208
     26  CG2        1.5960   -8.5120  -37.2720 C.3     9  THR9        0.0378
     27  N          1.2280  -14.9250  -34.9530 N.3    12  ALA12      -0.1245
     28  CA         0.7530  -15.7210  -36.0530 C.3    12  ALA12       0.1562
     29  C          1.2960  -17.1340  -36.1130 C.2    12  ALA12       0.2260
     30  O          2.4150  -17.3920  -35.8160 O.2    12  ALA12      -0.2867
     31  CB         0.9910  -15.0180  -37.3210 C.3    12  ALA12       0.0290
     32  N          5.1960  -14.5390  -40.5220 N.3    16  LEU16      -0.1245
     33  CA         4.6970  -13.2380  -40.8470 C.3    16  LEU16       0.1561
     34  C          5.6240  -12.2060  -40.3590 C.2    16  LEU16       0.2260
     35  O          6.1760  -12.3390  -39.3300 O.2    16  LEU16      -0.2867
     36  CB         3.3960  -13.0090  -40.1220 C.3    16  LEU16       0.0270
     37  CG         2.0940  -13.3490  -40.8030 C.3    16  LEU16       0.0019
     38  CD1        1.1010  -12.3010  -40.5140 C.3    16  LEU16       0.0001
     39  CD2        2.3070  -13.4660  -42.2220 C.3    16  LEU16       0.0001
     40  N          1.4300   -7.4430  -48.7750 N.3    91  ARG91      -0.1231
     41  CA         0.3560   -6.4820  -48.8270 C.3    91  ARG91       0.1679
     42  C          0.5950   -5.2980  -47.9440 C.2    91  ARG91       0.2434
     43  O          1.2550   -5.3810  -46.9570 O.2    91  ARG91      -0.2733
     44  CB        -0.9510   -7.1430  -48.4320 C.3    91  ARG91       0.0321
     45  CG        -0.8540   -7.9550  -47.1770 C.3    91  ARG91       0.0489
     46  CD        -2.0190   -8.8510  -47.0080 C.3    91  ARG91       0.2205
     47  NE        -3.2560   -8.1570  -47.2470 N.pl3  91  ARG91      -0.0865
     48  CZ        -4.2930   -8.6920  -47.8430 C.cat  91  ARG91       0.5346
     49  NH1       -4.2460   -9.9150  -48.2660 N.pl3  91  ARG91       0.1354
     50  NH2       -5.3660   -7.9890  -48.0090 N.pl3  91  ARG91       0.1354
     51  N          0.0260   -4.1830  -48.3120 N.am   92  PRO92      -0.2718
     52  CA         0.1400   -2.9920  -47.5130 C.3    92  PRO92       0.1535
     53  C         -0.7090   -3.0630  -46.2770 C.2    92  PRO92       0.2599
     54  O         -1.7170   -3.7120  -46.2900 O.2    92  PRO92      -0.2715
     55  CB        -0.3840   -1.9210  -48.4480 C.3    92  PRO92       0.0310
     56  CG        -1.2130   -2.5910  -49.3540 C.3    92  PRO92       0.0237
     57  CD        -0.7190   -3.9300  -49.5420 C.3    92  PRO92       0.0939
     58  N         -0.2770   -2.3720  -45.2350 N.am   93  TRP93      -0.1960
     59  CA        -1.0900   -2.0410  -44.0960 C.3    93  TRP93       0.1771
     60  C         -1.1670   -0.5360  -44.0390 C.2    93  TRP93       0.2619
     61  O         -0.3530    0.1420  -44.5830 O.2    93  TRP93      -0.2715
     62  CB        -0.5540   -2.6160  -42.7970 C.3    93  TRP93       0.0590
     63  CG         0.7590   -2.1160  -42.3400 C.ar   93  TRP93       0.0006
     64  CD1        1.9440   -2.6810  -42.5620 C.ar   93  TRP93       0.0946
     65  CD2        1.0090   -0.9760  -41.5420 C.ar   93  TRP93       0.0152
     66  NE1        2.9270   -1.9740  -41.9810 N.ar   93  TRP93      -0.2442
     67  CE2        2.3740   -0.9090  -41.3420 C.ar   93  TRP93       0.0810
     68  CE3        0.2050    0.0100  -40.9890 C.ar   93  TRP93       0.0012
     69  CZ2        2.9630    0.0920  -40.6120 C.ar   93  TRP93       0.0191
     70  CZ3        0.7870    0.9930  -40.2730 C.ar   93  TRP93       0.0001
     71  CH2        2.1470    1.0340  -40.0880 C.ar   93  TRP93       0.0015
     72  N         -2.1970   -0.0330  -43.3980 N.am   94  TYR94      -0.1974
     73  CA        -2.5510    1.3690  -43.4470 C.3    94  TYR94       0.1639
     74  C         -2.5460    2.1730  -42.1380 C.2    94  TYR94       0.2290
     75  O         -3.0170    1.7530  -41.1120 O.2    94  TYR94      -0.2864
     76  CB        -3.8650    1.5400  -44.1750 C.3    94  TYR94       0.0560
     77  CG        -3.8210    1.1950  -45.6350 C.ar   94  TYR94      -0.0198
     78  CD1       -3.5400    2.1480  -46.5780 C.ar   94  TYR94      -0.0009
     79  CD2       -4.0900   -0.0740  -46.0640 C.ar   94  TYR94      -0.0009
     80  CE1       -3.5170    1.8420  -47.9030 C.ar   94  TYR94       0.0417
     81  CE2       -4.0750   -0.3900  -47.3840 C.ar   94  TYR94       0.0417
     82  CZ        -3.7890    0.5720  -48.3060 C.ar   94  TYR94       0.1957
     83  OH        -3.7750    0.2580  -49.6330 O.3    94  TYR94      -0.2866
     84  N          2.9980   -6.0650  -44.9440 N.3   104  VAL104     -0.1245
     85  CA         3.0190   -7.2770  -44.2150 C.3   104  VAL104      0.1561
     86  C          3.3250   -8.3220  -45.2430 C.2   104  VAL104      0.2260
     87  O          2.7940   -8.2970  -46.3070 O.2   104  VAL104     -0.2867
     88  CB         1.6820   -7.5200  -43.5640 C.3   104  VAL104      0.0252
     89  CG1        1.5920   -8.8800  -43.0000 C.3   104  VAL104      0.0019
     90  CG2        1.4630   -6.5430  -42.5140 C.3   104  VAL104      0.0019
@<TRIPOS>BOND
     1    83    82    1
     2    57    56    1
     3    57    51    1
     4    56    55    1
     5    41    40    1
     6    41    44    1
     7    41    42    1
     8    55    52    1
     9    44    45    1
    10    51    42   am
    11    51    52    1
    12    82    80   ar
    13    82    81   ar
    14    49    48    1
    15    50    48    1
    16    42    43    2
    17    80    78   ar
    18    48    47    2
    19    52    53    1
    20    81    79   ar
    21    47    46    1
    22    45    46    1
    23    78    77   ar
    24    87    86    2
    25    54    53    2
    26    53    58   am
    27    79    77   ar
    28    77    76    1
    29    86    85    1
    30    58    59    1
    31    84    85    1
    32    61    60    2
    33    85    88    1
    34    76    73    1
    35    59    60    1
    36    59    62    1
    37    60    72   am
    38    88    89    1
    39    88    90    1
    40    73    72    1
    41    73    74    1
    42    62    63    1
    43    64    63   ar
    44    64    66   ar
    45    63    65   ar
    46    39    37    1
    47    74    75    2
    48    66    67   ar
    49    65    67   ar
    50    65    68   ar
    51    67    69   ar
    52    68    70   ar
    53    33    32    1
    54    33    34    1
    55    33    36    1
    56    37    38    1
    57    37    36    1
    58    69    71   ar
    59    34    35    2
    60    70    71   ar
    61     7     6    1
    62     6     8    1
    63     6     5    1
    64    24    25    1
    65    24    26    1
    66    24    21    1
    67    31    28    1
    68     5     2    1
    69    21    20    1
    70    21    22    1
    71    29    28    1
    72    29    30    2
    73     4     3    2
    74    23    22    2
    75    28    27    1
    76     2     3    1
    77     2     1    1
    78    20    11   am
    79    15    17   ar
    80    15    14   ar
    81    12    11    2
    82    13    14    1
    83    13    10    1
    84    11    10    1
    85    17    19   ar
    86    14    16   ar
    87    10     9    1
    88    19    18   ar
    89    16    18   ar
