@<TRIPOS>MOLECULE
tmp/3luqB00.pdb
 85 80 0 0 0
SMALL
GASTEIGER

@<TRIPOS>ATOM
      1  N          3.8320  -12.3470  -24.2360 N.3     8  PHE8       -0.1241
      2  CA         3.3920  -11.4880  -23.1930 C.3     8  PHE8        0.1605
      3  C          4.5580  -10.8670  -22.4790 C.2     8  PHE8        0.2264
      4  O          4.5720   -9.6900  -22.2270 O.2     8  PHE8       -0.2867
      5  CB         2.6160  -12.3210  -22.2170 C.3     8  PHE8        0.0534
      6  CG         2.0500  -11.5610  -21.0800 C.ar    8  PHE8       -0.0203
      7  CD1        0.9250  -10.8220  -21.2330 C.ar    8  PHE8       -0.0042
      8  CD2        2.6260  -11.6210  -19.8390 C.ar    8  PHE8       -0.0042
      9  CE1        0.4090  -10.1650  -20.1890 C.ar    8  PHE8       -0.0003
     10  CE2        2.1080  -10.9500  -18.7990 C.ar    8  PHE8       -0.0003
     11  CZ         1.0050  -10.2280  -18.9700 C.ar    8  PHE8       -0.0000
     12  N          6.1410   -6.6750  -22.5290 N.3    12  ALA12      -0.1231
     13  CA         5.7740   -6.0520  -21.2930 C.3    12  ALA12       0.1679
     14  C          6.3610   -4.6650  -21.1530 C.2    12  ALA12       0.2434
     15  O          7.5110   -4.4480  -21.4200 O.2    12  ALA12      -0.2733
     16  CB         6.2000   -6.8880  -20.1950 C.3    12  ALA12       0.0304
     17  N          5.5430   -3.7190  -20.7390 N.am   13  PRO13      -0.2718
     18  CA         5.9940   -2.3720  -20.3860 C.3    13  PRO13       0.1535
     19  C          6.9150   -2.3310  -19.1820 C.2    13  PRO13       0.2598
     20  O          7.8230   -1.5620  -19.1120 O.2    13  PRO13      -0.2715
     21  CB         4.6900   -1.6400  -20.0710 C.3    13  PRO13       0.0310
     22  CG         3.6680   -2.6620  -19.9970 C.3    13  PRO13       0.0237
     23  CD         4.0860   -3.7790  -20.8430 C.3    13  PRO13       0.0939
     24  N          6.6340   -3.1770  -18.2280 N.am   14  ALA14      -0.1978
     25  CA         7.3970   -3.2750  -17.0310 C.3    14  ALA14       0.1597
     26  C          8.5780   -4.1900  -17.2600 C.2    14  ALA14       0.2287
     27  O          8.7380   -4.6910  -18.3220 O.2    14  ALA14      -0.2864
     28  CB         6.5470   -3.7970  -15.9890 C.3    14  ALA14       0.0319
     29  N         10.0040   -7.5600  -17.1840 N.3    16  LEU16      -0.1245
     30  CA         9.5450   -8.9140  -17.0740 C.3    16  LEU16       0.1561
     31  C         10.4440   -9.9290  -17.7330 C.2    16  LEU16       0.2260
     32  O         10.8720   -9.7530  -18.8410 O.2    16  LEU16      -0.2867
     33  CB         8.1890   -9.0060  -17.7030 C.3    16  LEU16       0.0270
     34  CG         6.9730   -9.2280  -16.8560 C.3    16  LEU16       0.0019
     35  CD1        6.0110   -9.8290  -17.7290 C.3    16  LEU16       0.0001
     36  CD2        7.2670  -10.0780  -15.7410 C.3    16  LEU16       0.0001
     37  N          4.9140  -12.6460   -3.7460 N.3    70  ARG70      -0.1245
     38  CA         4.9270  -11.2540   -4.1060 C.3    70  ARG70       0.1563
     39  C          5.2450  -10.3540   -2.9640 C.2    70  ARG70       0.2260
     40  O          4.6890  -10.4950   -1.9280 O.2    70  ARG70      -0.2867
     41  CB         3.5840  -10.8820   -4.6520 C.3    70  ARG70       0.0307
     42  CG         3.2840   -9.4840   -4.4900 C.3    70  ARG70       0.0489
     43  CD         2.2930   -9.0690   -5.4620 C.3    70  ARG70       0.2205
     44  NE         2.0940   -7.6530   -5.4020 N.pl3  70  ARG70      -0.0865
     45  CZ         2.3250   -6.8280   -6.3970 C.cat  70  ARG70       0.5346
     46  NH1        2.7740   -7.2590   -7.5420 N.pl3  70  ARG70       0.1354
     47  NH2        2.1070   -5.5600   -6.2270 N.pl3  70  ARG70       0.1354
     48  N          7.4630   -9.6900   -7.8530 N.3    89  GLU89      -0.1245
     49  CA         6.7230  -10.9150   -7.8360 C.3    89  GLU89       0.1567
     50  C          7.4720  -12.0170   -8.5480 C.2    89  GLU89       0.2260
     51  O          8.0660  -11.7870   -9.5440 O.2    89  GLU89      -0.2867
     52  CB         5.3730  -10.6900   -8.4630 C.3    89  GLU89       0.0388
     53  CG         4.3670  -11.7230   -8.1340 C.3    89  GLU89       0.1160
     54  CD         3.0080  -11.3530   -8.5960 C.2    89  GLU89       0.3649
     55  OE1        2.2180  -12.2300   -8.8730 O.co2  89  GLU89      -0.2457
     56  OE2        2.7200  -10.1740   -8.6850 O.co2  89  GLU89      -0.2457
     57  N          6.6760  -16.0410   -9.7090 N.3    91  ARG91      -0.1245
     58  CA         5.6690  -17.0700   -9.7490 C.3    91  ARG91       0.1563
     59  C          5.8120  -18.0490  -10.8750 C.2    91  ARG91       0.2260
     60  O          6.4320  -17.7980  -11.8680 O.2    91  ARG91      -0.2867
     61  CB         4.2660  -16.4770   -9.7520 C.3    91  ARG91       0.0307
     62  CG         4.0360  -15.3470  -10.7080 C.3    91  ARG91       0.0489
     63  CD         2.7560  -15.5090  -11.4030 C.3    91  ARG91       0.2205
     64  NE         1.8140  -14.5000  -11.0080 N.pl3  91  ARG91      -0.0865
     65  CZ         0.6070  -14.7400  -10.5480 C.cat  91  ARG91       0.5346
     66  NH1        0.1690  -15.9530  -10.4150 N.pl3  91  ARG91       0.1354
     67  NH2       -0.1670  -13.7460  -10.2360 N.pl3  91  ARG91       0.1354
     68  N          8.0370  -16.8570  -13.7290 N.3   104  VAL104     -0.1245
     69  CA         7.9950  -15.5120  -14.2560 C.3   104  VAL104      0.1561
     70  C          8.3170  -14.5320  -13.1540 C.2   104  VAL104      0.2260
     71  O          7.7890  -14.6130  -12.1000 O.2   104  VAL104     -0.2867
     72  CB         6.6550  -15.2240  -14.8420 C.3   104  VAL104      0.0252
     73  CG1        6.6060  -13.9040  -15.3800 C.3   104  VAL104      0.0019
     74  CG2        6.3830  -16.1610  -15.8990 C.3   104  VAL104      0.0019
     75  N          8.9420  -10.4470  -11.8800 N.3   106  PHE106     -0.1241
     76  CA         8.7210   -9.0460  -12.1170 C.3   106  PHE106      0.1605
     77  C          9.3290   -8.1960  -11.0360 C.2   106  PHE106      0.2264
     78  O          9.1320   -8.4390   -9.8950 O.2   106  PHE106     -0.2867
     79  CB         7.2240   -8.8350  -12.2260 C.3   106  PHE106      0.0534
     80  CG         6.7470   -7.5000  -11.7950 C.ar  106  PHE106     -0.0203
     81  CD1        6.0550   -7.3570  -10.6370 C.ar  106  PHE106     -0.0042
     82  CD2        6.9160   -6.4070  -12.5800 C.ar  106  PHE106     -0.0042
     83  CE1        5.5970   -6.1670  -10.2630 C.ar  106  PHE106     -0.0003
     84  CE2        6.4590   -5.2120  -12.1880 C.ar  106  PHE106     -0.0003
     85  CZ         5.7990   -5.0930  -11.0310 C.ar  106  PHE106     -0.0000
@<TRIPOS>BOND
     1     1     2    1
     2     2     3    1
     3     2     5    1
     4    12    13    1
     5     3     4    2
     6     5     6    1
     7    15    14    2
     8    13    14    1
     9    13    16    1
    10     7     6   ar
    11     7     9   ar
    12    14    17   am
    13     6     8   ar
    14    23    17    1
    15    23    22    1
    16    17    18    1
    17    18    21    1
    18    18    19    1
    19     9    11   ar
    20    21    22    1
    21     8    10   ar
    22    19    20    2
    23    19    24   am
    24    11    10   ar
    25    32    31    2
    26    27    26    2
    27    24    25    1
    28    31    30    1
    29    35    34    1
    30    33    30    1
    31    33    34    1
    32    26    25    1
    33    29    30    1
    34    25    28    1
    35    34    36    1
    36    74    72    1
    37    73    72    1
    38    72    69    1
    39    69    68    1
    40    69    70    1
    41    70    71    2
    42    82    84   ar
    43    82    80   ar
    44    79    76    1
    45    79    80    1
    46    84    85   ar
    47    76    75    1
    48    76    77    1
    49    60    59    2
    50    80    81   ar
    51    63    64    1
    52    63    62    1
    53    77    78    2
    54    85    83   ar
    55    64    65    2
    56    59    58    1
    57    62    61    1
    58    81    83   ar
    59    65    66    1
    60    65    67    1
    61    61    58    1
    62    58    57    1
    63    51    50    2
    64    55    54   ar
    65    56    54   ar
    66    54    53    1
    67    50    49    1
    68    52    53    1
    69    52    49    1
    70    48    49    1
    71    46    45    1
    72    45    47    1
    73    45    44    2
    74    43    44    1
    75    43    42    1
    76    41    42    1
    77    41    38    1
    78    38    37    1
    79    38    39    1
    80    39    40    2
