@<TRIPOS>MOLECULE
tmp/3lurA00.pdb
 125 122 0 0 0
SMALL
GASTEIGER

@<TRIPOS>ATOM
      1  N         27.4470   30.6630   12.3770 N.3    31  ALA31      -0.1245
      2  CA        28.8960   30.7160   12.1940 C.3    31  ALA31       0.1562
      3  C         29.6080   30.4760   13.5320 C.2    31  ALA31       0.2260
      4  O         30.5710   29.7310   13.6040 O.2    31  ALA31      -0.2867
      5  CB        29.3290   32.0590   11.6040 C.3    31  ALA31       0.0290
      6  N         29.5750   26.8150   14.5470 N.3    34  TRP34      -0.1241
      7  CA        30.6540   26.0970   13.8820 C.3    34  TRP34       0.1605
      8  C         32.0040   26.4200   14.5320 C.2    34  TRP34       0.2264
      9  O         32.8280   25.5250   14.7520 O.2    34  TRP34      -0.2867
     10  CB        30.7300   26.4650   12.3880 C.3    34  TRP34       0.0550
     11  CG        29.7560   25.7840   11.5480 C.ar   34  TRP34       0.0003
     12  CD1       28.5790   26.2820   11.0940 C.ar   34  TRP34       0.0946
     13  CD2       29.8600   24.4600   11.0210 C.ar   34  TRP34       0.0152
     14  NE1       27.9440   25.3630   10.3220 N.ar   34  TRP34      -0.2442
     15  CE2       28.7090   24.2370   10.2420 C.ar   34  TRP34       0.0810
     16  CE3       30.8090   23.4410   11.1340 C.ar   34  TRP34       0.0012
     17  CZ2       28.4700   23.0320    9.5970 C.ar   34  TRP34       0.0191
     18  CZ3       30.5810   22.2520   10.4730 C.ar   34  TRP34       0.0001
     19  CH2       29.4120   22.0560    9.7250 C.ar   34  TRP34       0.0015
     20  N         34.4540   23.6430   16.2430 N.3    38  TYR38      -0.1241
     21  CA        35.8610   23.5370   15.8690 C.3    38  TYR38       0.1605
     22  C         36.7340   23.7100   17.1010 C.2    38  TYR38       0.2264
     23  O         37.5310   22.8330   17.4190 O.2    38  TYR38      -0.2867
     24  CB        36.2410   24.5610   14.7840 C.3    38  TYR38       0.0534
     25  CG        35.9840   24.0460   13.3940 C.ar   38  TYR38      -0.0201
     26  CD1       36.7490   23.0260   12.8710 C.ar   38  TYR38      -0.0009
     27  CD2       34.9760   24.5890   12.5930 C.ar   38  TYR38      -0.0009
     28  CE1       36.5180   22.5320   11.5770 C.ar   38  TYR38       0.0417
     29  CE2       34.7450   24.1140   11.3070 C.ar   38  TYR38       0.0417
     30  CZ        35.5090   23.0790   10.8080 C.ar   38  TYR38       0.1957
     31  OH        35.2790   22.5910    9.5480 O.3    38  TYR38      -0.2866
     32  N         34.2820   18.8930   15.9250 N.3    43  ILE43      -0.1245
     33  CA        34.3330   18.5690   14.5050 C.3    43  ILE43       0.1561
     34  C         35.2580   17.3890   14.2550 C.2    43  ILE43       0.2260
     35  O         34.9050   16.4850   13.4930 O.2    43  ILE43      -0.2867
     36  CB        34.7370   19.7360   13.5860 C.3    43  ILE43       0.0252
     37  CG1       33.7860   20.9270   13.7360 C.3    43  ILE43       0.0019
     38  CG2       34.7530   19.2390   12.0990 C.3    43  ILE43       0.0019
     39  CD1       32.3290   20.6190   13.4110 C.3    43  ILE43       0.0001
     40  N         34.1520   13.7440   12.7090 N.3    47  GLN47      -0.1245
     41  CA        34.7510   13.2740   11.4670 C.3    47  GLN47       0.1566
     42  C         35.2770   11.8600   11.5980 C.2    47  GLN47       0.2260
     43  O         35.3220   11.1380   10.6060 O.2    47  GLN47      -0.2867
     44  CB        35.8160   14.2340   10.9410 C.3    47  GLN47       0.0367
     45  CG        35.2230   15.4860   10.3290 C.3    47  GLN47       0.0905
     46  CD        34.4150   15.2100    9.0470 C.2    47  GLN47       0.2608
     47  OE1       33.5330   14.3460    9.0100 O.2    47  GLN47      -0.2717
     48  NE2       34.6930   15.9920    8.0030 N.am   47  GLN47      -0.0878
     49  N         30.4460   17.1520    5.8830 N.3    57  ILE57      -0.1245
     50  CA        29.8370   17.3590    7.1700 C.3    57  ILE57       0.1561
     51  C         28.5970   18.2130    6.9110 C.2    57  ILE57       0.2260
     52  O         28.5930   19.0990    6.0100 O.2    57  ILE57      -0.2867
     53  CB        30.8450   17.9580    8.1850 C.3    57  ILE57       0.0252
     54  CG1       30.1990   18.0890    9.5700 C.3    57  ILE57       0.0019
     55  CG2       31.4130   19.2810    7.6790 C.3    57  ILE57       0.0019
     56  CD1       31.1850   18.2720   10.6940 C.3    57  ILE57       0.0001
     57  N         32.2620   30.6470    2.9840 N.3   102  VAL102     -0.1231
     58  CA        31.3350   30.2380    4.0560 C.3   102  VAL102      0.1678
     59  C         31.5840   31.2000    5.2250 C.2   102  VAL102      0.2434
     60  O         32.7350   31.4690    5.5590 O.2   102  VAL102     -0.2733
     61  CB        31.5820   28.7630    4.4470 C.3   102  VAL102      0.0265
     62  CG1       30.6120   28.2980    5.4940 C.3   102  VAL102      0.0020
     63  CG2       31.5070   27.8820    3.2120 C.3   102  VAL102      0.0020
     64  N         30.5100   31.7130    5.8760 N.am  103  PRO103     -0.2729
     65  CA        29.0980   31.3740    5.6740 C.3   103  PRO103      0.1401
     66  C         28.3050   32.2730    4.7210 C.2   103  PRO103      0.2269
     67  O         27.2210   31.8780    4.3140 O.2   103  PRO103     -0.2865
     68  CB        28.5270   31.5380    7.0910 C.3   103  PRO103      0.0296
     69  CG        29.2640   32.7600    7.5990 C.3   103  PRO103      0.0237
     70  CD        30.6950   32.5380    7.0920 C.3   103  PRO103      0.0939
     71  N         29.0400   20.1470    3.4840 N.3   133  TYR133     -0.1227
     72  CA        30.3980   20.7250    3.3300 C.3   133  TYR133      0.1736
     73  C         31.5010   19.6900    3.1090 C.2   133  TYR133      0.2595
     74  O         31.8410   18.9300    4.0000 O.2   133  TYR133     -0.2718
     75  CB        30.7450   21.5420    4.5730 C.3   133  TYR133      0.0548
     76  CG        29.8150   22.7030    4.8320 C.ar  133  TYR133     -0.0200
     77  CD1       29.9950   23.9100    4.1870 C.ar  133  TYR133     -0.0009
     78  CD2       28.7590   22.5960    5.7220 C.ar  133  TYR133     -0.0009
     79  CE1       29.1500   24.9680    4.4210 C.ar  133  TYR133      0.0417
     80  CE2       27.9150   23.6260    5.9560 C.ar  133  TYR133      0.0417
     81  CZ        28.1000   24.8180    5.2880 C.ar  133  TYR133      0.1957
     82  OH        27.2320   25.8610    5.5190 O.3   133  TYR133     -0.2866
     83  N         32.0270   19.6650    1.8940 N.am  134  GLN134     -0.1965
     84  CA        33.1730   18.8670    1.5370 C.3   134  GLN134      0.1733
     85  C         34.4000   19.5390    2.1120 C.2   134  GLN134      0.2616
     86  O         34.3410   20.7280    2.5200 O.2   134  GLN134     -0.2715
     87  CB        33.3120   18.8090    0.0140 C.3   134  GLN134      0.0408
     88  CG        33.5360   20.1840   -0.6390 C.3   134  GLN134      0.0908
     89  CD        33.6270   20.1080   -2.1420 C.2   134  GLN134      0.2608
     90  OE1       34.3820   19.3220   -2.6780 O.2   134  GLN134     -0.2717
     91  NE2       32.8390   20.9320   -2.8290 N.am  134  GLN134     -0.0878
     92  N         35.5020   18.8000    2.1480 N.am  135  ASP135     -0.1957
     93  CA        36.7390   19.3650    2.5760 C.3   135  ASP135      0.1840
     94  C         37.1910   20.3220    1.4710 C.2   135  ASP135      0.2623
     95  O         36.8400   20.1510    0.2910 O.2   135  ASP135     -0.2715
     96  CB        37.7800   18.2830    2.8150 C.3   135  ASP135      0.1450
     97  CG        38.9280   18.7570    3.6700 C.2   135  ASP135      0.3671
     98  OD1       38.8610   19.8680    4.2470 O.co2 135  ASP135     -0.2456
     99  OD2       39.8880   17.9890    3.8160 O.co2 135  ASP135     -0.2456
    100  N         37.9960   21.3000    1.8510 N.am  136  GLY136     -0.1940
    101  CA        38.5320   22.2700    0.9250 C.3   136  GLY136      0.2014
    102  C         38.8120   23.5780    1.6620 C.2   136  GLY136      0.2639
    103  O         38.9280   23.5890    2.9020 O.2   136  GLY136     -0.2714
    104  N         38.9360   24.6690    0.9200 N.am  137  ASP137     -0.1957
    105  CA        39.1780   25.9910    1.5250 C.3   137  ASP137      0.1840
    106  C         37.8330   26.7250    1.5700 C.2   137  ASP137      0.2623
    107  O         37.4490   27.3690    0.6070 O.2   137  ASP137     -0.2715
    108  CB        40.1630   26.7910    0.7120 C.3   137  ASP137      0.1450
    109  CG        40.3110   28.2250    1.2140 C.2   137  ASP137      0.3671
    110  OD1       39.8210   28.5330    2.3210 O.co2 137  ASP137     -0.2456
    111  OD2       40.8860   29.0190    0.4840 O.co2 137  ASP137     -0.2456
    112  N         37.1550   26.6450    2.7060 N.am  138  THR138     -0.1937
    113  CA        35.8330   27.2410    2.8240 C.3   138  THR138      0.2028
    114  C         35.8380   28.7760    2.8370 C.2   138  THR138      0.2642
    115  O         34.7620   29.3770    2.8360 O.2   138  THR138     -0.2714
    116  CB        35.0740   26.7480    4.0910 C.3   138  THR138      0.1808
    117  OG1       35.8050   27.1160    5.2520 O.3   138  THR138     -0.2208
    118  CG2       34.8770   25.2080    4.0560 C.3   138  THR138      0.0379
    119  N         37.0140   29.3940    2.8640 N.am  139  THR139     -0.1950
    120  CA        37.1230   30.8430    2.7710 C.3   139  THR139      0.1897
    121  C         37.1650   31.3140    1.3300 C.2   139  THR139      0.2313
    122  O         37.1480   32.5160    1.0800 O.2   139  THR139     -0.2863
    123  CB        38.3740   31.4040    3.4870 C.3   139  THR139      0.1794
    124  OG1       39.6060   31.0300    2.7940 O.3   139  THR139     -0.2208
    125  CG2       38.3970   30.9270    4.9420 C.3   139  THR139      0.0378
@<TRIPOS>BOND
     1    91    89   am
     2    90    89    2
     3    89    88    1
     4    88    87    1
     5    87    84    1
     6    95    94    2
     7   111   109   ar
     8   107   106    2
     9   108   109    1
    10   108   105    1
    11   104   105    1
    12   104   102   am
    13   101   102    1
    14   101   100    1
    15   122   121    2
    16   109   110   ar
    17   121   120    1
    18    94   100   am
    19    94    93    1
    20   105   106    1
    21    84    83    1
    22    84    85    1
    23   106   112   am
    24   102   103    2
    25    83    73   am
    26    85    92   am
    27    85    86    2
    28    92    93    1
    29    93    96    1
    30   112   113    1
    31   120   119    1
    32   120   123    1
    33   124   123    1
    34    96    97    1
    35   113   114    1
    36   113   116    1
    37   115   114    2
    38   114   119   am
    39    57    58    1
    40    73    72    1
    41    73    74    2
    42    63    61    1
    43    72    71    1
    44    72    75    1
    45   123   125    1
    46    97    99   ar
    47    97    98   ar
    48   118   116    1
    49    58    61    1
    50    58    59    1
    51   116   117    1
    52    77    79   ar
    53    77    76   ar
    54    67    66    2
    55    79    81   ar
    56    61    62    1
    57    75    76    1
    58    66    65    1
    59    76    78   ar
    60    59    60    2
    61    59    64   am
    62    81    82    1
    63    81    80   ar
    64    65    64    1
    65    65    68    1
    66    78    80   ar
    67    64    70    1
    68    49    50    1
    69    52    51    2
    70    51    50    1
    71    68    69    1
    72    70    69    1
    73    50    53    1
    74    55    53    1
    75    48    46   am
    76    53    54    1
    77    47    46    2
    78    46    45    1
    79    31    30    1
    80    54    56    1
    81    17    19   ar
    82    17    15   ar
    83    19    18   ar
    84    15    14   ar
    85    15    13   ar
    86    14    12   ar
    87    45    44    1
    88    18    16   ar
    89    43    42    2
    90    30    29   ar
    91    30    28   ar
    92    44    41    1
    93    13    16   ar
    94    13    11   ar
    95    12    11   ar
    96    29    27   ar
    97    41    42    1
    98    41    40    1
    99    11    10    1
   100    28    26   ar
   101     5     2    1
   102    38    36    1
   103     2     1    1
   104     2     3    1
   105    10     7    1
   106    27    25   ar
   107    26    25   ar
   108    25    24    1
   109    39    37    1
   110    35    34    2
   111     3     4    2
   112    36    37    1
   113    36    33    1
   114     7     8    1
   115     7     6    1
   116    34    33    1
   117    33    32    1
   118     8     9    2
   119    24    21    1
   120    21    20    1
   121    21    22    1
   122    22    23    2
