@<TRIPOS>MOLECULE
tmp/3lusA00.pdb
 84 82 0 0 0
SMALL
GASTEIGER

@<TRIPOS>ATOM
      1  N        -11.0350    2.5290   25.0350 N.3     8  TYR8       -0.1241
      2  CA       -12.2290    1.6920   24.9840 C.3     8  TYR8        0.1605
      3  C        -11.9460    0.3060   25.6220 C.2     8  TYR8        0.2264
      4  O        -10.8990   -0.3420   25.3990 O.2     8  TYR8       -0.2867
      5  CB       -12.6390    1.5000   23.5300 C.3     8  TYR8        0.0534
      6  CG       -13.7580    0.5090   23.2680 C.ar    8  TYR8       -0.0201
      7  CD1      -15.0650    0.7660   23.6860 C.ar    8  TYR8       -0.0009
      8  CD2      -13.5330   -0.6480   22.5400 C.ar    8  TYR8       -0.0009
      9  CE1      -16.0740   -0.0950   23.4220 C.ar    8  TYR8        0.0417
     10  CE2      -14.5520   -1.5150   22.2840 C.ar    8  TYR8        0.0417
     11  CZ       -15.8260   -1.2480   22.7480 C.ar    8  TYR8        0.1957
     12  OH       -16.8610   -2.1150   22.4460 O.3     8  TYR8       -0.2866
     13  N         -9.7830   -5.0240   11.8840 N.3    58  CYS58      -0.1235
     14  CA        -8.8220   -4.1450   12.5480 C.3    58  CYS58       0.1677
     15  C         -7.8300   -3.5820   11.5410 C.2    58  CYS58       0.2270
     16  O         -7.4610   -2.4080   11.5770 O.2    58  CYS58      -0.2867
     17  CB        -8.0110   -4.9070   13.6030 C.3    58  CYS58       0.0956
     18  SG        -7.1350   -3.8490   14.7080 S.3    58  CYS58      -0.0801
     19  N         -9.6000   -0.9630    9.3280 N.3    61  ASN61      -0.1225
     20  CA        -9.6150    0.2480   10.1680 C.3    61  ASN61       0.1785
     21  C         -8.2720    0.9240   10.2360 C.2    61  ASN61       0.2597
     22  O         -8.1620    2.1240   10.1100 O.2    61  ASN61      -0.2718
     23  CB       -10.0140   -0.0800   11.6020 C.3    61  ASN61       0.1169
     24  CG       -11.5240   -0.1950   11.7890 C.2    61  ASN61       0.2627
     25  OD1      -12.2980    0.2520   10.9340 O.2    61  ASN61      -0.2716
     26  ND2      -11.9430   -0.8190   12.9020 N.am   61  ASN61      -0.0877
     27  N         -7.2240    0.1440   10.4560 N.am   62  ALA62      -0.1979
     28  CA        -5.8860    0.7100   10.5540 C.3    62  ALA62       0.1597
     29  C         -5.4300    1.4370    9.2720 C.2    62  ALA62       0.2287
     30  O         -4.8670    2.5500    9.3340 O.2    62  ALA62      -0.2864
     31  CB        -4.8750   -0.3570   10.9650 C.3    62  ALA62       0.0319
     32  N         -7.2800    4.6330    9.0020 N.3    65  HIS65      -0.1241
     33  CA        -6.7170    5.5340    9.9960 C.3    65  HIS65       0.1621
     34  C         -5.5380    6.3090    9.4080 C.2    65  HIS65       0.2264
     35  O         -5.4980    7.5750    9.4680 O.2    65  HIS65      -0.2867
     36  CB        -6.2760    4.7560   11.2420 C.3    65  HIS65       0.0745
     37  CG        -5.4740    5.5780   12.1960 C.ar   65  HIS65       0.0817
     38  ND1       -6.0010    6.6700   12.8350 N.ar   65  HIS65      -0.2268
     39  CD2       -4.1690    5.5080   12.5700 C.ar   65  HIS65       0.1154
     40  CE1       -5.0720    7.2130   13.6000 C.ar   65  HIS65       0.1986
     41  NE2       -3.9450    6.5420   13.4380 N.ar   65  HIS65      -0.2212
     42  N         -6.4350    8.7250    6.6320 N.3    68  ARG68      -0.1245
     43  CA        -6.9720    9.9790    7.1340 C.3    68  ARG68       0.1563
     44  C         -5.8670   10.9010    7.5900 C.2    68  ARG68       0.2260
     45  O         -5.8950   12.1000    7.2740 O.2    68  ARG68      -0.2867
     46  CB        -7.9050    9.7780    8.3150 C.3    68  ARG68       0.0307
     47  CG        -9.2790    9.3580    7.9100 C.3    68  ARG68       0.0489
     48  CD       -10.1870    9.1880    9.1590 C.3    68  ARG68       0.2205
     49  NE       -10.6400    7.7890    9.2980 N.pl3  68  ARG68      -0.0865
     50  CZ       -10.3370    6.9550   10.2960 C.cat  68  ARG68       0.5346
     51  NH1      -10.8200    5.7350   10.2540 N.pl3  68  ARG68       0.1354
     52  NH2       -9.5780    7.3130   11.3400 N.pl3  68  ARG68       0.1354
     53  N          0.8400    0.0650   13.2190 N.3   120  VAL120     -0.1231
     54  CA         0.0180    0.7180   14.1990 C.3   120  VAL120      0.1692
     55  C         -1.1340   -0.1560   14.6820 C.2   120  VAL120      0.2592
     56  O         -1.6420    0.0380   15.7650 O.2   120  VAL120     -0.2718
     57  CB        -0.4870    2.0970   13.6880 C.3   120  VAL120      0.0266
     58  CG1        0.6920    3.0150   13.2650 C.3   120  VAL120      0.0020
     59  CG2       -1.4400    1.9210   12.5760 C.3   120  VAL120      0.0020
     60  N         -1.5120   -1.1440   13.8870 N.am  121  CYS121     -0.1957
     61  CA        -2.7040   -1.9840   14.1340 C.3   121  CYS121      0.1828
     62  C         -2.5300   -2.7400   15.4320 C.2   121  CYS121      0.2467
     63  O         -1.4710   -3.2950   15.6680 O.2   121  CYS121     -0.2730
     64  CB        -2.8260   -2.9660   12.9880 C.3   121  CYS121      0.0996
     65  SG        -4.0470   -4.1820   13.1910 S.3   121  CYS121     -0.0797
     66  N         -3.5130   -2.6870   16.3350 N.am  122  PRO122     -0.2715
     67  CA        -3.2710   -3.3810   17.6120 C.3   122  PRO122      0.1536
     68  C         -3.2580   -4.9300   17.5130 C.2   122  PRO122      0.2598
     69  O         -2.5440   -5.5690   18.2540 O.2   122  PRO122     -0.2715
     70  CB        -4.4530   -2.9130   18.4880 C.3   122  PRO122      0.0310
     71  CG        -5.4630   -2.4240   17.5630 C.3   122  PRO122      0.0237
     72  CD        -4.7330   -1.8860   16.3800 C.3   122  PRO122      0.0939
     73  N         -3.9940   -5.5480   16.5810 N.am  123  TYR123     -0.1974
     74  CA        -3.8270   -6.9850   16.3600 C.3   123  TYR123      0.1639
     75  C         -2.3830   -7.2980   15.9060 C.2   123  TYR123      0.2290
     76  O         -1.7810   -8.3140   16.3550 O.2   123  TYR123     -0.2864
     77  CB        -4.7850   -7.5240   15.3190 C.3   123  TYR123      0.0560
     78  CG        -6.2060   -7.9040   15.8000 C.ar  123  TYR123     -0.0198
     79  CD1       -6.7610   -9.1220   15.4570 C.ar  123  TYR123     -0.0009
     80  CD2       -6.9840   -7.0280   16.5310 C.ar  123  TYR123     -0.0009
     81  CE1       -8.0710   -9.4690   15.8280 C.ar  123  TYR123      0.0417
     82  CE2       -8.3010   -7.3500   16.8770 C.ar  123  TYR123      0.0417
     83  CZ        -8.8250   -8.5770   16.5350 C.ar  123  TYR123      0.1957
     84  OH       -10.1140   -8.9400   16.8830 O.3   123  TYR123     -0.2866
@<TRIPOS>BOND
     1    42    43    1
     2    43    44    1
     3    43    46    1
     4    45    44    2
     5    47    46    1
     6    47    48    1
     7    32    33    1
     8    48    49    1
     9    29    30    2
    10    29    28    1
    11    49    50    2
    12    19    20    1
    13    34    35    2
    14    34    33    1
    15    33    36    1
    16    22    21    2
    17    20    21    1
    18    20    23    1
    19    21    27   am
    20    51    50    1
    21    50    52    1
    22    27    28    1
    23    28    31    1
    24    25    24    2
    25    36    37    1
    26    15    16    2
    27    15    14    1
    28    23    24    1
    29    24    26   am
    30    13    14    1
    31    37    39   ar
    32    37    38   ar
    33    14    17    1
    34    39    41   ar
    35    59    57    1
    36    38    40   ar
    37    64    65    1
    38    64    61    1
    39    53    54    1
    40    58    57    1
    41    41    40   ar
    42    17    18    1
    43    57    54    1
    44    60    61    1
    45    60    55   am
    46    61    62    1
    47    54    55    1
    48    55    56    2
    49    77    78    1
    50    77    74    1
    51    62    63    2
    52    62    66   am
    53    79    78   ar
    54    79    81   ar
    55    78    80   ar
    56    81    83   ar
    57    75    76    2
    58    75    74    1
    59    66    72    1
    60    66    67    1
    61    74    73    1
    62    72    71    1
    63    80    82   ar
    64    83    82   ar
    65    83    84    1
    66    73    68   am
    67    68    67    1
    68    68    69    2
    69    71    70    1
    70    67    70    1
    71    10     8   ar
    72    10    11   ar
    73    12    11    1
    74     8     6   ar
    75    11     9   ar
    76     6     5    1
    77     6     7   ar
    78     9     7   ar
    79     5     2    1
    80     2     1    1
    81     2     3    1
    82     4     3    2
