@<TRIPOS>MOLECULE
tmp/3luyA00.pdb
 89 88 0 0 0
SMALL
GASTEIGER

@<TRIPOS>ATOM
      1  N        105.7520   13.7070   24.1920 N.3   210  VAL210     -0.1231
      2  CA       106.8450   13.1750   24.9630 C.3   210  VAL210      0.1692
      3  C        107.4400   12.0060   24.1320 C.2   210  VAL210      0.2593
      4  O        106.8010   11.4700   23.2350 O.2   210  VAL210     -0.2718
      5  CB       106.3770   12.7040   26.3260 C.3   210  VAL210      0.0266
      6  CG1      106.1420   13.9140   27.2520 C.3   210  VAL210      0.0020
      7  CG2      105.0900   11.9090   26.2240 C.3   210  VAL210      0.0020
      8  N        108.6880   11.6720   24.3790 N.am  211  THR211     -0.1939
      9  CA       109.3580   10.6660   23.5850 C.3   211  THR211      0.2028
     10  C        109.9750    9.6230   24.5170 C.2   211  THR211      0.2643
     11  O        110.1420    9.8300   25.7060 O.2   211  THR211     -0.2714
     12  CB       110.4330   11.2340   22.7230 C.3   211  THR211      0.1808
     13  OG1      111.3950   11.8290   23.5650 O.3   211  THR211     -0.2208
     14  CG2      109.8970   12.2180   21.6440 C.3   211  THR211      0.0379
     15  N        110.2850    8.4810   23.9810 N.am  212  GLY212     -0.1940
     16  CA       111.0660    7.4960   24.7480 C.3   212  GLY212      0.1999
     17  C        110.1930    6.3440   25.1870 C.2   212  GLY212      0.2481
     18  O        109.0200    6.2780   24.8010 O.2   212  GLY212     -0.2729
     19  N        110.7740    5.3920   25.9330 N.am  213  PRO213     -0.2715
     20  CA       110.0400    4.2140   26.3890 C.3   213  PRO213      0.1536
     21  C        108.8750    4.5740   27.3060 C.2   213  PRO213      0.2599
     22  O        108.9090    5.5840   28.0620 O.2   213  PRO213     -0.2715
     23  CB       111.1000    3.4030   27.1680 C.3   213  PRO213      0.0310
     24  CG       112.3750    3.9620   26.8170 C.3   213  PRO213      0.0237
     25  CD       112.1850    5.3570   26.3470 C.3   213  PRO213      0.0939
     26  N        107.7800    3.8290   27.1610 N.am  214  GLY214     -0.1941
     27  CA       106.6630    4.0640   28.0280 C.3   214  GLY214      0.2014
     28  C        105.5880    4.9940   27.5160 C.2   214  GLY214      0.2639
     29  O        104.5360    4.9840   28.0410 O.2   214  GLY214     -0.2714
     30  N        105.8390    5.7670   26.4580 N.am  215  VAL215     -0.1963
     31  CA       104.8790    6.7610   26.0270 C.3   215  VAL215      0.1727
     32  C        103.6190    6.1410   25.5220 C.2   215  VAL215      0.2616
     33  O        102.5440    6.5700   25.8550 O.2   215  VAL215     -0.2715
     34  CB       105.4580    7.6440   24.9310 C.3   215  VAL215      0.0290
     35  CG1      104.3510    8.3950   24.2130 C.3   215  VAL215      0.0023
     36  CG2      106.5440    8.6120   25.5540 C.3   215  VAL215      0.0023
     37  N        103.7100    5.0810   24.7110 N.am  216  LEU216     -0.1963
     38  CA       102.5050    4.5000   24.2020 C.3   216  LEU216      0.1728
     39  C        101.7970    3.6510   25.2590 C.2   216  LEU216      0.2616
     40  O        100.5860    3.6030   25.3410 O.2   216  LEU216     -0.2715
     41  CB       102.8370    3.6080   22.9670 C.3   216  LEU216      0.0311
     42  CG       101.6360    2.8700   22.3270 C.3   216  LEU216      0.0022
     43  CD1      100.5240    3.8650   21.8430 C.3   216  LEU216      0.0001
     44  CD2      102.1940    1.9300   21.2090 C.3   216  LEU216      0.0001
     45  N        102.5550    2.9050   26.0430 N.am  217  ALA217     -0.1977
     46  CA       101.9750    2.1530   27.1440 C.3   217  ALA217      0.1597
     47  C        101.1280    3.0710   28.0680 C.2   217  ALA217      0.2287
     48  O        100.0090    2.7690   28.4090 O.2   217  ALA217     -0.2864
     49  CB       103.0760    1.4220   27.8800 C.3   217  ALA217      0.0319
     50  N         95.1640   -0.4390   15.2590 N.3   232  PHE232     -0.1241
     51  CA        96.1550    0.4740   15.7790 C.3   232  PHE232      0.1605
     52  C         97.3470    0.5710   14.8540 C.2   232  PHE232      0.2264
     53  O         97.8670   -0.4510   14.4100 O.2   232  PHE232     -0.2867
     54  CB        96.6990   -0.0270   17.1220 C.3   232  PHE232      0.0534
     55  CG        97.7330    0.8740   17.7110 C.ar  232  PHE232     -0.0203
     56  CD1       97.4340    1.6600   18.7890 C.ar  232  PHE232     -0.0042
     57  CD2       98.9780    1.0260   17.1110 C.ar  232  PHE232     -0.0042
     58  CE1       98.3810    2.5320   19.2890 C.ar  232  PHE232     -0.0003
     59  CE2       99.9290    1.9400   17.6000 C.ar  232  PHE232     -0.0003
     60  CZ        99.6160    2.6720   18.7090 C.ar  232  PHE232     -0.0000
     61  N        101.0260    3.2190   14.2330 N.3   234  SER234     -0.1217
     62  CA       101.8440    4.4120   14.4370 C.3   234  SER234      0.1889
     63  C        102.1690    5.0370   13.0700 C.2   234  SER234      0.2288
     64  O        102.2640    4.3470   12.1000 O.2   234  SER234     -0.2866
     65  CB       103.1360    4.0780   15.1780 C.3   234  SER234      0.2089
     66  OG       103.9200    3.1210   14.4430 O.3   234  SER234     -0.2183
     67  N        106.0810   11.0250   16.1530 N.3   244  TYR244     -0.1241
     68  CA       105.1650    9.8760   16.3120 C.3   244  TYR244      0.1605
     69  C        103.7480   10.2770   16.6460 C.2   244  TYR244      0.2264
     70  O        103.5360   10.9960   17.5750 O.2   244  TYR244     -0.2867
     71  CB       105.7200    8.9580   17.4090 C.3   244  TYR244      0.0534
     72  CG       107.0990    8.3970   17.0890 C.ar  244  TYR244     -0.0201
     73  CD1      107.2710    7.3450   16.1660 C.ar  244  TYR244     -0.0009
     74  CD2      108.2220    8.9200   17.6950 C.ar  244  TYR244     -0.0009
     75  CE1      108.5120    6.8680   15.8790 C.ar  244  TYR244      0.0417
     76  CE2      109.4850    8.4470   17.3940 C.ar  244  TYR244      0.0417
     77  CZ       109.5940    7.4140   16.4930 C.ar  244  TYR244      0.1957
     78  OH       110.8150    6.9510   16.2700 O.3   244  TYR244     -0.2866
     79  N         99.6060    8.3230   16.7390 N.3   246  PHE246     -0.1241
     80  CA        98.9880    7.0170   16.8110 C.3   246  PHE246      0.1605
     81  C         97.5760    7.1210   16.3810 C.2   246  PHE246      0.2264
     82  O         96.8470    8.0400   16.8180 O.2   246  PHE246     -0.2867
     83  CB        99.1160    6.4910   18.2720 C.3   246  PHE246      0.0534
     84  CG       100.4850    6.5340   18.7750 C.ar  246  PHE246     -0.0203
     85  CD1      101.3750    5.5530   18.4020 C.ar  246  PHE246     -0.0042
     86  CD2      100.9180    7.5260   19.6640 C.ar  246  PHE246     -0.0042
     87  CE1      102.6960    5.6010   18.8390 C.ar  246  PHE246     -0.0003
     88  CE2      102.2030    7.5580   20.1460 C.ar  246  PHE246     -0.0003
     89  CZ       103.1180    6.6180   19.7210 C.ar  246  PHE246     -0.0000
@<TRIPOS>BOND
     1    64    63    2
     2    63    62    1
     3    61    62    1
     4    53    52    2
     5    62    65    1
     6    66    65    1
     7    52    51    1
     8    50    51    1
     9    51    54    1
    10    75    73   ar
    11    75    77   ar
    12    67    68    1
    13    73    72   ar
    14    78    77    1
    15    68    69    1
    16    68    71    1
    17    81    80    1
    18    81    82    2
    19    77    76   ar
    20    69    70    2
    21    79    80    1
    22    80    83    1
    23    72    71    1
    24    72    74   ar
    25    57    59   ar
    26    57    55   ar
    27    54    55    1
    28    76    74   ar
    29    59    60   ar
    30    55    56   ar
    31    83    84    1
    32    85    84   ar
    33    85    87   ar
    34    60    58   ar
    35    84    86   ar
    36    56    58   ar
    37    87    89   ar
    38    86    88   ar
    39    89    88   ar
    40    44    42    1
    41    14    12    1
    42    43    42    1
    43    42    41    1
    44    12    13    1
    45    12     9    1
    46    41    38    1
    47     4     3    2
    48     9     8    1
    49     9    10    1
    50    15    10   am
    51    15    16    1
    52     3     8   am
    53     3     2    1
    54     1     2    1
    55    38    37    1
    56    38    39    1
    57    35    34    1
    58    10    11    2
    59    37    32   am
    60    16    17    1
    61    18    17    2
    62    34    36    1
    63    34    31    1
    64     2     5    1
    65    17    19   am
    66    39    40    2
    67    39    45   am
    68    32    33    2
    69    32    31    1
    70    19    25    1
    71    19    20    1
    72    31    30    1
    73    45    46    1
    74     7     5    1
    75     5     6    1
    76    25    24    1
    77    20    23    1
    78    20    21    1
    79    30    28   am
    80    24    23    1
    81    46    49    1
    82    46    47    1
    83    26    21   am
    84    26    27    1
    85    21    22    2
    86    28    27    1
    87    28    29    2
    88    47    48    2
