@<TRIPOS>MOLECULE
tmp/3lv2A01.pdb
 115 116 0 0 0
SMALL
GASTEIGER

@<TRIPOS>ATOM
      1  N        -13.4650    9.4550   22.4150 N.3    19  TYR19      -0.1241
      2  CA       -11.9980    9.5550   22.2980 C.3    19  TYR19       0.1605
      3  C        -11.3500   10.3450   23.4400 C.2    19  TYR19       0.2264
      4  O        -11.6270   11.5290   23.6350 O.2    19  TYR19      -0.2867
      5  CB       -11.5630   10.1110   20.9320 C.3    19  TYR19       0.0534
      6  CG       -10.0960    9.8800   20.6360 C.ar   19  TYR19      -0.0201
      7  CD1       -9.1800   10.9260   20.6830 C.ar   19  TYR19      -0.0009
      8  CD2       -9.6220    8.6050   20.3290 C.ar   19  TYR19      -0.0009
      9  CE1       -7.8360   10.7120   20.4230 C.ar   19  TYR19       0.0417
     10  CE2       -8.2840    8.3820   20.0690 C.ar   19  TYR19       0.0417
     11  CZ        -7.3950    9.4370   20.1180 C.ar   19  TYR19       0.1957
     12  OH        -6.0610    9.2140   19.8580 O.3    19  TYR19      -0.2866
     13  N        -19.6390    9.2750    9.8960 N.3    50  TRP50      -0.1227
     14  CA       -19.3670    7.9350   10.4240 C.3    50  TRP50       0.1737
     15  C        -20.1500    6.8440    9.6780 C.2    50  TRP50       0.2595
     16  O        -20.6890    5.9070   10.2700 O.2    50  TRP50      -0.2718
     17  CB       -19.5570    7.8620   11.9350 C.3    50  TRP50       0.0564
     18  CG       -18.3300    8.1560   12.7520 C.ar   50  TRP50       0.0003
     19  CD1      -17.0260    7.9390   12.3940 C.ar   50  TRP50       0.0946
     20  CD2      -18.2920    8.6490   14.1080 C.ar   50  TRP50       0.0152
     21  NE1      -16.1840    8.2960   13.4240 N.ar   50  TRP50      -0.2442
     22  CE2      -16.9350    8.7300   14.4870 C.ar   50  TRP50       0.0810
     23  CE3      -19.2730    9.0420   15.0250 C.ar   50  TRP50       0.0012
     24  CZ2      -16.5320    9.1940   15.7390 C.ar   50  TRP50       0.0191
     25  CZ3      -18.8740    9.4920   16.2760 C.ar   50  TRP50       0.0001
     26  CH2      -17.5110    9.5620   16.6200 C.ar   50  TRP50       0.0015
     27  N        -20.1870    7.0010    8.3610 N.am   51  TRP51      -0.1976
     28  CA       -20.5730    5.9480    7.4170 C.3    51  TRP51       0.1640
     29  C        -22.0800    5.7830    7.3500 C.2    51  TRP51       0.2290
     30  O        -22.5830    4.7460    6.9680 O.2    51  TRP51      -0.2864
     31  CB       -19.8390    4.6190    7.7230 C.3    51  TRP51       0.0576
     32  CG       -18.4480    4.8280    8.2840 C.ar   51  TRP51       0.0006
     33  CD1      -17.6840    5.9720    8.1830 C.ar   51  TRP51       0.0946
     34  CD2      -17.6540    3.8850    9.0360 C.ar   51  TRP51       0.0152
     35  NE1      -16.4880    5.7960    8.8280 N.ar   51  TRP51      -0.2442
     36  CE2      -16.4390    4.5280    9.3570 C.ar   51  TRP51       0.0810
     37  CE3      -17.8470    2.5640    9.4540 C.ar   51  TRP51       0.0012
     38  CZ2      -15.4200    3.8900   10.0820 C.ar   51  TRP51       0.0191
     39  CZ3      -16.8330    1.9330   10.1800 C.ar   51  TRP51       0.0001
     40  CH2      -15.6400    2.5930   10.4800 C.ar   51  TRP51       0.0015
     41  N        -14.0770   -5.1020   15.0430 N.3   143  TYR143     -0.1241
     42  CA       -14.7880   -4.1360   15.8520 C.3   143  TYR143      0.1605
     43  C        -16.2630   -4.4600   15.7690 C.2   143  TYR143      0.2264
     44  O        -16.7940   -4.6310   14.6740 O.2   143  TYR143     -0.2867
     45  CB       -14.5950   -2.6990   15.3540 C.3   143  TYR143      0.0534
     46  CG       -15.4210   -1.7180   16.1830 C.ar  143  TYR143     -0.0201
     47  CD1      -15.0410   -1.4020   17.4720 C.ar  143  TYR143     -0.0009
     48  CD2      -16.5930   -1.1440   15.6840 C.ar  143  TYR143     -0.0009
     49  CE1      -15.7770   -0.5220   18.2540 C.ar  143  TYR143      0.0417
     50  CE2      -17.3360   -0.2500   16.4520 C.ar  143  TYR143      0.0417
     51  CZ       -16.9180    0.0570   17.7380 C.ar  143  TYR143      0.1957
     52  OH       -17.6360    0.9280   18.5360 O.3   143  TYR143     -0.2866
     53  N        -13.5790   -0.2200   11.8490 N.3   212  ALA212     -0.1245
     54  CA       -12.9370    0.5440   12.9340 C.3   212  ALA212      0.1562
     55  C        -11.7050   -0.1270   13.5670 C.2   212  ALA212      0.2260
     56  O        -10.9610    0.5080   14.3220 O.2   212  ALA212     -0.2867
     57  CB       -13.9620    0.9480   14.0140 C.3   212  ALA212      0.0290
     58  N        -26.0010    1.6920   11.1250 N.3   269  LYS269     -0.1245
     59  CA       -25.3720    2.8230   10.4370 C.3   269  LYS269      0.1561
     60  C        -26.1810    3.3530    9.2440 C.2   269  LYS269      0.2260
     61  O        -27.0580    4.1930    9.4240 O.2   269  LYS269     -0.2867
     62  CB       -23.9100    2.5200   10.0620 C.3   269  LYS269      0.0271
     63  CG       -22.9630    2.4490   11.2570 C.3   269  LYS269      0.0035
     64  CD       -21.5310    2.6340   10.8220 C.3   269  LYS269      0.0206
     65  CE       -20.5980    2.9710   11.9910 C.3   269  LYS269      0.1093
     66  NZ       -20.0000    1.7370   12.6060 N.3   269  LYS269     -0.1314
     67  N         -4.0870   14.5270   14.2610 N.3   369  LEU369     -0.1245
     68  CA        -5.3550   15.1960   14.0290 C.3   369  LEU369      0.1561
     69  C         -5.2540   16.7360   14.0560 C.2   369  LEU369      0.2260
     70  O         -5.9580   17.4130   13.3170 O.2   369  LEU369     -0.2867
     71  CB        -6.3570   14.7090   15.0750 C.3   369  LEU369      0.0270
     72  CG        -7.6520   14.0470   14.6050 C.3   369  LEU369      0.0019
     73  CD1       -7.3600   12.9550   13.5830 C.3   369  LEU369      0.0001
     74  CD2       -8.4170   13.4800   15.7940 C.3   369  LEU369      0.0001
     75  N        -11.8470   12.7590    9.0240 N.3   384  ARG384     -0.1231
     76  CA       -11.4680   12.3630   10.3630 C.3   384  ARG384      0.1679
     77  C        -10.6360   11.0820   10.3040 C.2   384  ARG384      0.2434
     78  O        -11.1750    9.9850   10.2510 O.2   384  ARG384     -0.2733
     79  CB       -12.7080   12.1910   11.2310 C.3   384  ARG384      0.0321
     80  CG       -12.3910   11.7710   12.6430 C.3   384  ARG384      0.0489
     81  CD       -13.2780   12.4970   13.6130 C.3   384  ARG384      0.2205
     82  NE       -12.6260   13.6760   14.1710 N.pl3 384  ARG384     -0.0865
     83  CZ       -12.1340   13.7320   15.4030 C.cat 384  ARG384      0.5346
     84  NH1      -11.5690   14.8510   15.8330 N.pl3 384  ARG384      0.1354
     85  NH2      -12.2190   12.6700   16.2020 N.pl3 384  ARG384      0.1354
     86  N         -9.3040   11.2300   10.2810 N.am  385  PRO385     -0.2718
     87  CA        -8.4080   10.0740   10.3550 C.3   385  PRO385      0.1535
     88  C         -8.5190    9.3930   11.7210 C.2   385  PRO385      0.2598
     89  O         -8.9470   10.0170   12.6810 O.2   385  PRO385     -0.2715
     90  CB        -7.0050   10.6920   10.1970 C.3   385  PRO385      0.0310
     91  CG        -7.2320   12.0870    9.6380 C.3   385  PRO385      0.0237
     92  CD        -8.5790   12.5080   10.1780 C.3   385  PRO385      0.0939
     93  N         -8.1460    8.1240   11.7950 N.am  386  PHE386     -0.1974
     94  CA        -7.8980    7.4670   13.0780 C.3   386  PHE386      0.1639
     95  C         -6.6930    6.5490   12.9280 C.2   386  PHE386      0.2290
     96  O         -6.4170    6.0450   11.8340 O.2   386  PHE386     -0.2864
     97  CB        -9.1300    6.7150   13.6000 C.3   386  PHE386      0.0560
     98  CG        -9.4390    5.4390   12.8620 C.ar  386  PHE386     -0.0200
     99  CD1       -9.3080    4.2050   13.4930 C.ar  386  PHE386     -0.0042
    100  CD2       -9.8710    5.4650   11.5470 C.ar  386  PHE386     -0.0042
    101  CE1       -9.6070    3.0210   12.8150 C.ar  386  PHE386     -0.0003
    102  CE2      -10.1680    4.2920   10.8650 C.ar  386  PHE386     -0.0003
    103  CZ       -10.0340    3.0660   11.5050 C.ar  386  PHE386     -0.0000
    104  N         -8.7500    8.1060    5.4020 N.3   391  TYR391     -0.1241
    105  CA        -9.7260    7.3190    4.6710 C.3   391  TYR391      0.1605
    106  C        -11.0310    8.0880    4.4880 C.2   391  TYR391      0.2264
    107  O        -11.3230    9.0410    5.2170 O.2   391  TYR391     -0.2867
    108  CB        -9.9820    5.9720    5.3860 C.3   391  TYR391      0.0534
    109  CG       -10.9460    6.0980    6.5430 C.ar  391  TYR391     -0.0201
    110  CD1      -10.5510    6.6880    7.7380 C.ar  391  TYR391     -0.0009
    111  CD2      -12.2590    5.6580    6.4320 C.ar  391  TYR391     -0.0009
    112  CE1      -11.4320    6.8300    8.7970 C.ar  391  TYR391      0.0417
    113  CE2      -13.1530    5.8020    7.4850 C.ar  391  TYR391      0.0417
    114  CZ       -12.7320    6.3820    8.6620 C.ar  391  TYR391      0.1957
    115  OH       -13.6130    6.5330    9.7080 O.3   391  TYR391     -0.2866
@<TRIPOS>BOND
     1   106   105    1
     2   106   107    2
     3   105   108    1
     4   105   104    1
     5   108   109    1
     6   111   109   ar
     7   111   113   ar
     8   109   110   ar
     9    30    29    2
    10    29    28    1
    11    28    31    1
    12    28    27    1
    13   113   114   ar
    14    31    32    1
    15   110   112   ar
    16    33    32   ar
    17    33    35   ar
    18    32    34   ar
    19    27    15   am
    20   114   112   ar
    21   114   115    1
    22    35    36   ar
    23    75    76    1
    24    34    36   ar
    25    34    37   ar
    26    60    61    2
    27    60    59    1
    28    36    38   ar
    29    37    39   ar
    30    91    92    1
    31    91    90    1
    32    15    16    2
    33    15    14    1
    34    13    14    1
    35    62    59    1
    36    62    63    1
    37    38    40   ar
    38    92    86    1
    39    39    40   ar
    40    90    87    1
    41    78    77    2
    42    86    77   am
    43    86    87    1
    44    77    76    1
    45    87    88    1
    46    76    79    1
    47    14    17    1
    48    59    58    1
    49    64    63    1
    50    64    65    1
    51   102   103   ar
    52   102   100   ar
    53    79    80    1
    54   103   101   ar
    55   100    98   ar
    56    88    93   am
    57    88    89    2
    58    93    94    1
    59    96    95    2
    60    53    54    1
    61    17    18    1
    62    65    66    1
    63    19    18   ar
    64    19    21   ar
    65    80    81    1
    66    18    20   ar
    67   101    99   ar
    68    98    99   ar
    69    98    97    1
    70    95    94    1
    71    54    55    1
    72    54    57    1
    73    94    97    1
    74    70    69    2
    75    21    22   ar
    76    55    56    2
    77    73    72    1
    78    81    82    1
    79    68    69    1
    80    68    67    1
    81    68    71    1
    82    20    22   ar
    83    20    23   ar
    84    82    83    2
    85    22    24   ar
    86    72    71    1
    87    72    74    1
    88    44    43    2
    89    23    25   ar
    90    41    42    1
    91    45    42    1
    92    45    46    1
    93    83    84    1
    94    83    85    1
    95    48    46   ar
    96    48    50   ar
    97    24    26   ar
    98    43    42    1
    99    46    47   ar
   100    25    26   ar
   101    50    51   ar
   102    47    49   ar
   103    51    49   ar
   104    51    52    1
   105    12    11    1
   106    10    11   ar
   107    10     8   ar
   108    11     9   ar
   109     8     6   ar
   110     9     7   ar
   111     6     7   ar
   112     6     5    1
   113     5     2    1
   114     2     1    1
   115     2     3    1
   116     3     4    2
