@<TRIPOS>MOLECULE
tmp/3lv3A00.pdb
 226 218 0 0 0
SMALL
GASTEIGER

@<TRIPOS>ATOM
      1  N         48.6010   17.1110   13.8970 N.3     5  MET5       -0.1245
      2  CA        47.6220   16.9020   12.8300 C.3     5  MET5        0.1570
      3  C         47.6220   15.4170   12.5490 C.2     5  MET5        0.2261
      4  O         48.6880   14.7970   12.5070 O.2     5  MET5       -0.2867
      5  CB        47.9980   17.6830   11.5690 C.3     5  MET5        0.0387
      6  CG        46.9970   17.4810   10.4290 C.3     5  MET5        0.0595
      7  SD        47.1980   18.6770    9.1020 S.3     5  MET5       -0.1393
      8  CE        48.6870   18.0560    8.2560 C.3     5  MET5        0.0692
      9  N         45.4940   12.1320   10.3090 N.3     7  TYR7       -0.1241
     10  CA        44.4630   11.5420    9.4730 C.3     7  TYR7        0.1605
     11  C         44.2310   10.0790    9.8770 C.2     7  TYR7        0.2264
     12  O         45.1940    9.2800    9.9670 O.2     7  TYR7       -0.2867
     13  CB        44.8520   11.6440    7.9900 C.3     7  TYR7        0.0534
     14  CG        44.8450   13.0750    7.4920 C.ar    7  TYR7       -0.0201
     15  CD1       43.6400   13.7260    7.1970 C.ar    7  TYR7       -0.0009
     16  CD2       46.0420   13.7760    7.3180 C.ar    7  TYR7       -0.0009
     17  CE1       43.6330   15.0300    6.7500 C.ar    7  TYR7        0.0417
     18  CE2       46.0480   15.0740    6.8630 C.ar    7  TYR7        0.0417
     19  CZ        44.8390   15.6930    6.5820 C.ar    7  TYR7        0.1957
     20  OH        44.8520   16.9700    6.1240 O.3     7  TYR7       -0.2866
     21  N         42.0220    6.5240    9.0420 N.3     9  HIS9       -0.1241
     22  CA        41.3240    5.8110    7.9570 C.3     9  HIS9        0.1621
     23  C         40.8960    4.4220    8.3880 C.2     9  HIS9        0.2264
     24  O         41.6920    3.6760    8.9900 O.2     9  HIS9       -0.2867
     25  CB        42.2400    5.6400    6.7510 C.3     9  HIS9        0.0745
     26  CG        43.0950    6.8330    6.4420 C.ar    9  HIS9        0.0817
     27  ND1       44.2270    7.1330    7.1550 N.ar    9  HIS9       -0.2268
     28  CD2       43.0060    7.7680    5.4600 C.ar    9  HIS9        0.1154
     29  CE1       44.8010    8.2070    6.6350 C.ar    9  HIS9        0.1986
     30  NE2       44.0870    8.6060    5.6000 N.ar    9  HIS9       -0.2212
     31  N         37.2110    8.1210    6.6540 N.3    24  THR24      -0.1203
     32  CA        38.4180    8.8190    7.0610 C.3    24  THR24       0.1994
     33  C         38.0640   10.1760    7.6340 C.2    24  THR24       0.2617
     34  O         37.1720   10.8810    7.1240 O.2    24  THR24      -0.2717
     35  CB        39.4520    8.9600    5.9030 C.3    24  THR24       0.1784
     36  OG1       40.5560    9.7530    6.3560 O.3    24  THR24      -0.2211
     37  CG2       38.8310    9.6410    4.6580 C.3    24  THR24       0.0376
     38  N         38.7670   10.5340    8.7000 N.am   25  VAL25      -0.1979
     39  CA        38.6050   11.8320    9.3280 C.3    25  VAL25       0.1595
     40  C         39.9790   12.4640    9.5490 C.2    25  VAL25       0.2287
     41  O         40.9910   11.7620    9.6490 O.2    25  VAL25      -0.2864
     42  CB        37.8290   11.7500   10.6740 C.3    25  VAL25       0.0276
     43  CG1       36.3680   11.3510   10.4180 C.3    25  VAL25       0.0022
     44  CG2       38.4930   10.7660   11.6300 C.3    25  VAL25       0.0022
     45  N         38.0220   17.6880    8.8260 N.3    34  VAL34      -0.1245
     46  CA        37.5390   17.1000    7.5540 C.3    34  VAL34       0.1561
     47  C         37.0150   15.6750    7.7550 C.2    34  VAL34       0.2260
     48  O         37.4330   14.9770    8.6900 O.2    34  VAL34      -0.2867
     49  CB        38.6340   17.0920    6.4420 C.3    34  VAL34       0.0252
     50  CG1       38.9880   18.5290    5.9700 C.3    34  VAL34       0.0019
     51  CG2       39.8920   16.3450    6.9090 C.3    34  VAL34       0.0019
     52  N         35.2950   12.1070    5.2340 N.3    36  PHE36      -0.1241
     53  CA        34.8450   11.4620    4.0070 C.3    36  PHE36       0.1605
     54  C         34.2670   10.1010    4.4020 C.2    36  PHE36       0.2264
     55  O         34.8640    9.3810    5.2110 O.2    36  PHE36      -0.2867
     56  CB        36.0420   11.2790    3.0530 C.3    36  PHE36       0.0534
     57  CG        35.7250   10.4950    1.7880 C.ar   36  PHE36      -0.0203
     58  CD1       35.7160    9.0900    1.7970 C.ar   36  PHE36      -0.0042
     59  CD2       35.4500   11.1630    0.5860 C.ar   36  PHE36      -0.0042
     60  CE1       35.4310    8.3510    0.6510 C.ar   36  PHE36      -0.0003
     61  CE2       35.1530   10.4180   -0.5990 C.ar   36  PHE36      -0.0003
     62  CZ        35.1460    9.0130   -0.5530 C.ar   36  PHE36      -0.0000
     63  N         35.1630   14.8610    0.2840 N.3    45  GLU45      -0.1245
     64  CA        35.6210   15.2920    1.5870 C.3    45  GLU45       0.1567
     65  C         34.9090   16.5920    1.9120 C.2    45  GLU45       0.2260
     66  O         34.8000   17.4630    1.0500 O.2    45  GLU45      -0.2867
     67  CB        37.1150   15.5280    1.6540 C.3    45  GLU45       0.0388
     68  CG        37.4970   15.7940    3.0820 C.3    45  GLU45       0.1160
     69  CD        38.9560   15.7570    3.2870 C.2    45  GLU45       0.3649
     70  OE1       39.4530   14.6940    3.6730 O.co2  45  GLU45      -0.2457
     71  OE2       39.5890   16.7950    3.0200 O.co2  45  GLU45      -0.2457
     72  N         41.4310   22.6160   -3.4630 N.3    59  TYR59      -0.1241
     73  CA        41.7360   21.8980   -2.2200 C.3    59  TYR59       0.1605
     74  C         40.7600   20.7120   -2.0470 C.2    59  TYR59       0.2264
     75  O         41.1770   19.5640   -1.8490 O.2    59  TYR59      -0.2867
     76  CB        41.6760   22.8660   -1.0280 C.3    59  TYR59       0.0534
     77  CG        41.9400   22.2470    0.3240 C.ar   59  TYR59      -0.0201
     78  CD1       43.2220   22.2600    0.8760 C.ar   59  TYR59      -0.0009
     79  CD2       40.9050   21.6630    1.0620 C.ar   59  TYR59      -0.0009
     80  CE1       43.4790   21.6780    2.1170 C.ar   59  TYR59       0.0417
     81  CE2       41.1480   21.0620    2.3140 C.ar   59  TYR59       0.0417
     82  CZ        42.4340   21.0740    2.8330 C.ar   59  TYR59       0.1957
     83  OH        42.6940   20.4880    4.0490 O.3    59  TYR59      -0.2866
     84  N         41.2720   17.8520   -4.7050 N.3    62  ARG62      -0.1231
     85  CA        42.4690   17.0360   -4.4250 C.3    62  ARG62       0.1694
     86  C         42.2210   16.0880   -3.2620 C.2    62  ARG62       0.2591
     87  O         42.5640   14.8970   -3.3320 O.2    62  ARG62      -0.2718
     88  CB        43.6610   17.9620   -4.1090 C.3    62  ARG62       0.0321
     89  CG        44.9510   17.2530   -3.7200 C.3    62  ARG62       0.0489
     90  CD        46.0900   18.2720   -3.4310 C.3    62  ARG62       0.2205
     91  NE        47.3650   17.5590   -3.3350 N.pl3  62  ARG62      -0.0865
     92  CZ        47.8090   16.9370   -2.2380 C.cat  62  ARG62       0.5346
     93  NH1       47.0960   16.9390   -1.1280 N.pl3  62  ARG62       0.1354
     94  NH2       48.9720   16.3050   -2.2530 N.pl3  62  ARG62       0.1354
     95  N         41.6380   16.6240   -2.1910 N.am   63  GLU63      -0.1979
     96  CA        41.3680   15.8670   -0.9750 C.3    63  GLU63       0.1602
     97  C         40.4150   14.7160   -1.3250 C.2    63  GLU63       0.2287
     98  O         40.6360   13.5690   -0.9300 O.2    63  GLU63      -0.2864
     99  CB        40.8120   16.7770    0.1340 C.3    63  GLU63       0.0415
    100  CG        41.8180   17.8530    0.6270 C.3    63  GLU63       0.1163
    101  CD        43.2370   17.3140    0.8040 C.2    63  GLU63       0.3649
    102  OE1       43.4100   16.4530    1.6780 O.co2  63  GLU63      -0.2457
    103  OE2       44.1760   17.7450    0.0770 O.co2  63  GLU63      -0.2457
    104  N         39.9150   13.2840   -4.3330 N.3    65  GLN65      -0.1231
    105  CA        40.6240   12.2830   -5.1600 C.3    65  GLN65       0.1698
    106  C         41.4910   11.3580   -4.3170 C.2    65  GLN65       0.2592
    107  O         41.5390   10.1580   -4.5880 O.2    65  GLN65      -0.2718
    108  CB        41.5220   12.9450   -6.2360 C.3    65  GLN65       0.0381
    109  CG        40.7530   13.6410   -7.3580 C.3    65  GLN65       0.0905
    110  CD        41.5270   14.7950   -8.0090 C.2    65  GLN65       0.2608
    111  OE1       42.5870   15.2140   -7.5250 O.2    65  GLN65      -0.2717
    112  NE2       40.9710   15.3360   -9.1000 N.am   65  GLN65      -0.0878
    113  N         42.2100   11.9270   -3.3450 N.am   66  ILE66      -0.1966
    114  CA        43.0150   11.1590   -2.4010 C.3    66  ILE66       0.1727
    115  C         42.1510   10.1790   -1.6030 C.2    66  ILE66       0.2616
    116  O         42.5260    9.0220   -1.4330 O.2    66  ILE66      -0.2715
    117  CB        43.8340   12.0600   -1.4340 C.3    66  ILE66       0.0290
    118  CG1       44.9110   12.8570   -2.2000 C.3    66  ILE66       0.0022
    119  CG2       44.5210   11.1990   -0.3640 C.3    66  ILE66       0.0023
    120  CD1       45.6430   13.9040   -1.3640 C.3    66  ILE66       0.0001
    121  N         41.0120   10.6360   -1.0870 N.am   67  CYS67      -0.1968
    122  CA        40.1480    9.7410   -0.3120 C.3    67  CYS67       0.1712
    123  C         39.6080    8.5740   -1.1590 C.2    67  CYS67       0.2296
    124  O         39.6520    7.4200   -0.7210 O.2    67  CYS67      -0.2864
    125  CB        38.9710   10.5090    0.2940 C.3    67  CYS67       0.0983
    126  SG        39.4420   11.6390    1.5870 S.3    67  CYS67      -0.0798
    127  N         40.9240    7.3590   -3.8800 N.3    69  ALA69      -0.1231
    128  CA        42.0610    6.5300   -4.2790 C.3    69  ALA69       0.1694
    129  C         42.5060    5.6030   -3.1260 C.2    69  ALA69       0.2591
    130  O         42.8880    4.4270   -3.3430 O.2    69  ALA69      -0.2718
    131  CB        43.2500    7.4620   -4.7450 C.3    69  ALA69       0.0304
    132  N         42.4910    6.1530   -1.9140 N.am   70  LYS70      -0.1980
    133  CA        42.8110    5.4090   -0.7050 C.3    70  LYS70       0.1596
    134  C         41.7910    4.3110   -0.4560 C.2    70  LYS70       0.2287
    135  O         42.1780    3.1840   -0.1350 O.2    70  LYS70      -0.2864
    136  CB        42.9280    6.3540    0.5050 C.3    70  LYS70       0.0298
    137  CG        43.0800    5.6490    1.8720 C.3    70  LYS70       0.0038
    138  CD        44.4050    4.9390    2.0060 C.3    70  LYS70       0.0206
    139  CE        44.7440    4.7520    3.4730 C.3    70  LYS70       0.1093
    140  NZ        46.0040    4.0160    3.6820 N.3    70  LYS70      -0.1314
    141  N         48.2120    8.4460   10.1080 N.3    99  TYR99      -0.1241
    142  CA        49.4500    9.1800    9.8690 C.3    99  TYR99       0.1605
    143  C         49.3510   10.6320   10.2650 C.2    99  TYR99       0.2264
    144  O         48.2500   11.1820   10.3730 O.2    99  TYR99      -0.2867
    145  CB        49.9670    9.0230    8.4300 C.3    99  TYR99       0.0534
    146  CG        49.2110    9.7840    7.3450 C.ar   99  TYR99      -0.0201
    147  CD1       49.4640   11.1280    7.0950 C.ar   99  TYR99      -0.0009
    148  CD2       48.3010    9.1240    6.5220 C.ar   99  TYR99      -0.0009
    149  CE1       48.7970   11.8130    6.0700 C.ar   99  TYR99       0.0417
    150  CE2       47.6300    9.7810    5.5250 C.ar   99  TYR99       0.0417
    151  CZ        47.8900   11.1140    5.2880 C.ar   99  TYR99       0.1957
    152  OH        47.1980   11.7550    4.2930 O.3    99  TYR99      -0.2866
    153  N         53.2820    7.0150   10.8170 N.3   114  HIS114     -0.1241
    154  CA        52.5190    6.3230    9.7800 C.3   114  HIS114      0.1621
    155  C         52.3880    4.8870   10.2350 C.2   114  HIS114      0.2264
    156  O         53.3760    4.1490   10.2670 O.2   114  HIS114     -0.2867
    157  CB        53.2270    6.3890    8.4220 C.3   114  HIS114      0.0745
    158  CG        52.4120    5.8280    7.2940 C.ar  114  HIS114      0.0817
    159  ND1       52.3850    4.4850    6.9990 N.ar  114  HIS114     -0.2268
    160  CD2       51.6100    6.4270    6.3830 C.ar  114  HIS114      0.1154
    161  CE1       51.5880    4.2740    5.9670 C.ar  114  HIS114      0.1986
    162  NE2       51.1130    5.4380    5.5660 N.ar  114  HIS114     -0.2212
    163  N         59.7630    8.5090    1.2540 N.3   155  GLN155     -0.1231
    164  CA        58.6870    9.3410    0.7610 C.3   155  GLN155      0.1698
    165  C         57.8160    9.8530    1.9040 C.2   155  GLN155      0.2592
    166  O         57.3630   10.9690    1.8600 O.2   155  GLN155     -0.2718
    167  CB        57.8540    8.5870   -0.2750 C.3   155  GLN155      0.0381
    168  CG        58.6830    8.3270   -1.5280 C.3   155  GLN155      0.0905
    169  CD        57.8970    7.6900   -2.6430 C.2   155  GLN155      0.2608
    170  OE1       57.0670    8.3450   -3.2660 O.2   155  GLN155     -0.2717
    171  NE2       58.1600    6.4120   -2.9140 N.am  155  GLN155     -0.0878
    172  N         57.5950    9.0270    2.9250 N.am  156  LEU156     -0.1980
    173  CA        56.8230    9.4330    4.0960 C.3   156  LEU156      0.1596
    174  C         57.6070   10.4590    4.8800 C.2   156  LEU156      0.2287
    175  O         57.0480   11.4450    5.3770 O.2   156  LEU156     -0.2864
    176  CB        56.5070    8.2300    4.9910 C.3   156  LEU156      0.0297
    177  CG        55.4070    7.3580    4.3960 C.3   156  LEU156      0.0022
    178  CD1       55.1870    6.1180    5.2190 C.3   156  LEU156      0.0001
    179  CD2       54.0740    8.1340    4.2590 C.3   156  LEU156      0.0001
    180  N         57.0960   13.8100    3.1160 N.3   159  TYR159     -0.1241
    181  CA        55.7480   14.2890    3.4310 C.3   159  TYR159      0.1605
    182  C         55.6090   14.8290    4.8690 C.2   159  TYR159      0.2264
    183  O         55.1180   15.9630    5.1030 O.2   159  TYR159     -0.2867
    184  CB        54.6880   13.1860    3.1860 C.3   159  TYR159      0.0534
    185  CG        53.3380   13.6420    3.7040 C.ar  159  TYR159     -0.0201
    186  CD1       52.5570   14.5440    2.9690 C.ar  159  TYR159     -0.0009
    187  CD2       52.8780   13.2470    4.9660 C.ar  159  TYR159     -0.0009
    188  CE1       51.3100   15.0170    3.4750 C.ar  159  TYR159      0.0417
    189  CE2       51.6600   13.7180    5.4750 C.ar  159  TYR159      0.0417
    190  CZ        50.8860   14.5910    4.7180 C.ar  159  TYR159      0.1957
    191  OH        49.6870   15.0420    5.2250 O.3   159  TYR159     -0.2866
    192  N         55.1970   18.8780    3.9490 N.3   163  GLU163     -0.1245
    193  CA        53.7590   19.1320    3.7770 C.3   163  GLU163      0.1567
    194  C         52.9810   19.0850    5.0920 C.2   163  GLU163      0.2260
    195  O         52.1830   19.9890    5.3780 O.2   163  GLU163     -0.2867
    196  CB        53.1480   18.1380    2.7480 C.3   163  GLU163      0.0388
    197  CG        51.6810   18.4100    2.3420 C.3   163  GLU163      0.1160
    198  CD        51.2060   17.6170    1.1160 C.2   163  GLU163      0.3649
    199  OE1       51.9520   16.7490    0.6180 O.co2 163  GLU163     -0.2457
    200  OE2       50.0720   17.8550    0.6500 O.co2 163  GLU163     -0.2457
    201  N         51.2590   22.5110    6.3410 N.3   167  TRP167     -0.1241
    202  CA        49.8110   22.6300    6.3630 C.3   167  TRP167      0.1605
    203  C         49.2970   22.7830    7.7980 C.2   167  TRP167      0.2264
    204  O         48.4120   23.6060    8.0520 O.2   167  TRP167     -0.2867
    205  CB        49.1440   21.4560    5.6180 C.3   167  TRP167      0.0550
    206  CG        49.2570   21.6560    4.1340 C.ar  167  TRP167      0.0003
    207  CD1       50.1990   21.1030    3.3030 C.ar  167  TRP167      0.0946
    208  CD2       48.4090   22.4690    3.3070 C.ar  167  TRP167      0.0152
    209  NE1       49.9980   21.5470    1.9980 N.ar  167  TRP167     -0.2442
    210  CE2       48.9020   22.3800    1.9820 C.ar  167  TRP167      0.0810
    211  CE3       47.2750   23.2610    3.5570 C.ar  167  TRP167      0.0012
    212  CZ2       48.2930   23.0320    0.9170 C.ar  167  TRP167      0.0191
    213  CZ3       46.6760   23.9270    2.4980 C.ar  167  TRP167      0.0001
    214  CH2       47.1920   23.8200    1.1890 C.ar  167  TRP167      0.0015
    215  N         47.0040   25.8250    9.1070 N.3   171  TYR171     -0.1241
    216  CA        45.7110   25.6610    9.8000 C.3   171  TYR171      0.1605
    217  C         45.6800   26.3370   11.1670 C.2   171  TYR171      0.2264
    218  O         44.7210   27.0430   11.4920 O.2   171  TYR171     -0.2867
    219  CB        45.3310   24.1990    9.9410 C.3   171  TYR171      0.0534
    220  CG        45.2360   23.4190    8.6590 C.ar  171  TYR171     -0.0201
    221  CD1       44.7450   23.9970    7.4820 C.ar  171  TYR171     -0.0009
    222  CD2       45.6750   22.0960    8.6180 C.ar  171  TYR171     -0.0009
    223  CE1       44.6680   23.2420    6.3000 C.ar  171  TYR171      0.0417
    224  CE2       45.6020   21.3310    7.4370 C.ar  171  TYR171      0.0417
    225  CZ        45.0990   21.9200    6.2970 C.ar  171  TYR171      0.1957
    226  OH        45.0220   21.1810    5.1490 O.3   171  TYR171     -0.2866
@<TRIPOS>BOND
     1   112   110   am
     2   110   111    2
     3   110   109    1
     4   109   108    1
     5   108   105    1
     6   105   104    1
     7   105   106    1
     8   131   128    1
     9    84    85    1
    10   107   106    2
    11    85    88    1
    12    85    86    1
    13   106   113   am
    14   128   127    1
    15   128   129    1
    16    88    89    1
    17    89    90    1
    18    72    73    1
    19    90    91    1
    20   113   114    1
    21   130   129    2
    22    91    92    2
    23    87    86    2
    24   170   169    2
    25    86    95   am
    26   129   132   am
    27   171   169   am
    28   169   168    1
    29   114   115    1
    30   114   117    1
    31    94    92    1
    32    92    93    1
    33    73    74    1
    34    73    76    1
    35   118   117    1
    36   118   120    1
    37    95    96    1
    38    74    75    2
    39   132   133    1
    40   115   116    2
    41   115   121   am
    42   168   167    1
    43   117   119    1
    44    97    96    1
    45    97    98    2
    46   123   124    2
    47   123   122    1
    48   121   122    1
    49    76    77    1
    50    96    99    1
    51   133   134    1
    52   133   136    1
    53    61    62   ar
    54    61    59   ar
    55    62    60   ar
    56   134   135    2
    57   122   125    1
    58   167   164    1
    59   103   101   ar
    60    99   100    1
    61    63    64    1
    62   125   126    1
    63    77    78   ar
    64    77    79   ar
    65   136   137    1
    66    59    57   ar
    67   199   198   ar
    68   100   101    1
    69   200   198   ar
    70    60    58   ar
    71   164   163    1
    72   164   165    1
    73   101   102   ar
    74    78    80   ar
    75   212   214   ar
    76   212   210   ar
    77    66    65    2
    78    79    81   ar
    79   198   197    1
    80   214   213   ar
    81    64    67    1
    82    64    65    1
    83    67    68    1
    84    57    58   ar
    85    57    56    1
    86   166   165    2
    87   137   138    1
    88   165   172   am
    89   210   209   ar
    90   210   208   ar
    91   209   207   ar
    92   138   139    1
    93    80    82   ar
    94    81    82   ar
    95   197   196    1
    96   213   211   ar
    97   196   193    1
    98    82    83    1
    99   172   173    1
   100   186   188   ar
   101   186   185   ar
   102    71    69   ar
   103    56    53    1
   104    68    69    1
   105   180   181    1
   106   184   181    1
   107   184   185    1
   108    69    70   ar
   109   207   206   ar
   110   208   211   ar
   111   208   206   ar
   112   181   182    1
   113   139   140    1
   114   188   190   ar
   115   185   187   ar
   116   193   192    1
   117   193   194    1
   118    53    54    1
   119    53    52    1
   120   173   174    1
   121   173   176    1
   122   206   205    1
   123   179   177    1
   124   152   151    1
   125   177   176    1
   126   177   178    1
   127    54    55    2
   128    37    35    1
   129   190   191    1
   130   190   189   ar
   131   182   183    2
   132   174   175    2
   133   187   189   ar
   134   194   195    2
   135   226   225    1
   136   151   150   ar
   137   151   149   ar
   138    28    30   ar
   139    28    26   ar
   140   150   148   ar
   141   162   161   ar
   142   162   160   ar
   143    30    29   ar
   144   205   202    1
   145    35    36    1
   146    35    32    1
   147   161   159   ar
   148    50    49    1
   149   149   147   ar
   150    20    19    1
   151   225   223   ar
   152   225   224   ar
   153   223   221   ar
   154   201   202    1
   155   202   203    1
   156   160   158   ar
   157    49    51    1
   158    49    46    1
   159    26    25    1
   160    26    27   ar
   161   148   146   ar
   162    19    17   ar
   163    19    18   ar
   164    29    27   ar
   165    31    32    1
   166    17    15   ar
   167    25    22    1
   168    18    16   ar
   169   159   158   ar
   170    32    33    1
   171   147   146   ar
   172    34    33    2
   173    15    14   ar
   174   158   157    1
   175    16    14   ar
   176   146   145    1
   177   224   222   ar
   178   221   220   ar
   179    14    13    1
   180    46    47    1
   181    46    45    1
   182    33    38   am
   183    47    48    2
   184   203   204    2
   185    22    23    1
   186    22    21    1
   187    13    10    1
   188     8     7    1
   189    23    24    2
   190   157   154    1
   191   145   142    1
   192   222   220   ar
   193   220   219    1
   194    38    39    1
   195     7     6    1
   196   215   216    1
   197    39    40    1
   198    39    42    1
   199    10    11    1
   200    10     9    1
   201    40    41    2
   202   154   155    1
   203   154   153    1
   204   216   219    1
   205   216   217    1
   206   142   141    1
   207   142   143    1
   208    11    12    2
   209   155   156    2
   210   143   144    2
   211    43    42    1
   212     6     5    1
   213    42    44    1
   214   217   218    2
   215     5     2    1
   216     4     3    2
   217     3     2    1
   218     2     1    1
