@<TRIPOS>MOLECULE
tmp/3lv8A01.pdb
 166 157 0 0 0
SMALL
GASTEIGER

@<TRIPOS>ATOM
      1  N         57.5750   83.2700   31.1350 N.3    11  GLU11      -0.1245
      2  CA        57.7310   82.3440   30.0230 C.3    11  GLU11       0.1567
      3  C         58.9670   82.7220   29.2020 C.2    11  GLU11       0.2260
      4  O         59.1520   83.8700   28.8060 O.2    11  GLU11      -0.2867
      5  CB        56.4940   82.3730   29.1070 C.3    11  GLU11       0.0388
      6  CG        55.0940   82.4640   29.7870 C.3    11  GLU11       0.1160
      7  CD        54.6510   81.2120   30.5620 C.2    11  GLU11       0.3649
      8  OE1       54.9160   80.0450   30.1440 O.co2  11  GLU11      -0.2457
      9  OE2       53.9810   81.4170   31.5900 O.co2  11  GLU11      -0.2457
     10  N         64.5960   79.4730   32.4850 N.3    15  LYS15      -0.1245
     11  CA        64.6350   78.7250   33.7330 C.3    15  LYS15       0.1561
     12  C         65.2110   77.3210   33.5370 C.2    15  LYS15       0.2260
     13  O         65.8830   76.8140   34.4210 O.2    15  LYS15      -0.2867
     14  CB        63.2470   78.6590   34.3840 C.3    15  LYS15       0.0271
     15  CG        62.6900   80.0230   34.8560 C.3    15  LYS15       0.0035
     16  CD        61.2770   79.8980   35.4380 C.3    15  LYS15       0.0206
     17  CE        60.2430   79.4660   34.4190 C.3    15  LYS15       0.1093
     18  NZ        60.0820   80.4850   33.3060 N.3    15  LYS15      -0.1314
     19  N         57.0880   73.0260   39.3190 N.3    39  GLU39      -0.1231
     20  CA        55.7270   73.3890   39.6910 C.3    39  GLU39       0.1684
     21  C         54.9290   74.0830   38.6010 C.2    39  GLU39       0.2438
     22  O         55.4680   74.7910   37.7790 O.2    39  GLU39      -0.2733
     23  CB        55.7100   74.2950   40.9290 C.3    39  GLU39       0.0402
     24  CG        56.1290   73.5900   42.1960 C.3    39  GLU39       0.1161
     25  CD        56.0440   74.4620   43.4090 C.2    39  GLU39       0.3649
     26  OE1       55.0700   75.2380   43.5210 O.co2  39  GLU39      -0.2457
     27  OE2       56.9350   74.3240   44.2770 O.co2  39  GLU39      -0.2457
     28  N         53.6260   73.7980   38.5500 N.am   40  PRO40      -0.2653
     29  CA        52.9630   72.7900   39.3970 C.3    40  PRO40       0.1628
     30  C         53.3370   71.4260   38.9040 C.2    40  PRO40       0.2315
     31  O         53.5400   71.2540   37.7030 O.2    40  PRO40      -0.2861
     32  CB        51.4630   72.9990   39.1390 C.2    40  PRO40      -0.0016
     33  CG        51.3790   73.9160   38.0210 C.2    40  PRO40      -0.0072
     34  CD        52.7030   74.4650   37.6260 C.3    40  PRO40       0.1203
     35  N         48.5480   70.0000   37.3810 N.3    50  ARG50      -0.1245
     36  CA        49.2630   70.7950   36.3620 C.3    50  ARG50       0.1563
     37  C         48.5070   70.7380   35.0140 C.2    50  ARG50       0.2260
     38  O         48.3170   71.7570   34.3390 O.2    50  ARG50      -0.2867
     39  CB        50.6640   70.2160   36.1820 C.3    50  ARG50       0.0307
     40  CG        51.5040   70.8850   35.1420 C.3    50  ARG50       0.0489
     41  CD        52.8250   70.1770   34.9100 C.3    50  ARG50       0.2205
     42  NE        53.6140   70.8340   33.8740 N.pl3  50  ARG50      -0.0865
     43  CZ        54.4250   71.8750   34.0820 C.cat  50  ARG50       0.5346
     44  NH1       54.5720   72.3920   35.2920 N.pl3  50  ARG50       0.1354
     45  NH2       55.1040   72.4010   33.0660 N.pl3  50  ARG50       0.1354
     46  N         45.3860   72.8420   35.0250 N.3    53  VAL53      -0.1231
     47  CA        45.6840   74.2710   34.9100 C.3    53  VAL53       0.1692
     48  C         46.1440   74.6960   33.5140 C.2    53  VAL53       0.2591
     49  O         45.7970   75.7900   33.0360 O.2    53  VAL53      -0.2718
     50  CB        46.7540   74.6790   35.9620 C.3    53  VAL53       0.0266
     51  CG1       47.2390   76.1150   35.7290 C.3    53  VAL53       0.0020
     52  CG2       46.1380   74.5220   37.3450 C.3    53  VAL53       0.0020
     53  N         46.9270   73.8420   32.8560 N.am   54  LYS54      -0.1980
     54  CA        47.4640   74.1640   31.5430 C.3    54  LYS54       0.1596
     55  C         46.5380   73.8960   30.3600 C.2    54  LYS54       0.2287
     56  O         46.6160   74.5880   29.3400 O.2    54  LYS54      -0.2864
     57  CB        48.7590   73.3840   31.2820 C.3    54  LYS54       0.0298
     58  CG        49.9390   73.7590   32.1470 C.3    54  LYS54       0.0038
     59  CD        51.1160   72.8040   31.8610 C.3    54  LYS54       0.0206
     60  CE        51.8000   73.0240   30.5160 C.3    54  LYS54       0.1093
     61  NZ        52.7350   74.1660   30.6270 N.3    54  LYS54      -0.1314
     62  N         46.6940   75.3800   41.8870 N.3    71  VAL71      -0.1245
     63  CA        48.1510   75.4870   41.9760 C.3    71  VAL71       0.1561
     64  C         48.6220   75.3000   43.4150 C.2    71  VAL71       0.2260
     65  O         49.6820   74.6940   43.6490 O.2    71  VAL71      -0.2867
     66  CB        48.7770   76.7370   41.3180 C.3    71  VAL71       0.0252
     67  CG1       48.4390   76.7430   39.7980 C.3    71  VAL71       0.0019
     68  CG2       48.3280   78.0510   41.9560 C.3    71  VAL71       0.0019
     69  N         51.0660   72.4430   45.0190 N.3    75  ARG75      -0.1245
     70  CA        52.2170   72.8770   45.8190 C.3    75  ARG75       0.1563
     71  C         52.2620   72.1600   47.1690 C.2    75  ARG75       0.2260
     72  O         53.3200   71.7120   47.6090 O.2    75  ARG75      -0.2867
     73  CB        52.2250   74.3920   46.0090 C.3    75  ARG75       0.0307
     74  CG        53.4320   74.9430   46.8130 C.3    75  ARG75       0.0489
     75  CD        53.6320   76.4960   46.6900 C.3    75  ARG75       0.2205
     76  NE        53.7570   76.7560   45.2750 N.pl3  75  ARG75      -0.0865
     77  CZ        52.9440   77.5220   44.5530 C.cat  75  ARG75       0.5346
     78  NH1       52.0020   78.2560   45.1350 N.pl3  75  ARG75       0.1354
     79  NH2       53.0880   77.5400   43.2390 N.pl3  75  ARG75       0.1354
     80  N         61.9690   74.3830   39.9300 N.3    96  ASP96      -0.1225
     81  CA        61.6190   75.0990   38.6990 C.3    96  ASP96       0.1805
     82  C         60.2390   75.6820   39.0240 C.2    96  ASP96       0.2598
     83  O         59.2240   74.9960   38.8860 O.2    96  ASP96      -0.2718
     84  CB        61.5850   74.0930   37.5530 C.3    96  ASP96       0.1424
     85  CG        61.2470   74.6870   36.1950 C.2    96  ASP96       0.3668
     86  OD1       60.8670   75.8750   36.0640 O.co2  96  ASP96      -0.2456
     87  OD2       61.3090   73.8830   35.2410 O.co2  96  ASP96      -0.2456
     88  N         60.2410   76.9290   39.5110 N.am   97  ARG97      -0.1966
     89  CA        59.0690   77.6580   40.0160 C.3    97  ARG97       0.1729
     90  C         58.6370   77.2070   41.4130 C.2    97  ARG97       0.2616
     91  O         58.8240   76.0540   41.8190 O.2    97  ARG97      -0.2715
     92  CB        57.8420   77.6130   39.0900 C.3    97  ARG97       0.0348
     93  CG        58.0370   78.1880   37.7050 C.3    97  ARG97       0.0492
     94  CD        56.7070   78.2200   36.9660 C.3    97  ARG97       0.2205
     95  NE        56.7690   78.8380   35.6500 N.pl3  97  ARG97      -0.0865
     96  CZ        56.7030   80.1470   35.4140 C.cat  97  ARG97       0.5346
     97  NH1       56.7530   80.5750   34.1740 N.pl3  97  ARG97       0.1354
     98  NH2       56.5940   81.0170   36.4070 N.pl3  97  ARG97       0.1354
     99  N         58.0590   78.1360   42.1410 N.am   98  HIS98      -0.1973
    100  CA        57.5140   77.8690   43.4680 C.3    98  HIS98       0.1656
    101  C         56.4710   78.9670   43.7170 C.2    98  HIS98       0.2291
    102  O         55.8640   79.4860   42.7610 O.2    98  HIS98      -0.2864
    103  CB        58.6170   77.7610   44.5350 C.3    98  HIS98       0.0771
    104  CG        58.1240   77.3770   45.9010 C.ar   98  HIS98       0.0820
    105  ND1       57.4800   76.1840   46.1570 N.ar   98  HIS98      -0.2267
    106  CD2       58.2410   78.0030   47.0930 C.ar   98  HIS98       0.1154
    107  CE1       57.1780   76.1220   47.4410 C.ar   98  HIS98       0.1986
    108  NE2       57.6280   77.2110   48.0310 N.ar   98  HIS98      -0.2212
    109  N         55.6040   82.3270   41.7280 N.3   101  SER101     -0.1202
    110  CA        54.7790   82.2130   40.5250 C.3   101  SER101      0.2020
    111  C         53.2980   82.4330   40.8310 C.2   101  SER101      0.2619
    112  O         52.6140   83.0650   40.0310 O.2   101  SER101     -0.2717
    113  CB        54.9590   80.8520   39.8560 C.3   101  SER101      0.2103
    114  OG        56.2250   80.7590   39.2140 O.3   101  SER101     -0.2182
    115  N         52.7860   81.9040   41.9520 N.am  102  SER102     -0.1951
    116  CA        51.3930   82.1890   42.3190 C.3   102  SER102      0.1924
    117  C         51.2180   83.6740   42.5750 C.2   102  SER102      0.2314
    118  O         50.2630   84.2760   42.1100 O.2   102  SER102     -0.2863
    119  CB        50.9180   81.3960   43.5300 C.3   102  SER102      0.2116
    120  OG        50.8630   80.0070   43.2180 O.3   102  SER102     -0.2180
    121  N         51.4710   85.3720   38.8770 N.3   105  TYR105     -0.1227
    122  CA        50.4330   85.0140   37.9190 C.3   105  TYR105      0.1736
    123  C         49.0300   85.1410   38.4890 C.2   105  TYR105      0.2595
    124  O         48.1680   85.7420   37.8660 O.2   105  TYR105     -0.2718
    125  CB        50.6520   83.6060   37.3980 C.3   105  TYR105      0.0548
    126  CG        51.8210   83.4730   36.4370 C.ar  105  TYR105     -0.0200
    127  CD1       51.6170   83.2410   35.0840 C.ar  105  TYR105     -0.0009
    128  CD2       53.1260   83.5960   36.8790 C.ar  105  TYR105     -0.0009
    129  CE1       52.7040   83.1150   34.1940 C.ar  105  TYR105      0.0417
    130  CE2       54.2010   83.4820   36.0120 C.ar  105  TYR105      0.0417
    131  CZ        53.9960   83.2570   34.6760 C.ar  105  TYR105      0.1957
    132  OH        55.0990   83.1020   33.8480 O.3   105  TYR105     -0.2866
    133  N         48.8010   84.5700   39.6600 N.am  106  GLN106     -0.1979
    134  CA        47.4710   84.6430   40.2620 C.3   106  GLN106      0.1601
    135  C         47.2420   85.9660   40.9820 C.2   106  GLN106      0.2287
    136  O         46.1680   86.5790   40.8630 O.2   106  GLN106     -0.2864
    137  CB        47.2190   83.4410   41.1610 C.3   106  GLN106      0.0394
    138  CG        46.8440   82.2010   40.3900 C.3   106  GLN106      0.0908
    139  CD        47.9800   81.6340   39.5890 C.2   106  GLN106      0.2608
    140  OE1       49.0570   81.3460   40.1380 O.2   106  GLN106     -0.2717
    141  NE2       47.7550   81.4570   38.2760 N.am  106  GLN106     -0.0878
    142  N         49.6150   76.9180   25.7880 N.3   149  ASP149     -0.1239
    143  CA        48.6220   76.4610   26.7570 C.3   149  ASP149      0.1674
    144  C         47.7090   77.6200   27.1590 C.2   149  ASP149      0.2266
    145  O         47.8750   78.7600   26.6790 O.2   149  ASP149     -0.2867
    146  CB        49.2680   75.7700   27.9760 C.3   149  ASP149      0.1410
    147  CG        50.0090   76.7200   28.8920 C.2   149  ASP149      0.3668
    148  OD1       49.6690   77.9260   28.9690 O.co2 149  ASP149     -0.2456
    149  OD2       50.9480   76.2600   29.5760 O.co2 149  ASP149     -0.2456
    150  N         47.2640   79.4780   29.7860 N.3   151  ILE151     -0.1231
    151  CA        47.8680   80.6450   30.4260 C.3   151  ILE151      0.1692
    152  C         48.7490   81.4340   29.4370 C.2   151  ILE151      0.2591
    153  O         48.6710   82.6690   29.3710 O.2   151  ILE151     -0.2718
    154  CB        48.6610   80.2290   31.6780 C.3   151  ILE151      0.0266
    155  CG1       47.7150   79.5900   32.6850 C.3   151  ILE151      0.0019
    156  CG2       49.3680   81.4710   32.3100 C.3   151  ILE151      0.0020
    157  CD1       48.3990   78.9750   33.8840 C.3   151  ILE151      0.0001
    158  N         49.5370   80.7160   28.6400 N.am  152  GLU152     -0.1979
    159  CA        50.4120   81.3290   27.6530 C.3   152  GLU152      0.1602
    160  C         49.6050   82.1340   26.6450 C.2   152  GLU152      0.2287
    161  O         50.1430   83.0540   26.0070 O.2   152  GLU152     -0.2864
    162  CB        51.2190   80.2660   26.9180 C.3   152  GLU152      0.0415
    163  CG        52.2560   79.5830   27.8150 C.3   152  GLU152      0.1163
    164  CD        52.8610   78.3020   27.2480 C.2   152  GLU152      0.3649
    165  OE1       53.9930   77.9830   27.6550 O.co2 152  GLU152     -0.2457
    166  OE2       52.2410   77.6210   26.4120 O.co2 152  GLU152     -0.2457
@<TRIPOS>BOND
     1   142   143    1
     2   161   160    2
     3   166   164   ar
     4   160   159    1
     5   145   144    2
     6   143   144    1
     7   143   146    1
     8   162   159    1
     9   162   163    1
    10   164   165   ar
    11   164   163    1
    12   159   158    1
    13   146   147    1
    14   158   152   am
    15     4     3    2
    16   147   148   ar
    17   147   149   ar
    18     5     6    1
    19     5     2    1
    20     3     2    1
    21    56    55    2
    22   153   152    2
    23   152   151    1
    24   150   151    1
    25     6     7    1
    26     2     1    1
    27     8     7   ar
    28    55    54    1
    29   151   154    1
    30    60    61    1
    31    60    59    1
    32     7     9   ar
    33    57    54    1
    34    57    58    1
    35    54    53    1
    36   154   156    1
    37   154   155    1
    38    59    58    1
    39    10    11    1
    40   155   157    1
    41    53    48   am
    42    49    48    2
    43    45    43    1
    44    18    17    1
    45    48    47    1
    46    12    11    1
    47    12    13    2
    48    11    14    1
    49   132   131    1
    50    42    43    2
    51    42    41    1
    52    43    44    1
    53    97    96    1
    54   129   131   ar
    55   129   127   ar
    56    38    37    2
    57    14    15    1
    58    17    16    1
    59   131   130   ar
    60    15    16    1
    61    47    46    1
    62    47    50    1
    63    41    40    1
    64    37    36    1
    65   127   126   ar
    66    40    39    1
    67    87    85   ar
    68    96    95    2
    69    96    98    1
    70    95    94    1
    71    51    50    1
    72    50    52    1
    73   130   128   ar
    74    86    85   ar
    75    39    36    1
    76    85    84    1
    77    36    35    1
    78   126   128   ar
    79   126   125    1
    80    94    93    1
    81   125   122    1
    82    84    81    1
    83    34    33    1
    84    34    28    1
    85    31    30    2
    86    93    92    1
    87    22    21    2
    88   124   123    2
    89   122   123    1
    90   122   121    1
    91    33    32    2
    92   141   139   am
    93   123   133   am
    94    28    21   am
    95    28    29    1
    96    21    20    1
    97    81    82    1
    98    81    80    1
    99    83    82    2
   100    30    29    1
   101    82    88   am
   102    92    89    1
   103    32    29    1
   104   114   113    1
   105    19    20    1
   106    88    89    1
   107   139   140    2
   108   139   138    1
   109   133   134    1
   110    20    23    1
   111    67    66    1
   112   113   110    1
   113    89    90    1
   114   112   111    2
   115   134   135    1
   116   134   137    1
   117   138   137    1
   118   110   111    1
   119   110   109    1
   120   111   115   am
   121   136   135    2
   122    23    24    1
   123    66    68    1
   124    66    63    1
   125    90    91    2
   126    90    99   am
   127    62    63    1
   128   115   116    1
   129    63    64    1
   130   118   117    2
   131    99   100    1
   132    24    25    1
   133   116   117    1
   134   116   119    1
   135   102   101    2
   136   120   119    1
   137    79    77    1
   138    25    26   ar
   139    25    27   ar
   140    64    65    2
   141   100   101    1
   142   100   103    1
   143   103   104    1
   144    77    78    1
   145    77    76    2
   146    69    70    1
   147    76    75    1
   148    70    73    1
   149    70    71    1
   150   104   105   ar
   151   104   106   ar
   152    73    74    1
   153   105   107   ar
   154    75    74    1
   155   106   108   ar
   156    71    72    2
   157   107   108   ar
