@<TRIPOS>MOLECULE
tmp/3lv8A00.pdb
 98 92 0 0 0
SMALL
GASTEIGER

@<TRIPOS>ATOM
      1  N         57.5750   83.2700   31.1350 N.3    11  GLU11      -0.1231
      2  CA        57.7310   82.3440   30.0230 C.3    11  GLU11       0.1699
      3  C         58.9670   82.7220   29.2020 C.2    11  GLU11       0.2593
      4  O         59.1520   83.8700   28.8060 O.2    11  GLU11      -0.2718
      5  CB        56.4940   82.3730   29.1070 C.3    11  GLU11       0.0402
      6  CG        55.0940   82.4640   29.7870 C.3    11  GLU11       0.1161
      7  CD        54.6510   81.2120   30.5620 C.2    11  GLU11       0.3649
      8  OE1       54.9160   80.0450   30.1440 O.co2  11  GLU11      -0.2457
      9  OE2       53.9810   81.4170   31.5900 O.co2  11  GLU11      -0.2457
     10  N         59.8400   81.7520   28.9740 N.am   12  GLY12      -0.1942
     11  CA        61.0280   81.9910   28.1630 C.3    12  GLY12       0.2014
     12  C         62.1630   82.7800   28.7900 C.2    12  GLY12       0.2639
     13  O         63.0860   83.1690   28.0980 O.2    12  GLY12      -0.2714
     14  N         62.1260   83.0060   30.1000 N.am   13  ALA13      -0.1963
     15  CA        63.2190   83.7450   30.7500 C.3    13  ALA13       0.1728
     16  C         64.5070   82.9290   30.6920 C.2    13  ALA13       0.2617
     17  O         65.6020   83.4890   30.6240 O.2    13  ALA13      -0.2715
     18  CB        62.8810   84.0830   32.1840 C.3    13  ALA13       0.0334
     19  N         64.3620   81.6080   30.7060 N.am   14  GLY14      -0.1940
     20  CA        65.5030   80.6940   30.6040 C.3    14  GLY14       0.2014
     21  C         65.7040   79.8330   31.8370 C.2    14  GLY14       0.2639
     22  O         66.8520   79.4650   32.1780 O.2    14  GLY14      -0.2714
     23  N         64.5960   79.4730   32.4850 N.am   15  LYS15      -0.1963
     24  CA        64.6350   78.7250   33.7330 C.3    15  LYS15       0.1728
     25  C         65.2110   77.3210   33.5370 C.2    15  LYS15       0.2617
     26  O         65.8830   76.8140   34.4210 O.2    15  LYS15      -0.2715
     27  CB        63.2470   78.6590   34.3840 C.3    15  LYS15       0.0311
     28  CG        62.6900   80.0230   34.8560 C.3    15  LYS15       0.0038
     29  CD        61.2770   79.8980   35.4380 C.3    15  LYS15       0.0206
     30  CE        60.2430   79.4660   34.4190 C.3    15  LYS15       0.1093
     31  NZ        60.0820   80.4850   33.3060 N.3    15  LYS15      -0.1314
     32  N         64.9820   76.7160   32.3720 N.am   16  SER16      -0.1936
     33  CA        65.4730   75.3640   32.1010 C.3    16  SER16       0.2055
     34  C         66.9980   75.2780   32.0740 C.2    16  SER16       0.2643
     35  O         67.5800   74.4040   32.7190 O.2    16  SER16      -0.2714
     36  CB        64.8640   74.7870   30.8160 C.3    16  SER16       0.2130
     37  OG        65.5000   75.2560   29.6270 O.3    16  SER16      -0.2179
     38  N         67.6560   76.1590   31.3300 N.am   17  THR17      -0.1950
     39  CA        69.1150   76.1490   31.3160 C.3    17  THR17       0.1897
     40  C         69.6610   76.6670   32.6510 C.2    17  THR17       0.2313
     41  O         70.7590   76.2920   33.0600 O.2    17  THR17      -0.2863
     42  CB        69.7020   76.9610   30.1370 C.3    17  THR17       0.1794
     43  OG1       68.9260   78.1410   29.9610 O.3    17  THR17      -0.2208
     44  CG2       69.6490   76.1550   28.8470 C.3    17  THR17       0.0378
     45  N         61.9690   74.3830   39.9300 N.3    96  ASP96      -0.1239
     46  CA        61.6190   75.0990   38.6990 C.3    96  ASP96       0.1674
     47  C         60.2390   75.6820   39.0240 C.2    96  ASP96       0.2266
     48  O         59.2240   74.9960   38.8860 O.2    96  ASP96      -0.2867
     49  CB        61.5850   74.0930   37.5530 C.3    96  ASP96       0.1410
     50  CG        61.2470   74.6870   36.1950 C.2    96  ASP96       0.3668
     51  OD1       60.8670   75.8750   36.0640 O.co2  96  ASP96      -0.2456
     52  OD2       61.3090   73.8830   35.2410 O.co2  96  ASP96      -0.2456
     53  N         60.7970   83.6540   22.4600 N.3   146  ARG146     -0.1245
     54  CA        61.6280   82.4780   22.6730 C.3   146  ARG146      0.1563
     55  C         60.7210   81.2770   22.8960 C.2   146  ARG146      0.2260
     56  O         61.0630   80.1600   22.5240 O.2   146  ARG146     -0.2867
     57  CB        62.5010   82.6620   23.9030 C.3   146  ARG146      0.0307
     58  CG        63.4930   83.7940   23.8300 C.3   146  ARG146      0.0489
     59  CD        64.1100   83.9710   25.1990 C.3   146  ARG146      0.2205
     60  NE        65.1540   84.9870   25.2430 N.pl3 146  ARG146     -0.0865
     61  CZ        65.8170   85.3250   26.3460 C.cat 146  ARG146      0.5346
     62  NH1       65.5320   84.7390   27.4930 N.pl3 146  ARG146      0.1354
     63  NH2       66.7620   86.2530   26.3090 N.pl3 146  ARG146      0.1354
     64  N         67.8050   88.4920   32.3230 N.3   181  ALA181     -0.1245
     65  CA        67.7010   87.3850   31.3780 C.3   181  ALA181      0.1562
     66  C         67.6570   87.7850   29.9140 C.2   181  ALA181      0.2260
     67  O         67.4720   86.9270   29.0590 O.2   181  ALA181     -0.2867
     68  CB        66.4820   86.5340   31.7170 C.3   181  ALA181      0.0290
     69  N         70.0690   88.8870   28.1980 N.3   183  GLN183     -0.1231
     70  CA        71.4040   88.7290   27.6530 C.3   183  GLN183      0.1698
     71  C         71.5200   87.4210   26.8740 C.2   183  GLN183      0.2593
     72  O         70.5690   86.6640   26.7820 O.2   183  GLN183     -0.2718
     73  CB        72.4180   88.7280   28.7890 C.3   183  GLN183      0.0381
     74  CG        72.2680   89.8670   29.7860 C.3   183  GLN183      0.0905
     75  CD        73.2460   89.7340   30.9330 C.2   183  GLN183      0.2608
     76  OE1       74.4130   90.1210   30.8230 O.2   183  GLN183     -0.2717
     77  NE2       72.7800   89.1770   32.0380 N.am  183  GLN183     -0.0878
     78  N         72.6910   87.1570   26.3070 N.am  184  SER184     -0.1938
     79  CA        72.9060   85.9020   25.6000 C.3   184  SER184      0.2055
     80  C         72.8270   84.7850   26.6380 C.2   184  SER184      0.2642
     81  O         73.0440   85.0410   27.8230 O.2   184  SER184     -0.2714
     82  CB        74.2850   85.8900   24.9420 C.3   184  SER184      0.2130
     83  OG        75.3160   85.9460   25.9210 O.3   184  SER184     -0.2179
     84  N         72.5200   83.5580   26.2160 N.am  185  ILE185     -0.1977
     85  CA        72.4870   82.4390   27.1620 C.3   185  ILE185      0.1596
     86  C         73.8010   82.3880   27.9200 C.2   185  ILE185      0.2287
     87  O         73.8210   82.1600   29.1190 O.2   185  ILE185     -0.2864
     88  CB        72.2720   81.0690   26.4820 C.3   185  ILE185      0.0276
     89  CG1       70.8320   80.9240   25.9790 C.3   185  ILE185      0.0022
     90  CG2       72.5480   79.9360   27.4750 C.3   185  ILE185      0.0022
     91  CD1       70.5770   79.6350   25.1570 C.3   185  ILE185      0.0001
     92  N         73.8520   85.1800   30.6390 N.3   188  VAL188     -0.1245
     93  CA        72.8830   84.8720   31.6950 C.3   188  VAL188      0.1561
     94  C         73.4680   83.7470   32.5540 C.2   188  VAL188      0.2260
     95  O         73.5450   83.8550   33.7810 O.2   188  VAL188     -0.2867
     96  CB        71.5160   84.4470   31.1390 C.3   188  VAL188      0.0252
     97  CG1       70.5930   84.0130   32.2960 C.3   188  VAL188      0.0019
     98  CG2       70.8750   85.5880   30.3330 C.3   188  VAL188      0.0019
@<TRIPOS>BOND
     1    53    54    1
     2    56    55    2
     3    54    55    1
     4    54    57    1
     5    58    57    1
     6    58    59    1
     7    82    79    1
     8    82    83    1
     9    91    89    1
    10    59    60    1
    11    60    61    2
    12    79    78    1
    13    79    80    1
    14    89    88    1
    15    84    80   am
    16    84    85    1
    17    78    71   am
    18    63    61    1
    19    61    62    1
    20    88    85    1
    21    88    90    1
    22    80    81    2
    23    72    71    2
    24    71    70    1
    25    85    86    1
    26    70    69    1
    27    70    73    1
    28    86    87    2
    29    13    12    2
    30    11    12    1
    31    11    10    1
    32    73    74    1
    33    12    14   am
    34     4     3    2
    35    44    42    1
    36    10     3   am
    37    67    66    2
    38     5     6    1
    39     5     2    1
    40     3     2    1
    41    37    36    1
    42    74    75    1
    43     6     7    1
    44    66    65    1
    45    43    42    1
    46     2     1    1
    47    14    15    1
    48    42    39    1
    49     8     7   ar
    50    98    96    1
    51     7     9   ar
    52    20    19    1
    53    20    21    1
    54    17    16    2
    55    92    93    1
    56    16    19   am
    57    16    15    1
    58    15    18    1
    59    36    33    1
    60    76    75    2
    61    75    77   am
    62    96    93    1
    63    96    97    1
    64    39    38    1
    65    39    40    1
    66    38    34   am
    67    65    68    1
    68    65    64    1
    69    93    94    1
    70    21    22    2
    71    21    23   am
    72    34    33    1
    73    34    35    2
    74    33    32    1
    75    32    25   am
    76    23    24    1
    77    94    95    2
    78    40    41    2
    79    31    30    1
    80    25    24    1
    81    25    26    2
    82    24    27    1
    83    27    28    1
    84    30    29    1
    85    28    29    1
    86    52    50   ar
    87    51    50   ar
    88    50    49    1
    89    49    46    1
    90    46    47    1
    91    46    45    1
    92    48    47    2
