@<TRIPOS>MOLECULE
tmp/3lvbA00.pdb
 177 172 0 0 0
SMALL
GASTEIGER

@<TRIPOS>ATOM
      1  N        -17.6060   27.4110   15.9460 N.3    66  SER66      -0.1217
      2  CA       -16.4270   27.2100   16.7970 C.3    66  SER66       0.1889
      3  C        -16.4100   28.1580   18.0070 C.2    66  SER66       0.2288
      4  O        -16.9230   29.2710   17.9430 O.2    66  SER66      -0.2866
      5  CB       -15.1390   27.6120   15.9980 C.3    66  SER66       0.2089
      6  OG       -14.8830   26.6780   14.9780 O.3    66  SER66      -0.2183
      7  N         -7.0830   30.3200   19.9460 N.3    86  ARG86      -0.1231
      8  CA        -7.0200   29.0930   19.1480 C.3    86  ARG86       0.1694
      9  C         -8.5170   28.7390   18.9550 C.2    86  ARG86       0.2592
     10  O         -9.2650   28.7700   19.9390 O.2    86  ARG86      -0.2718
     11  CB        -6.4150   27.9190   19.9240 C.3    86  ARG86       0.0321
     12  CG        -4.9040   27.9130   19.7380 C.3    86  ARG86       0.0489
     13  CD        -4.2220   29.0610   20.5150 C.3    86  ARG86       0.2205
     14  NE        -2.8230   28.6360   20.7240 N.pl3  86  ARG86      -0.0865
     15  CZ        -1.8370   29.4510   21.0970 C.cat  86  ARG86       0.5346
     16  NH1       -2.1300   30.7220   21.3850 N.pl3  86  ARG86       0.1354
     17  NH2       -0.5820   28.9750   21.1980 N.pl3  86  ARG86       0.1354
     18  N         -8.9330   28.3250   17.7550 N.am   87  LEU87      -0.1966
     19  CA       -10.3330   27.9410   17.4770 C.3    87  LEU87       0.1728
     20  C        -10.5500   26.4530   17.5890 C.2    87  LEU87       0.2616
     21  O         -9.6630   25.6770   17.2170 O.2    87  LEU87      -0.2715
     22  CB       -10.7420   28.3550   16.0660 C.3    87  LEU87       0.0311
     23  CG       -10.7490   29.8740   15.9200 C.3    87  LEU87       0.0022
     24  CD1      -11.0170   30.1990   14.4730 C.3    87  LEU87       0.0001
     25  CD2      -11.8430   30.5410   16.7630 C.3    87  LEU87       0.0001
     26  N        -11.7170   26.0380   18.1280 N.am   88  TYR88      -0.1960
     27  CA       -12.0010   24.6000   18.2360 C.3    88  TYR88       0.1771
     28  C        -13.4630   24.4160   17.7920 C.2    88  TYR88       0.2620
     29  O        -14.3540   25.1030   18.2890 O.2    88  TYR88      -0.2715
     30  CB       -11.8580   24.0890   19.6580 C.3    88  TYR88       0.0574
     31  CG       -10.4130   24.1020   20.0640 C.ar   88  TYR88      -0.0198
     32  CD1       -9.5730   23.0450   19.7040 C.ar   88  TYR88      -0.0009
     33  CD2       -9.8600   25.2250   20.7210 C.ar   88  TYR88      -0.0009
     34  CE1       -8.1890   23.0600   20.0100 C.ar   88  TYR88       0.0417
     35  CE2       -8.4790   25.2540   21.0570 C.ar   88  TYR88       0.0417
     36  CZ        -7.6670   24.1840   20.6560 C.ar   88  TYR88       0.1957
     37  OH        -6.3220   24.3000   20.9020 O.3    88  TYR88      -0.2866
     38  N        -13.7070   23.5220   16.8410 N.am   89  SER89      -0.1950
     39  CA       -15.0800   23.3050   16.3560 C.3    89  SER89       0.1924
     40  C        -15.8950   22.8010   17.5340 C.2    89  SER89       0.2314
     41  O        -15.4700   21.8810   18.2330 O.2    89  SER89      -0.2863
     42  CB       -15.0180   22.1200   15.3800 C.3    89  SER89       0.2116
     43  OG       -14.2030   22.4500   14.2550 O.3    89  SER89      -0.2180
     44  N        -13.4680   18.6860   21.1940 N.3   107  CYS107     -0.1221
     45  CA       -12.7790   17.4160   20.8670 C.3   107  CYS107      0.1808
     46  C        -11.3180   17.8550   20.5140 C.2   107  CYS107      0.2601
     47  O        -11.0930   18.4780   19.4690 O.2   107  CYS107     -0.2717
     48  CB       -13.5110   16.8030   19.6710 C.3   107  CYS107      0.0970
     49  SG       -12.6210   15.3130   19.1480 S.3   107  CYS107     -0.0800
     50  N        -10.3780   17.6860   21.4480 N.am  108  VAL108     -0.1965
     51  CA        -9.0480   18.2920   21.2950 C.3   108  VAL108      0.1727
     52  C         -7.8980   17.3170   21.2320 C.2   108  VAL108      0.2616
     53  O         -7.7620   16.4740   22.1160 O.2   108  VAL108     -0.2715
     54  CB        -8.8140   19.2250   22.4890 C.3   108  VAL108      0.0290
     55  CG1       -7.4100   19.8340   22.4550 C.3   108  VAL108      0.0023
     56  CG2       -9.8960   20.3180   22.5630 C.3   108  VAL108      0.0023
     57  N         -7.1150   17.4240   20.1680 N.am  109  ARG109     -0.1977
     58  CA        -5.9740   16.5090   20.0390 C.3   109  ARG109      0.1597
     59  C         -4.7490   17.2220   20.6390 C.2   109  ARG109      0.2287
     60  O         -4.4810   18.3730   20.2680 O.2   109  ARG109     -0.2864
     61  CB        -5.7220   16.3570   18.5370 C.3   109  ARG109      0.0334
     62  CG        -4.5720   15.3940   18.2240 C.3   109  ARG109      0.0492
     63  CD        -4.1350   15.5740   16.7640 C.3   109  ARG109      0.2205
     64  NE        -3.4740   16.8490   16.4660 N.pl3 109  ARG109     -0.0865
     65  CZ        -2.1550   17.0360   16.4080 C.cat 109  ARG109      0.5346
     66  NH1       -1.3120   16.0340   16.6500 N.pl3 109  ARG109      0.1354
     67  NH2       -1.6730   18.2400   16.1220 N.pl3 109  ARG109      0.1354
     68  N         -1.1700   18.4430   20.8380 N.3   111  ALA111     -0.1231
     69  CA        -0.0920   18.6360   19.8450 C.3   111  ALA111      0.1694
     70  C          1.2090   18.4830   20.6530 C.2   111  ALA111      0.2592
     71  O          1.5400   19.3490   21.4900 O.2   111  ALA111     -0.2718
     72  CB        -0.1910   19.9990   19.1740 C.3   111  ALA111      0.0304
     73  N          1.8750   17.3360   20.4680 N.am  112  VAL112     -0.1966
     74  CA         3.1060   17.0160   21.1950 C.3   112  VAL112      0.1727
     75  C          4.3300   17.1170   20.2610 C.2   112  VAL112      0.2616
     76  O          4.2300   16.7350   19.0930 O.2   112  VAL112     -0.2715
     77  CB         2.9380   15.6540   21.8320 C.3   112  VAL112      0.0290
     78  CG1        4.2260   15.2580   22.5450 C.3   112  VAL112      0.0023
     79  CG2        1.7910   15.7820   22.8260 C.3   112  VAL112      0.0023
     80  N          5.4460   17.7020   20.7090 N.am  113  TYR113     -0.1974
     81  CA         6.6300   17.8220   19.8410 C.3   113  TYR113      0.1639
     82  C          7.6610   16.7420   20.1350 C.2   113  TYR113      0.2290
     83  O          8.0970   16.5940   21.2830 O.2   113  TYR113     -0.2864
     84  CB         7.3140   19.1760   20.0140 C.3   113  TYR113      0.0560
     85  CG         8.6040   19.2390   19.2230 C.ar  113  TYR113     -0.0198
     86  CD1        9.7920   18.7460   19.7590 C.ar  113  TYR113     -0.0009
     87  CD2        8.6350   19.7630   17.9410 C.ar  113  TYR113     -0.0009
     88  CE1       10.9740   18.7680   19.0520 C.ar  113  TYR113      0.0417
     89  CE2        9.8200   19.8330   17.2330 C.ar  113  TYR113      0.0417
     90  CZ        10.9860   19.3050   17.7900 C.ar  113  TYR113      0.1957
     91  OH        12.2070   19.2950   17.1410 O.3   113  TYR113     -0.2866
     92  N          8.8620   22.1200   25.7410 N.3   124  SER124     -0.1202
     93  CA         8.8270   23.5660   25.5600 C.3   124  SER124      0.2020
     94  C          8.2810   23.8570   24.1700 C.2   124  SER124      0.2619
     95  O          7.9420   25.0040   23.8580 O.2   124  SER124     -0.2717
     96  CB        10.2450   24.1680   25.7140 C.3   124  SER124      0.2103
     97  OG        11.1430   23.7440   24.6920 O.3   124  SER124     -0.2182
     98  N          8.2920   22.8230   23.3270 N.am  125  LYS125     -0.1965
     99  CA         7.7870   22.9430   21.9600 C.3   125  LYS125      0.1728
    100  C          6.3660   22.3850   21.7360 C.2   125  LYS125      0.2616
    101  O          5.8580   22.4430   20.6110 O.2   125  LYS125     -0.2715
    102  CB         8.7750   22.2800   21.0120 C.3   125  LYS125      0.0311
    103  CG        10.1220   22.9070   21.2930 C.3   125  LYS125      0.0038
    104  CD        10.9090   22.9780   20.0380 C.3   125  LYS125      0.0206
    105  CE        12.1620   23.7520   20.3360 C.3   125  LYS125      0.1093
    106  NZ        13.2590   23.0010   19.6870 N.3   125  LYS125     -0.1314
    107  N          5.7630   21.8230   22.7870 N.am  126  ASN126     -0.1958
    108  CA         4.3980   21.2890   22.7140 C.3   126  ASN126      0.1819
    109  C          3.4100   22.4140   22.4180 C.2   126  ASN126      0.2622
    110  O          3.7370   23.5960   22.5530 O.2   126  ASN126     -0.2715
    111  CB         4.0370   20.5960   24.0010 C.3   126  ASN126      0.1195
    112  CG         4.6850   19.2500   24.1030 C.2   126  ASN126      0.2630
    113  OD1        5.4860   18.8350   23.2460 O.2   126  ASN126     -0.2716
    114  ND2        4.3270   18.5390   25.1590 N.am  126  ASN126     -0.0877
    115  N          2.2200   22.0730   21.9180 N.am  127  GLY127     -0.1940
    116  CA         1.2410   23.1250   21.5710 C.3   127  GLY127      0.2014
    117  C          0.6580   23.6100   22.8960 C.2   127  GLY127      0.2639
    118  O          0.3460   22.8310   23.8140 O.2   127  GLY127     -0.2714
    119  N          0.5900   24.9210   23.0120 N.am  128  VAL128     -0.1963
    120  CA         0.1690   25.4640   24.2910 C.3   128  VAL128      0.1727
    121  C         -1.2930   25.1900   24.6160 C.2   128  VAL128      0.2616
    122  O         -1.6070   24.7130   25.6940 O.2   128  VAL128     -0.2715
    123  CB         0.3870   26.9920   24.2820 C.3   128  VAL128      0.0290
    124  CG1       -0.1540   27.6580   25.5560 C.3   128  VAL128      0.0023
    125  CG2        1.8600   27.2030   24.2160 C.3   128  VAL128      0.0023
    126  N         -2.1880   25.6080   23.7320 N.am  129  CYS129     -0.1954
    127  CA        -3.6120   25.4940   24.0580 C.3   129  CYS129      0.1843
    128  C         -4.1210   24.0750   24.1830 C.2   129  CYS129      0.2626
    129  O         -4.9120   23.7530   25.0570 O.2   129  CYS129     -0.2714
    130  CB        -4.4520   26.2990   23.0590 C.3   129  CYS129      0.0997
    131  SG        -6.0550   26.7230   23.8280 S.3   129  CYS129     -0.0797
    132  N         -3.7240   23.2130   23.2650 N.am  130  SER130     -0.1950
    133  CA        -4.2450   21.8640   23.2770 C.3   130  SER130      0.1924
    134  C         -3.8250   21.0990   24.5330 C.2   130  SER130      0.2314
    135  O         -4.6050   20.3130   25.1050 O.2   130  SER130     -0.2863
    136  CB        -3.8270   21.1220   21.9780 C.3   130  SER130      0.2116
    137  OG        -2.4010   21.0710   21.8730 O.3   130  SER130     -0.2180
    138  N        -10.0230   14.9910   14.5700 N.3   170  THR170     -0.1218
    139  CA       -10.9080   15.9080   15.3070 C.3   170  THR170      0.1862
    140  C        -11.8900   16.5810   14.3880 C.2   170  THR170      0.2287
    141  O        -12.7680   17.2630   14.8700 O.2   170  THR170     -0.2866
    142  CB       -10.0850   16.9780   16.0930 C.3   170  THR170      0.1770
    143  OG1       -9.2600   17.6870   15.1560 O.3   170  THR170     -0.2211
    144  CG2       -9.2580   16.3030   17.1510 C.3   170  THR170      0.0375
    145  N        -15.7430   16.5690   14.8820 N.3   173  ALA173     -0.1245
    146  CA       -16.4510   17.4180   15.8640 C.3   173  ALA173      0.1562
    147  C        -17.8110   17.9840   15.4350 C.2   173  ALA173      0.2260
    148  O        -18.8370   17.6820   16.0740 O.2   173  ALA173     -0.2867
    149  CB       -15.5210   18.4810   16.4690 C.3   173  ALA173      0.0290
    150  N        -13.9600   22.9710    5.9700 N.3   309  GLU309     -0.1231
    151  CA       -13.3600   23.6540    7.1260 C.3   309  GLU309      0.1699
    152  C        -12.2370   22.7500    7.5710 C.2   309  GLU309      0.2592
    153  O        -12.4360   21.8090    8.3520 O.2   309  GLU309     -0.2718
    154  CB       -14.3300   23.9140    8.2940 C.3   309  GLU309      0.0402
    155  CG       -13.6420   24.8140    9.3310 C.3   309  GLU309      0.1161
    156  CD       -14.3780   26.0950    9.5610 C.2   309  GLU309      0.3649
    157  OE1      -15.3390   25.9660   10.3450 O.co2 309  GLU309     -0.2457
    158  OE2      -14.0270   27.1430    8.9530 O.co2 309  GLU309     -0.2457
    159  N        -11.0380   23.0640    7.0570 N.am  310  VAL310     -0.1966
    160  CA        -9.8570   22.2410    7.3760 C.3   310  VAL310      0.1727
    161  C         -8.7520   23.1230    7.9430 C.2   310  VAL310      0.2616
    162  O         -8.7550   24.3230    7.7360 O.2   310  VAL310     -0.2715
    163  CB        -9.3340   21.4260    6.1780 C.3   310  VAL310      0.0290
    164  CG1      -10.3780   20.3850    5.7810 C.3   310  VAL310      0.0023
    165  CG2       -8.9990   22.3610    5.0020 C.3   310  VAL310      0.0023
    166  N         -7.8730   22.5420    8.7300 N.am  311  TYR311     -0.1974
    167  CA        -6.9240   23.4340    9.3990 C.3   311  TYR311      0.1639
    168  C         -5.6340   22.6850    9.6480 C.2   311  TYR311      0.2290
    169  O         -5.5240   21.4880    9.2460 O.2   311  TYR311     -0.2864
    170  CB        -7.5530   23.8600   10.7540 C.3   311  TYR311      0.0560
    171  CG        -8.3190   22.7430   11.4700 C.ar  311  TYR311     -0.0198
    172  CD1       -7.6600   21.8390   12.2700 C.ar  311  TYR311     -0.0009
    173  CD2       -9.7080   22.5730   11.3240 C.ar  311  TYR311     -0.0009
    174  CE1       -8.3330   20.8220   12.9520 C.ar  311  TYR311      0.0417
    175  CE2      -10.3870   21.5160   11.9470 C.ar  311  TYR311      0.0417
    176  CZ        -9.7030   20.6640   12.7980 C.ar  311  TYR311      0.1957
    177  OH       -10.2360   19.5990   13.5160 O.3   311  TYR311     -0.2866
@<TRIPOS>BOND
     1   165   163    1
     2   164   163    1
     3   150   151    1
     4   163   160    1
     5   159   160    1
     6   159   152   am
     7   151   152    1
     8   151   154    1
     9   160   161    1
    10   152   153    2
    11   162   161    2
    12   161   166   am
    13   154   155    1
    14   166   167    1
    15   158   156   ar
    16   169   168    2
    17   155   156    1
    18   167   168    1
    19   167   170    1
    20   156   157   ar
    21   170   171    1
    22   173   171   ar
    23   173   175   ar
    24   171   172   ar
    25   175   176   ar
    26   172   174   ar
    27   176   174   ar
    28   176   177    1
    29    43    42    1
    30   140   141    2
    31   140   139    1
    32    24    23    1
    33   138   139    1
    34   145   146    1
    35     6     5    1
    36   143   142    1
    37   139   142    1
    38    42    39    1
    39   147   146    1
    40   147   148    2
    41   146   149    1
    42    23    22    1
    43    23    25    1
    44     1     2    1
    45     5     2    1
    46    22    19    1
    47   142   144    1
    48    67    65    1
    49    39    38    1
    50    39    40    1
    51    65    64    2
    52    65    66    1
    53    64    63    1
    54    63    62    1
    55     2     3    1
    56    38    28   am
    57    91    90    1
    58    21    20    2
    59    89    90   ar
    60    89    87   ar
    61    19    20    1
    62    19    18    1
    63    40    41    2
    64    20    26   am
    65    18     9   am
    66    90    88   ar
    67    28    27    1
    68    28    29    2
    69    87    85   ar
    70     4     3    2
    71    26    27    1
    72    62    61    1
    73    27    30    1
    74    61    58    1
    75     9     8    1
    76     9    10    2
    77    88    86   ar
    78    76    75    2
    79     8    11    1
    80     8     7    1
    81    49    48    1
    82    72    69    1
    83    85    86   ar
    84    85    84    1
    85    47    46    2
    86    30    31    1
    87    48    45    1
    88   106   105    1
    89    32    34   ar
    90    32    31   ar
    91    12    11    1
    92    12    13    1
    93    81    84    1
    94    81    82    1
    95    81    80    1
    96    69    70    1
    97    69    68    1
    98    34    36   ar
    99   104   105    1
   100   104   103    1
   101    58    57    1
   102    58    59    1
   103    31    33   ar
   104    82    83    2
   105    57    52   am
   106    75    80   am
   107    75    74    1
   108    60    59    2
   109    73    70   am
   110    73    74    1
   111    46    45    1
   112    46    50   am
   113    13    14    1
   114   101   100    2
   115    70    71    2
   116    36    37    1
   117    36    35   ar
   118    33    35   ar
   119    14    15    2
   120    45    44    1
   121   102   103    1
   122   102    99    1
   123    15    17    1
   124    15    16    1
   125    74    77    1
   126    52    51    1
   127    52    53    2
   128    51    50    1
   129    51    54    1
   130   116   115    1
   131   116   117    1
   132   100    99    1
   133   100   107   am
   134    77    78    1
   135    77    79    1
   136   137   136    1
   137   115   109   am
   138    99    98    1
   139   136   133    1
   140   109   110    2
   141   109   108    1
   142    55    54    1
   143    54    56    1
   144   108   107    1
   145   108   111    1
   146   117   119   am
   147   117   118    2
   148   119   120    1
   149   130   131    1
   150   130   127    1
   151   113   112    2
   152   132   133    1
   153   132   128   am
   154   133   134    1
   155    98    94   am
   156   126   127    1
   157   126   121   am
   158    95    94    2
   159   111   112    1
   160   127   128    1
   161   112   114   am
   162    94    93    1
   163   128   129    2
   164   125   123    1
   165   123   120    1
   166   123   124    1
   167   120   121    1
   168   134   135    2
   169   121   122    2
   170    97    96    1
   171    93    96    1
   172    93    92    1
