@<TRIPOS>MOLECULE
tmp/3lvmB00.pdb
 126 115 0 0 0
SMALL
GASTEIGER

@<TRIPOS>ATOM
      1  N         52.9320    6.6850  -18.3430 N.3    16  SER16      -0.1202
      2  CA        52.7340    6.3090  -16.9430 C.3    16  SER16       0.2020
      3  C         51.4250    6.8290  -16.3420 C.2    16  SER16       0.2618
      4  O         50.9670    6.3060  -15.3390 O.2    16  SER16      -0.2717
      5  CB        53.9240    6.7330  -16.1000 C.3    16  SER16       0.2103
      6  OG        54.9500    5.7740  -16.2330 O.3    16  SER16      -0.2182
      7  N         50.8310    7.8540  -16.9400 N.am   17  ALA17      -0.1979
      8  CA        49.5330    8.3400  -16.4770 C.3    17  ALA17       0.1597
      9  C         48.4110    7.5090  -17.0870 C.2    17  ALA17       0.2287
     10  O         47.3980    7.2240  -16.4410 O.2    17  ALA17      -0.2864
     11  CB        49.3520    9.8210  -16.8320 C.3    17  ALA17       0.0319
     12  N         39.8070   -1.1600  -11.1330 N.3    80  GLY80      -0.1210
     13  CA        41.1210   -0.5500  -11.3760 C.3    80  GLY80       0.1956
     14  C         42.0780   -0.8590  -10.2490 C.2    80  GLY80       0.2612
     15  O         41.7050   -1.4790   -9.2340 O.2    80  GLY80      -0.2717
     16  N         43.3240   -0.4410  -10.4300 N.am   81  ALA81      -0.1965
     17  CA        44.3510   -0.6890   -9.4410 C.3    81  ALA81       0.1728
     18  C         44.1310    0.0580   -8.1220 C.2    81  ALA81       0.2616
     19  O         44.5290   -0.4300   -7.0590 O.2    81  ALA81      -0.2715
     20  CB        45.7380   -0.3970  -10.0270 C.3    81  ALA81       0.0334
     21  N         43.5060    1.2350   -8.1830 N.am   82  THR82      -0.1951
     22  CA        43.0890    1.9490   -6.9650 C.3    82  THR82       0.1897
     23  C         42.1890    1.0210   -6.1300 C.2    82  THR82       0.2313
     24  O         42.4410    0.7990   -4.9580 O.2    82  THR82      -0.2863
     25  CB        42.3390    3.3190   -7.2680 C.3    82  THR82       0.1794
     26  OG1       43.1970    4.2210   -7.9970 O.3    82  THR82      -0.2208
     27  CG2       41.8750    3.9920   -5.9960 C.3    82  THR82       0.0378
     28  N         44.1780   -1.9840   -4.7280 N.3    85  ASP85      -0.1239
     29  CA        44.9710   -1.5530   -3.5780 C.3    85  ASP85       0.1674
     30  C         44.1250   -1.4010   -2.3150 C.2    85  ASP85       0.2266
     31  O         44.5260   -1.8490   -1.2670 O.2    85  ASP85      -0.2867
     32  CB        45.6960   -0.2110   -3.8620 C.3    85  ASP85       0.1410
     33  CG        46.9550   -0.3630   -4.7430 C.2    85  ASP85       0.3668
     34  OD1       47.4410    0.6770   -5.2440 O.co2  85  ASP85      -0.2456
     35  OD2       47.4660   -1.4880   -4.9420 O.co2  85  ASP85      -0.2456
     36  N         52.1150    4.6830   -4.1770 N.3   110  HIS110     -0.1241
     37  CA        51.0480    5.4420   -4.8170 C.3   110  HIS110      0.1621
     38  C         50.0310    5.7850   -3.7260 C.2   110  HIS110      0.2264
     39  O         49.9410    5.0910   -2.6970 O.2   110  HIS110     -0.2867
     40  CB        50.4430    4.6130   -5.9630 C.3   110  HIS110      0.0745
     41  CG        49.2940    5.2670   -6.6640 C.ar  110  HIS110      0.0817
     42  ND1       49.4290    5.9000   -7.8790 N.ar  110  HIS110     -0.2268
     43  CD2       47.9820    5.3430   -6.3450 C.ar  110  HIS110      0.1154
     44  CE1       48.2550    6.3640   -8.2670 C.ar  110  HIS110      0.1986
     45  NE2       47.3590    6.0310   -7.3570 N.ar  110  HIS110     -0.2212
     46  N         46.8630    5.4480   -3.6180 N.3   112  ALA112     -0.1245
     47  CA        45.8590    4.3950   -3.3740 C.3   112  ALA112      0.1562
     48  C         46.2160    3.5140   -2.1690 C.2   112  ALA112      0.2260
     49  O         45.3140    2.9860   -1.4760 O.2   112  ALA112     -0.2867
     50  CB        45.6560    3.5530   -4.5980 C.3   112  ALA112      0.0290
     51  N         55.4790   -1.6480   -3.5080 N.3   157  MET157     -0.1245
     52  CA        55.2290   -1.7550   -4.9580 C.3   157  MET157      0.1570
     53  C         56.4140   -2.2540   -5.7730 C.2   157  MET157      0.2261
     54  O         57.5670   -2.0350   -5.4080 O.2   157  MET157     -0.2867
     55  CB        54.7520   -0.4150   -5.5250 C.3   157  MET157      0.0387
     56  CG        55.8650    0.6140   -5.6040 C.3   157  MET157      0.0595
     57  SD        55.3020    2.3140   -5.5160 S.3   157  MET157     -0.1393
     58  CE        54.1990    2.3910   -6.9270 C.3   157  MET157      0.0692
     59  N         57.2040   -1.4590   -9.2560 N.3   159  VAL159     -0.1245
     60  CA        57.8080   -0.3350   -9.9660 C.3   159  VAL159      0.1561
     61  C         57.1540    0.9650   -9.5070 C.2   159  VAL159      0.2260
     62  O         55.9320    1.0510   -9.4400 O.2   159  VAL159     -0.2867
     63  CB        57.7130   -0.5050  -11.5250 C.3   159  VAL159      0.0252
     64  CG1       58.1000    0.7810  -12.2550 C.3   159  VAL159      0.0019
     65  CG2       58.5860   -1.6820  -12.0050 C.3   159  VAL159      0.0019
     66  N         55.7130    4.5200   -9.8200 N.3   161  ASN161     -0.1240
     67  CA        55.0880    5.1750  -10.9720 C.3   161  ASN161      0.1653
     68  C         55.6750    6.5340  -11.3150 C.2   161  ASN161      0.2266
     69  O         55.5240    6.9850  -12.4550 O.2   161  ASN161     -0.2867
     70  CB        53.5860    5.3390  -10.7530 C.3   161  ASN161      0.1155
     71  CG        53.2840    6.0610   -9.4930 C.2   161  ASN161      0.2627
     72  OD1       53.5530    5.5420   -8.3980 O.2   161  ASN161     -0.2716
     73  ND2       52.7550    7.2920   -9.6180 N.am  161  ASN161     -0.0877
     74  N         51.8720   -3.7020   -5.2390 N.3   186  ASP186     -0.1239
     75  CA        51.2280   -2.9380   -6.2940 C.3   186  ASP186      0.1674
     76  C         52.0820   -3.0650   -7.5590 C.2   186  ASP186      0.2266
     77  O         53.1460   -2.4500   -7.6620 O.2   186  ASP186     -0.2867
     78  CB        51.0730   -1.4790   -5.8410 C.3   186  ASP186      0.1410
     79  CG        50.2970   -0.6430   -6.7990 C.2   186  ASP186      0.3668
     80  OD1       49.8310    0.4220   -6.3560 O.co2 186  ASP186     -0.2456
     81  OD2       50.1420   -1.0160   -7.9800 O.co2 186  ASP186     -0.2456
     82  N         51.0350   -2.3490  -10.6860 N.3   188  THR188     -0.1203
     83  CA        50.4080   -1.5810  -11.7510 C.3   188  THR188      0.1994
     84  C         51.3930   -1.1320  -12.8330 C.2   188  THR188      0.2617
     85  O         51.0520   -1.1280  -14.0340 O.2   188  THR188     -0.2717
     86  CB        49.7300   -0.3370  -11.1880 C.3   188  THR188      0.1784
     87  OG1       48.8920   -0.7030  -10.0910 O.3   188  THR188     -0.2211
     88  CG2       48.9250    0.3680  -12.2650 C.3   188  THR188      0.0376
     89  N         52.6000   -0.7430  -12.4170 N.am  189  GLN189     -0.1979
     90  CA        53.5790   -0.2330  -13.3730 C.3   189  GLN189      0.1601
     91  C         54.5490   -1.2930  -13.8660 C.2   189  GLN189      0.2287
     92  O         55.3370   -1.0280  -14.7610 O.2   189  GLN189     -0.2864
     93  CB        54.3470    0.9570  -12.7970 C.3   189  GLN189      0.0394
     94  CG        53.4820    2.1600  -12.4490 C.3   189  GLN189      0.0908
     95  CD        53.0950    3.0300  -13.6660 C.2   189  GLN189      0.2608
     96  OE1       53.6150    2.8550  -14.7740 O.2   189  GLN189     -0.2717
     97  NE2       52.1620    3.9760  -13.4480 N.am  189  GLN189     -0.0878
     98  N         46.3710   -3.2660  -13.3710 N.3   209  SER209     -0.1217
     99  CA        45.4440   -2.4010  -14.0760 C.3   209  SER209      0.1889
    100  C         45.4430   -2.7810  -15.5560 C.2   209  SER209      0.2288
    101  O         46.2950   -3.5670  -16.0220 O.2   209  SER209     -0.2866
    102  CB        45.9190   -0.9450  -13.9330 C.3   209  SER209      0.2089
    103  OG        44.8750   -0.0240  -14.1320 O.3   209  SER209     -0.2183
    104  N         45.0150   -0.0670  -17.9920 N.3   211  HIS211     -0.1226
    105  CA        45.3280    1.0880  -18.8430 C.3   211  HIS211      0.1752
    106  C         46.7850    1.5410  -18.8160 C.2   211  HIS211      0.2595
    107  O         47.1310    2.5330  -19.4660 O.2   211  HIS211     -0.2718
    108  CB        44.3360    2.2590  -18.6250 C.3   211  HIS211      0.0759
    109  CG        44.5090    2.9730  -17.3210 C.ar  211  HIS211      0.0818
    110  ND1       45.0370    4.2450  -17.2350 N.ar  211  HIS211     -0.2268
    111  CD2       44.2220    2.5980  -16.0520 C.ar  211  HIS211      0.1154
    112  CE1       45.0630    4.6270  -15.9700 C.ar  211  HIS211      0.1986
    113  NE2       44.5790    3.6450  -15.2310 N.ar  211  HIS211     -0.2212
    114  N         47.6360    0.8380  -18.0690 N.am  212  LYS212     -0.1980
    115  CA        49.0760    1.0970  -18.1450 C.3   212  LYS212      0.1596
    116  C         49.7490    0.1240  -19.1060 C.2   212  LYS212      0.2287
    117  O         50.9640    0.2030  -19.3320 O.2   212  LYS212     -0.2864
    118  CB        49.7610    1.0520  -16.7750 C.3   212  LYS212      0.0298
    119  CG        49.0900    1.8840  -15.6990 C.3   212  LYS212      0.0038
    120  CD        49.3280    3.3780  -15.8750 C.3   212  LYS212      0.0206
    121  CE        48.3960    4.2220  -14.9810 C.3   212  LYS212      0.1093
    122  NZ        48.4650    3.9730  -13.4850 N.3   212  LYS212     -0.1314
    123  N         39.3450    1.7260  -16.2390 N.3   218  GLY218     -0.1225
    124  CA        38.1660    1.3550  -15.4750 C.3   218  GLY218      0.1811
    125  C         37.9970   -0.1350  -15.3330 C.2   218  GLY218      0.2280
    126  O         36.8710   -0.6310  -15.2150 O.2   218  GLY218     -0.2866
@<TRIPOS>BOND
     1   107   106    2
     2   117   116    2
     3   116   115    1
     4   105   106    1
     5   105   108    1
     6   105   104    1
     7   106   114   am
     8   108   109    1
     9     1     2    1
    10   115   114    1
    11   115   118    1
    12   109   110   ar
    13   109   111   ar
    14   110   112   ar
    15     9     8    1
    16     9    10    2
    17     2     3    1
    18     2     5    1
    19     7     8    1
    20     7     3   am
    21    11     8    1
    22   118   119    1
    23     3     4    2
    24   123   124    1
    25     6     5    1
    26   111   113   ar
    27   101   100    2
    28   112   113   ar
    29   120   119    1
    30   120   121    1
    31   100    99    1
    32   124   125    1
    33   125   126    2
    34   121   122    1
    35    96    95    2
    36    92    91    2
    37   103   102    1
    38    99   102    1
    39    99    98    1
    40    85    84    2
    41    91    90    1
    42    95    97   am
    43    95    94    1
    44    90    93    1
    45    90    89    1
    46    84    89   am
    47    84    83    1
    48    93    94    1
    49    69    68    2
    50    88    86    1
    51    64    63    1
    52    65    63    1
    53    83    86    1
    54    83    82    1
    55    63    60    1
    56    13    12    1
    57    13    14    1
    58    68    67    1
    59    86    87    1
    60    67    70    1
    61    67    66    1
    62    70    71    1
    63    16    14   am
    64    16    17    1
    65    14    15    2
    66    20    17    1
    67    60    61    1
    68    60    59    1
    69    73    71   am
    70    61    62    2
    71    71    72    2
    72    17    18    1
    73    44    42   ar
    74    44    45   ar
    75    21    18   am
    76    21    22    1
    77    18    19    2
    78    26    25    1
    79    81    79   ar
    80    42    41   ar
    81    77    76    2
    82    76    75    1
    83    45    43   ar
    84    25    22    1
    85    25    27    1
    86    22    23    1
    87    58    57    1
    88    79    80   ar
    89    79    78    1
    90    41    43   ar
    91    41    40    1
    92    75    78    1
    93    75    74    1
    94    23    24    2
    95    40    37    1
    96    53    54    2
    97    53    52    1
    98    56    55    1
    99    56    57    1
   100    55    52    1
   101    34    33   ar
   102    52    51    1
   103    35    33   ar
   104    37    36    1
   105    37    38    1
   106    33    32    1
   107    28    29    1
   108    50    47    1
   109    32    29    1
   110    38    39    2
   111    46    47    1
   112    29    30    1
   113    47    48    1
   114    30    31    2
   115    48    49    2
