@<TRIPOS>MOLECULE
tmp/3lvpD00.pdb
 150 140 0 0 0
SMALL
GASTEIGER

@<TRIPOS>ATOM
      1  N        -44.0820   63.9320  -33.8430 N.3    18  ARG18      -0.1245
      2  CA       -43.0730   64.4110  -34.7800 C.3    18  ARG18       0.1563
      3  C        -41.7970   63.5700  -34.7890 C.2    18  ARG18       0.2260
      4  O        -41.3090   63.1290  -33.7460 O.2    18  ARG18      -0.2867
      5  CB       -42.7480   65.8770  -34.4800 C.3    18  ARG18       0.0307
      6  CG       -42.7530   66.2260  -32.9960 C.3    18  ARG18       0.0489
      7  CD       -42.3590   67.6780  -32.7740 C.3    18  ARG18       0.2205
      8  NE       -41.0620   67.9690  -33.3780 N.pl3  18  ARG18      -0.0865
      9  CZ       -39.9210   67.3900  -33.0170 C.cat  18  ARG18       0.5346
     10  NH1      -38.7920   67.7170  -33.6330 N.pl3  18  ARG18       0.1354
     11  NH2      -39.9040   66.4930  -32.0360 N.pl3  18  ARG18       0.1354
     12  N        -37.7490   62.5460  -35.5160 N.3    20  LEU20      -0.1231
     13  CA       -36.5090   63.0990  -34.9980 C.3    20  LEU20       0.1693
     14  C        -35.4300   62.9460  -36.0550 C.2    20  LEU20       0.2593
     15  O        -34.9460   63.9290  -36.6090 O.2    20  LEU20      -0.2718
     16  CB       -36.0910   62.3730  -33.7180 C.3    20  LEU20       0.0284
     17  CG       -36.8390   62.7850  -32.4500 C.3    20  LEU20       0.0019
     18  CD1      -36.3780   61.9520  -31.2630 C.3    20  LEU20       0.0001
     19  CD2      -36.5900   64.2630  -32.1980 C.3    20  LEU20       0.0001
     20  N        -35.0700   61.7010  -36.3390 N.am   21  GLY21      -0.1942
     21  CA       -34.0460   61.4310  -37.3300 C.3    21  GLY21       0.2014
     22  C        -33.7940   59.9430  -37.4600 C.2    21  GLY21       0.2639
     23  O        -34.1080   59.1740  -36.5480 O.2    21  GLY21      -0.2714
     24  N        -33.2300   59.5350  -38.5930 N.am   22  GLN22      -0.1963
     25  CA       -32.9410   58.1280  -38.8440 C.3    22  GLN22       0.1733
     26  C        -32.0590   57.5770  -37.7230 C.2    22  GLN22       0.2616
     27  O        -31.0080   58.1390  -37.4090 O.2    22  GLN22      -0.2715
     28  CB       -32.2460   57.9720  -40.2000 C.3    22  GLN22       0.0408
     29  CG       -32.2870   56.5640  -40.7500 C.3    22  GLN22       0.0908
     30  CD       -33.6890   55.9980  -40.7320 C.2    22  GLN22       0.2608
     31  OE1      -34.6190   56.5950  -41.2750 O.2    22  GLN22      -0.2717
     32  NE2      -33.8510   54.8390  -40.1000 N.am   22  GLN22      -0.0878
     33  N        -32.4960   56.4750  -37.1220 N.am   23  GLY23      -0.1955
     34  CA       -31.7470   55.8860  -36.0270 C.3    23  GLY23       0.1869
     35  C        -30.8440   54.7300  -36.4020 C.2    23  GLY23       0.2309
     36  O        -30.7840   54.3190  -37.5630 O.2    23  GLY23      -0.2863
     37  N        -36.4670   57.2770  -35.8140 N.3    28  VAL28      -0.1245
     38  CA       -36.7890   57.6160  -34.4310 C.3    28  VAL28       0.1561
     39  C        -37.8100   58.7470  -34.3870 C.2    28  VAL28       0.2260
     40  O        -37.7640   59.6670  -35.2090 O.2    28  VAL28      -0.2867
     41  CB       -35.5290   58.0420  -33.6550 C.3    28  VAL28       0.0252
     42  CG1      -35.8870   58.3600  -32.2190 C.3    28  VAL28       0.0019
     43  CG2      -34.4980   56.9310  -33.7000 C.3    28  VAL28       0.0019
     44  N        -40.5700   61.3650  -31.7360 N.3    30  GLU30      -0.1245
     45  CA       -40.7790   62.0370  -30.4560 C.3    30  GLU30       0.1567
     46  C        -42.2590   62.0070  -30.0880 C.2    30  GLU30       0.2260
     47  O        -43.1200   61.9400  -30.9650 O.2    30  GLU30      -0.2867
     48  CB       -40.3000   63.4890  -30.5350 C.3    30  GLU30       0.0388
     49  CG       -40.2690   64.2110  -29.2020 C.3    30  GLU30       0.1160
     50  CD       -39.5690   65.5520  -29.2900 C.2    30  GLU30       0.3649
     51  OE1      -38.3770   65.5750  -29.6640 O.co2  30  GLU30      -0.2457
     52  OE2      -40.2060   66.5810  -28.9860 O.co2  30  GLU30      -0.2457
     53  N        -39.1530   59.1760  -26.2790 N.3    46  ALA46      -0.1245
     54  CA       -38.5330   58.9970  -27.5850 C.3    46  ALA46       0.1562
     55  C        -38.8790   57.5870  -28.0400 C.2    46  ALA46       0.2260
     56  O        -38.8690   56.6520  -27.2400 O.2    46  ALA46      -0.2867
     57  CB       -37.0290   59.1660  -27.4780 C.3    46  ALA46       0.0290
     58  N        -37.9350   54.5160  -30.6640 N.3    48  LYS48      -0.1245
     59  CA       -37.0270   53.9380  -31.6560 C.3    48  LYS48       0.1561
     60  C        -37.7960   52.9030  -32.4700 C.2    48  LYS48       0.2260
     61  O        -38.8220   52.3990  -32.0110 O.2    48  LYS48      -0.2867
     62  CB       -35.8130   53.2940  -30.9770 C.3    48  LYS48       0.0271
     63  CG       -34.9360   54.3000  -30.2480 C.3    48  LYS48       0.0035
     64  CD       -33.4630   53.9050  -30.2600 C.3    48  LYS48       0.0206
     65  CE       -33.2060   52.6060  -29.5130 C.3    48  LYS48       0.1093
     66  NZ       -31.7510   52.2850  -29.4550 N.3    48  LYS48      -0.1314
     67  N        -29.2760   57.5940  -19.8940 N.3    68  VAL68      -0.1245
     68  CA       -30.6040   57.6700  -20.5070 C.3    68  VAL68       0.1561
     69  C        -31.4530   56.5240  -20.0030 C.2    68  VAL68       0.2260
     70  O        -31.1100   55.3600  -20.2100 O.2    68  VAL68      -0.2867
     71  CB       -30.5340   57.5860  -22.0330 C.3    68  VAL68       0.0252
     72  CG1      -31.9370   57.5750  -22.6080 C.3    68  VAL68       0.0019
     73  CG2      -29.7450   58.7610  -22.5820 C.3    68  VAL68       0.0019
     74  N        -37.6930   55.4540  -24.3770 N.3    84  MET84      -0.1230
     75  CA       -36.6360   55.9280  -23.4900 C.3    84  MET84       0.1702
     76  C        -36.8270   57.3860  -23.0830 C.2    84  MET84       0.2592
     77  O        -37.5750   58.1260  -23.7240 O.2    84  MET84      -0.2718
     78  CB       -35.2730   55.7630  -24.1700 C.3    84  MET84       0.0401
     79  CG       -34.9600   54.3420  -24.6170 C.3    84  MET84       0.0596
     80  SD       -33.3160   54.1820  -25.3430 S.3    84  MET84      -0.1393
     81  CE       -33.6330   54.7810  -26.9830 C.3    84  MET84       0.0692
     82  N        -36.1500   57.7860  -22.0060 N.am   85  GLU85      -0.1966
     83  CA       -36.2010   59.1600  -21.5060 C.3    85  GLU85       0.1733
     84  C        -35.8520   60.1170  -22.6390 C.2    85  GLU85       0.2616
     85  O        -34.8330   59.9430  -23.3010 O.2    85  GLU85      -0.2715
     86  CB       -35.1840   59.3450  -20.3830 C.3    85  GLU85       0.0429
     87  CG       -34.7530   60.7860  -20.2090 C.3    85  GLU85       0.1163
     88  CD       -33.6390   60.9550  -19.1950 C.2    85  GLU85       0.3649
     89  OE1      -33.2440   62.1180  -18.9510 O.co2  85  GLU85      -0.2457
     90  OE2      -33.1590   59.9380  -18.6460 O.co2  85  GLU85      -0.2457
     91  N        -36.6760   61.1350  -22.8550 N.am   86  LEU86      -0.1963
     92  CA       -36.4060   62.0850  -23.9290 C.3    86  LEU86       0.1728
     93  C        -35.2280   63.0170  -23.6710 C.2    86  LEU86       0.2616
     94  O        -35.1030   63.6010  -22.5930 O.2    86  LEU86      -0.2715
     95  CB       -37.6380   62.9480  -24.2200 C.3    86  LEU86       0.0311
     96  CG       -37.4300   63.9890  -25.3330 C.3    86  LEU86       0.0022
     97  CD1      -37.2610   63.2810  -26.6610 C.3    86  LEU86       0.0001
     98  CD2      -38.6110   64.9270  -25.4040 C.3    86  LEU86       0.0001
     99  N        -34.3690   63.1400  -24.6790 N.am   87  MET87      -0.1963
    100  CA       -33.2170   64.0310  -24.6380 C.3    87  MET87       0.1736
    101  C        -33.4640   64.9480  -25.8390 C.2    87  MET87       0.2617
    102  O        -33.1710   64.6050  -26.9830 O.2    87  MET87      -0.2715
    103  CB       -31.9240   63.2380  -24.7860 C.3    87  MET87       0.0427
    104  CG       -31.7350   62.1760  -23.7050 C.3    87  MET87       0.0599
    105  SD       -31.7840   62.8090  -21.9990 S.3    87  MET87      -0.1393
    106  CE       -30.0640   63.1020  -21.6650 C.3    87  MET87       0.0692
    107  N        -34.0370   66.1110  -25.5490 N.am   88  THR88      -0.1937
    108  CA       -34.4210   67.0990  -26.5480 C.3    88  THR88       0.2028
    109  C        -33.3430   67.8460  -27.3060 C.2    88  THR88       0.2642
    110  O        -33.6220   68.4240  -28.3510 O.2    88  THR88      -0.2714
    111  CB       -35.3110   68.1430  -25.9040 C.3    88  THR88       0.1808
    112  OG1      -34.6150   68.7110  -24.7830 O.3    88  THR88      -0.2208
    113  CG2      -36.6110   67.5090  -25.4310 C.3    88  THR88       0.0379
    114  N        -32.1210   67.8580  -26.7910 N.am   89  ARG89      -0.1963
    115  CA       -31.0530   68.5850  -27.4710 C.3    89  ARG89       0.1729
    116  C        -30.1660   67.7520  -28.4040 C.2    89  ARG89       0.2617
    117  O        -29.2130   68.2620  -28.9920 O.2    89  ARG89      -0.2715
    118  CB       -30.2020   69.3350  -26.4390 C.3    89  ARG89       0.0348
    119  CG       -30.9270   70.5340  -25.8210 C.3    89  ARG89       0.0492
    120  CD       -29.9960   71.3950  -24.9670 C.3    89  ARG89       0.2205
    121  NE       -30.2140   72.8290  -25.1790 N.pl3  89  ARG89      -0.0865
    122  CZ       -31.3090   73.4970  -24.8110 C.cat  89  ARG89       0.5346
    123  NH1      -31.4140   74.8010  -25.0530 N.pl3  89  ARG89       0.1354
    124  NH2      -32.2950   72.8650  -24.1930 N.pl3  89  ARG89       0.1354
    125  N        -30.4920   66.4750  -28.5500 N.am   90  GLY90      -0.1940
    126  CA       -29.7290   65.6130  -29.4360 C.3    90  GLY90       0.2014
    127  C        -28.5240   64.9300  -28.8190 C.2    90  GLY90       0.2638
    128  O        -28.3500   64.9230  -27.5950 O.2    90  GLY90      -0.2714
    129  N        -27.6960   64.3420  -29.6790 N.am   91  ASP91      -0.1971
    130  CA       -26.4890   63.6540  -29.2400 C.3    91  ASP91       0.1709
    131  C        -25.4260   64.6940  -28.9280 C.2    91  ASP91       0.2293
    132  O        -25.4430   65.7990  -29.4810 O.2    91  ASP91      -0.2864
    133  CB       -25.9810   62.7150  -30.3310 C.3    91  ASP91       0.1436
    134  CG       -25.6440   63.4440  -31.6100 C.2    91  ASP91       0.3671
    135  OD1      -26.5800   63.9110  -32.2930 O.co2  91  ASP91      -0.2456
    136  OD2      -24.4400   63.5570  -31.9250 O.co2  91  ASP91      -0.2456
    137  N        -23.3560   66.2410  -32.1870 N.3    94  SER94      -0.1217
    138  CA       -24.0580   67.2380  -32.9950 C.3    94  SER94       0.1889
    139  C        -24.0560   68.5620  -32.2360 C.2    94  SER94       0.2288
    140  O        -23.7210   69.6180  -32.7790 O.2    94  SER94      -0.2866
    141  CB       -25.5040   66.7950  -33.2420 C.3    94  SER94       0.2089
    142  OG       -25.5670   65.6150  -34.0320 O.3    94  SER94      -0.2183
    143  N        -26.1040   61.6560  -24.8070 N.3   142  MET142     -0.1245
    144  CA       -27.2550   62.5000  -25.0640 C.3   142  MET142      0.1570
    145  C        -27.1810   63.7760  -24.2620 C.2   142  MET142      0.2261
    146  O        -26.5190   63.8360  -23.2270 O.2   142  MET142     -0.2867
    147  CB       -28.5400   61.7520  -24.7240 C.3   142  MET142      0.0387
    148  CG       -28.7360   60.4640  -25.5060 C.3   142  MET142      0.0595
    149  SD       -28.5350   60.7300  -27.2680 S.3   142  MET142     -0.1393
    150  CE       -29.8860   61.8140  -27.5860 C.3   142  MET142      0.0692
@<TRIPOS>BOND
     1    31    30    2
     2    29    30    1
     3    29    28    1
     4    30    32   am
     5    28    25    1
     6    25    24    1
     7    25    26    1
     8    24    22   am
     9    26    27    2
    10    26    33   am
    11    36    35    2
    12    22    21    1
    13    22    23    2
    14    21    20    1
    15    33    34    1
    16    15    14    2
    17    35    34    1
    18    20    14   am
    19    14    13    1
    20    37    38    1
    21    12    13    1
    22    40    39    2
    23    13    16    1
    24     3     2    1
    25     3     4    2
    26     2     5    1
    27     2     1    1
    28     5     6    1
    29    38    39    1
    30    38    41    1
    31   142   141    1
    32    16    17    1
    33    43    41    1
    34    41    42    1
    35    10     9    1
    36     8     9    2
    37     8     7    1
    38   141   138    1
    39     9    11    1
    40     6     7    1
    41   138   139    1
    42   138   137    1
    43   140   139    2
    44    60    61    2
    45    60    59    1
    46    17    19    1
    47    17    18    1
    48   135   134   ar
    49   136   134   ar
    50    44    45    1
    51    59    62    1
    52    59    58    1
    53   134   133    1
    54    62    63    1
    55    47    46    2
    56    48    45    1
    57    48    49    1
    58    45    46    1
    59   133   130    1
    60    64    63    1
    61    64    65    1
    62   129   130    1
    63   129   127   am
    64    51    50   ar
    65    65    66    1
    66   132   131    2
    67   126   127    1
    68   126   125    1
    69    50    49    1
    70    50    52   ar
    71   130   131    1
    72   117   116    2
    73   127   128    2
    74   125   116   am
    75   116   115    1
    76   110   109    2
    77    55    54    1
    78    55    56    2
    79   150   149    1
    80    54    57    1
    81    54    53    1
    82   115   114    1
    83   115   118    1
    84   109   114   am
    85   109   108    1
    86   149   148    1
    87    81    80    1
    88   102   101    2
    89    97    96    1
    90   108   111    1
    91   108   107    1
    92   118   119    1
    93   111   113    1
    94   111   112    1
    95   101   107   am
    96   101   100    1
    97   119   120    1
    98   148   147    1
    99    98    96    1
   100    80    79    1
   101    96    95    1
   102   121   120    1
   103   121   122    2
   104   144   143    1
   105   144   147    1
   106   144   145    1
   107   123   122    1
   108   122   124    1
   109   103   100    1
   110   103   104    1
   111    99   100    1
   112    99    93   am
   113    79    78    1
   114    74    75    1
   115   145   146    2
   116    95    92    1
   117    78    75    1
   118    92    93    1
   119    92    91    1
   120    77    76    2
   121   104   105    1
   122    93    94    2
   123    75    76    1
   124    85    84    2
   125    76    82   am
   126    91    84   am
   127    84    83    1
   128    72    71    1
   129    73    71    1
   130    71    68    1
   131    82    83    1
   132   105   106    1
   133    83    86    1
   134    68    69    1
   135    68    67    1
   136    86    87    1
   137    70    69    2
   138    87    88    1
   139    88    89   ar
   140    88    90   ar
