@<TRIPOS>MOLECULE
tmp/3lvqA00.pdb
 169 160 0 0 0
SMALL
GASTEIGER

@<TRIPOS>ATOM
      1  N        -35.3390   50.7970    5.7070 N.3    44  GLY44      -0.1225
      2  CA       -33.9260   51.1340    5.6050 C.3    44  GLY44       0.1811
      3  C        -33.0230   50.2320    6.4110 C.2    44  GLY44       0.2280
      4  O        -31.9190   49.9100    5.9770 O.2    44  GLY44      -0.2866
      5  N        -32.2200   47.2010    4.4670 N.3    47  ARG47      -0.1231
      6  CA       -31.1900   47.5080    3.4810 C.3    47  ARG47       0.1694
      7  C        -29.8110   47.5090    4.1370 C.2    47  ARG47       0.2591
      8  O        -28.8050   47.2040    3.4880 O.2    47  ARG47      -0.2718
      9  CB       -31.4680   48.8530    2.8010 C.3    47  ARG47       0.0321
     10  CG       -32.7590   48.8860    1.9950 C.3    47  ARG47       0.0489
     11  CD       -33.3440   50.2920    1.8970 C.3    47  ARG47       0.2205
     12  NE       -33.1010   50.9390    0.6050 N.pl3  47  ARG47      -0.0865
     13  CZ       -32.3010   51.9880    0.4230 C.cat  47  ARG47       0.5346
     14  NH1      -31.6460   52.5190    1.4460 N.pl3  47  ARG47       0.1354
     15  NH2      -32.1530   52.5100   -0.7820 N.pl3  47  ARG47       0.1354
     16  N        -29.7800   47.8320    5.4290 N.am   48  GLU48      -0.1979
     17  CA       -28.5490   47.8040    6.2090 C.3    48  GLU48       0.1602
     18  C        -28.0760   46.3770    6.5300 C.2    48  GLU48       0.2287
     19  O        -26.8710   46.1320    6.6320 O.2    48  GLU48      -0.2864
     20  CB       -28.7090   48.6260    7.4930 C.3    48  GLU48       0.0415
     21  CG       -27.3920   48.8970    8.2210 C.3    48  GLU48       0.1163
     22  CD       -27.3880   50.1930    9.0200 C.2    48  GLU48       0.3649
     23  OE1      -28.4770   50.7850    9.2280 O.co2  48  GLU48      -0.2457
     24  OE2      -26.2820   50.6160    9.4470 O.co2  48  GLU48      -0.2457
     25  N        -30.5150   50.8060   -6.4140 N.3   268  ASP268     -0.1225
     26  CA       -31.0220   50.9850   -5.0480 C.3   268  ASP268      0.1805
     27  C        -30.1440   50.3140   -3.9790 C.2   268  ASP268      0.2598
     28  O        -29.5640   49.2510   -4.2110 O.2   268  ASP268     -0.2718
     29  CB       -32.4690   50.4760   -4.9570 C.3   268  ASP268      0.1424
     30  CG       -32.7450   49.2880   -5.8950 C.2   268  ASP268      0.3668
     31  OD1      -33.9270   49.0340   -6.2190 O.co2 268  ASP268     -0.2456
     32  OD2      -31.7830   48.6100   -6.3190 O.co2 268  ASP268     -0.2456
     33  N        -30.0380   50.9700   -2.8240 N.am  269  ALA269     -0.1966
     34  CA       -29.2990   50.4710   -1.6660 C.3   269  ALA269      0.1728
     35  C        -27.8410   50.1320   -1.9670 C.2   269  ALA269      0.2616
     36  O        -27.2240   49.3370   -1.2410 O.2   269  ALA269     -0.2715
     37  CB       -30.0110   49.2670   -1.0490 C.3   269  ALA269      0.0334
     38  N        -27.2900   50.7240   -3.0290 N.am  270  ALA270     -0.1963
     39  CA       -25.8890   50.5150   -3.3850 C.3   270  ALA270      0.1728
     40  C        -24.9480   51.1210   -2.3410 C.2   270  ALA270      0.2617
     41  O        -23.8290   50.6370   -2.1580 O.2   270  ALA270     -0.2715
     42  CB       -25.6010   51.0810   -4.7450 C.3   270  ALA270      0.0334
     43  N        -25.4100   52.1700   -1.6560 N.am  271  GLY271     -0.1940
     44  CA       -24.6310   52.8240   -0.5930 C.3   271  GLY271      0.2014
     45  C        -24.4900   54.3210   -0.8360 C.2   271  GLY271      0.2639
     46  O        -23.8450   55.0500   -0.0570 O.2   271  GLY271     -0.2714
     47  N        -25.1200   54.7740   -1.9140 N.am  272  LYS272     -0.1963
     48  CA       -24.9070   56.1160   -2.4440 C.3   272  LYS272      0.1728
     49  C        -24.9880   57.2290   -1.4050 C.2   272  LYS272      0.2617
     50  O        -24.0820   58.0790   -1.3310 O.2   272  LYS272     -0.2715
     51  CB       -25.8710   56.3930   -3.5880 C.3   272  LYS272      0.0311
     52  CG       -25.5650   55.6110   -4.8630 C.3   272  LYS272      0.0038
     53  CD       -26.5740   55.9100   -5.9800 C.3   272  LYS272      0.0206
     54  CE       -27.7870   55.0050   -5.9060 C.3   272  LYS272      0.1093
     55  NZ       -28.4450   55.1280   -4.4860 N.3   272  LYS272     -0.1314
     56  N        -26.0560   57.2240   -0.5980 N.am  273  THR273     -0.1937
     57  CA       -26.1980   58.2580    0.4140 C.3   273  THR273      0.2028
     58  C        -25.2360   57.9760    1.5510 C.2   273  THR273      0.2642
     59  O        -24.6220   58.9120    2.0680 O.2   273  THR273     -0.2714
     60  CB       -27.6400   58.3790    0.9320 C.3   273  THR273      0.1808
     61  OG1      -28.5360   58.4730   -0.1840 O.3   273  THR273     -0.2208
     62  CG2      -27.8250   59.6400    1.7860 C.3   273  THR273      0.0379
     63  N        -25.0820   56.6970    1.9130 N.am  274  THR274     -0.1950
     64  CA       -24.1480   56.3140    2.9670 C.3   274  THR274      0.1897
     65  C        -22.7710   56.9230    2.6500 C.2   274  THR274      0.2313
     66  O        -22.1490   57.5630    3.5160 O.2   274  THR274     -0.2863
     67  CB       -24.0240   54.7630    3.1650 C.3   274  THR274      0.1794
     68  OG1      -25.3460   54.1790    3.3470 O.3   274  THR274     -0.2208
     69  CG2      -23.2140   54.4210    4.3850 C.3   274  THR274      0.0378
     70  N        -23.8670   57.7800    9.0880 N.3   285  VAL285     -0.1231
     71  CA       -25.2640   58.0320    9.4090 C.3   285  VAL285      0.1692
     72  C        -26.1610   56.9060    8.8930 C.2   285  VAL285      0.2593
     73  O        -25.7620   56.1170    8.0290 O.2   285  VAL285     -0.2718
     74  CB       -25.7500   59.4070    8.8830 C.3   285  VAL285      0.0266
     75  CG1      -24.9270   60.5330    9.4980 C.3   285  VAL285      0.0020
     76  CG2      -25.7040   59.4630    7.3590 C.3   285  VAL285      0.0020
     77  N        -27.3640   56.8260    9.4480 N.am  286  THR286     -0.1939
     78  CA       -28.3600   55.8730    8.9820 C.3   286  THR286      0.2028
     79  C        -29.1390   56.4820    7.8230 C.2   286  THR286      0.2643
     80  O        -29.5380   57.6470    7.8730 O.2   286  THR286     -0.2714
     81  CB       -29.3250   55.4580   10.1050 C.3   286  THR286      0.1808
     82  OG1      -29.9220   56.6260   10.6830 O.3   286  THR286     -0.2208
     83  CG2      -28.5850   54.6650   11.1850 C.3   286  THR286      0.0379
     84  N        -29.3400   55.6850    6.7760 N.am  287  THR287     -0.1936
     85  CA       -30.0030   56.1620    5.5680 C.3   287  THR287      0.2028
     86  C        -31.3310   55.4570    5.3290 C.2   287  THR287      0.2642
     87  O        -31.4350   54.2290    5.4110 O.2   287  THR287     -0.2714
     88  CB       -29.1190   55.9740    4.3080 C.3   287  THR287      0.1808
     89  OG1      -28.6330   54.6010    4.2660 O.3   287  THR287     -0.2208
     90  CG2      -27.9160   56.9120    4.3570 C.3   287  THR287      0.0379
     91  N        -32.3400   56.2700    5.0530 N.am  288  ILE288     -0.1977
     92  CA       -33.6330   55.8380    4.5620 C.3   288  ILE288      0.1596
     93  C        -33.4450   55.8310    3.0430 C.2   288  ILE288      0.2287
     94  O        -32.5640   56.5320    2.5530 O.2   288  ILE288     -0.2864
     95  CB       -34.6840   56.8990    4.9860 C.3   288  ILE288      0.0276
     96  CG1      -34.9120   56.8450    6.5040 C.3   288  ILE288      0.0022
     97  CG2      -35.9950   56.7680    4.2220 C.3   288  ILE288      0.0022
     98  CD1      -35.0770   58.2350    7.1770 C.3   288  ILE288      0.0001
     99  N        -33.5070   57.0930   -0.3960 N.3   290  THR290     -0.1218
    100  CA       -33.5540   58.4660   -0.8970 C.3   290  THR290      0.1862
    101  C        -34.5240   58.5080   -2.0760 C.2   290  THR290      0.2287
    102  O        -34.2040   58.0310   -3.1690 O.2   290  THR290     -0.2866
    103  CB       -32.1130   59.0160   -1.2260 C.3   290  THR290      0.1770
    104  OG1      -31.2290   57.9200   -1.6740 O.3   290  THR290     -0.2211
    105  CG2      -31.5640   59.6480    0.1400 C.3   290  THR290      0.0375
    106  N        -31.9950   55.1010   -6.4640 N.3   312  GLY312     -0.1210
    107  CA       -31.7800   54.0340   -7.4550 C.3   312  GLY312      0.1956
    108  C        -32.9180   53.0630   -7.7570 C.2   312  GLY312      0.2611
    109  O        -32.6880   51.9710   -8.2950 O.2   312  GLY312     -0.2717
    110  N        -34.1430   53.4490   -7.4250 N.am  313  GLN313     -0.1979
    111  CA       -35.2790   52.5570   -7.6000 C.3   313  GLN313      0.1601
    112  C        -35.6450   52.5450   -9.0700 C.2   313  GLN313      0.2287
    113  O        -35.5370   53.5690   -9.7350 O.2   313  GLN313     -0.2864
    114  CB       -36.4830   52.9910   -6.7530 C.3   313  GLN313      0.0394
    115  CG       -36.2160   54.0490   -5.6660 C.3   313  GLN313      0.0908
    116  CD       -35.2530   53.6140   -4.5690 C.2   313  GLN313      0.2608
    117  OE1      -34.3460   54.3770   -4.1650 O.2   313  GLN313     -0.2717
    118  NE2      -35.4380   52.3920   -4.0830 N.am  313  GLN313     -0.0878
    119  N        -18.6320   48.8080   -3.4770 N.3   368  ASN368     -0.1225
    120  CA       -19.0670   48.9530   -2.0880 C.3   368  ASN368      0.1785
    121  C        -19.3660   47.6540   -1.3400 C.2   368  ASN368      0.2597
    122  O        -19.5450   46.5990   -1.9510 O.2   368  ASN368     -0.2718
    123  CB       -20.2650   49.9020   -2.0020 C.3   368  ASN368      0.1169
    124  CG       -20.5020   50.4080   -0.5870 C.2   368  ASN368      0.2627
    125  OD1      -19.5680   50.8630    0.0860 O.2   368  ASN368     -0.2716
    126  ND2      -21.7510   50.3210   -0.1220 N.am  368  ASN368     -0.0877
    127  N        -19.4010   47.7520   -0.0090 N.am  369  LYS369     -0.1980
    128  CA       -19.7600   46.6430    0.8890 C.3   369  LYS369      0.1596
    129  C        -18.7750   45.4830    0.7820 C.2   369  LYS369      0.2287
    130  O        -19.1660   44.3530    0.4920 O.2   369  LYS369     -0.2864
    131  CB       -21.2090   46.1690    0.6490 C.3   369  LYS369      0.0298
    132  CG       -22.2980   47.0860    1.2070 C.3   369  LYS369      0.0038
    133  CD       -23.4420   47.2690    0.2160 C.3   369  LYS369      0.0206
    134  CE       -24.6640   47.9750    0.8210 C.3   369  LYS369      0.1093
    135  NZ       -25.6180   47.0290    1.4920 N.3   369  LYS369     -0.1314
    136  N        -17.0250   44.5280    3.3580 N.3   371  ASP371     -0.1225
    137  CA       -17.0670   43.9200    4.6850 C.3   371  ASP371      0.1805
    138  C        -17.9950   42.7130    4.7550 C.2   371  ASP371      0.2597
    139  O        -17.7940   41.8210    5.5780 O.2   371  ASP371     -0.2718
    140  CB       -17.4830   44.9520    5.7340 C.3   371  ASP371      0.1424
    141  CG       -18.8130   45.6210    5.4100 C.2   371  ASP371      0.3668
    142  OD1      -19.1110   45.8340    4.2140 O.co2 371  ASP371     -0.2456
    143  OD2      -19.5550   45.9520    6.3580 O.co2 371  ASP371     -0.2456
    144  N        -19.0050   42.6840    3.8930 N.am  372  LEU372     -0.1979
    145  CA       -20.0030   41.6190    3.9200 C.3   372  LEU372      0.1596
    146  C        -19.4250   40.2710    3.4690 C.2   372  LEU372      0.2287
    147  O        -18.5710   40.2340    2.5810 O.2   372  LEU372     -0.2864
    148  CB       -21.2290   42.0050    3.0860 C.3   372  LEU372      0.0297
    149  CG       -22.0010   43.2600    3.4990 C.3   372  LEU372      0.0022
    150  CD1      -23.0680   43.5570    2.4830 C.3   372  LEU372      0.0001
    151  CD2      -22.6260   43.1280    4.8700 C.3   372  LEU372      0.0001
    152  N        -15.8640   50.5510    1.8180 N.3   401  CYS401     -0.1221
    153  CA       -16.7580   50.1450    2.8870 C.3   401  CYS401      0.1808
    154  C        -17.3560   51.3730    3.5770 C.2   401  CYS401      0.2601
    155  O        -16.9440   51.7480    4.6790 O.2   401  CYS401     -0.2717
    156  CB       -16.0440   49.2360    3.8860 C.3   401  CYS401      0.0970
    157  SG       -17.1440   48.5890    5.1490 S.3   401  CYS401     -0.0800
    158  N        -18.3390   51.9840    2.9140 N.am  402  ALA402     -0.1965
    159  CA       -18.9600   53.2260    3.3730 C.3   402  ALA402      0.1728
    160  C        -19.1700   53.2740    4.8830 C.2   402  ALA402      0.2616
    161  O        -18.8680   54.2780    5.5190 O.2   402  ALA402     -0.2715
    162  CB       -20.2680   53.4700    2.6400 C.3   402  ALA402      0.0334
    163  N        -19.6610   52.1780    5.4550 N.am  403  THR403     -0.1951
    164  CA       -19.9580   52.1290    6.8870 C.3   403  THR403      0.1897
    165  C        -18.7600   52.5970    7.7220 C.2   403  THR403      0.2313
    166  O        -18.9020   53.4460    8.6100 O.2   403  THR403     -0.2863
    167  CB       -20.4440   50.7220    7.3330 C.3   403  THR403      0.1794
    168  OG1      -19.6750   49.7120    6.6690 O.3   403  THR403     -0.2208
    169  CG2      -21.9220   50.5260    6.9880 C.3   403  THR403      0.0378
@<TRIPOS>BOND
     1   113   112    2
     2   112   111    1
     3   109   108    2
     4   108   107    1
     5   108   110   am
     6   111   110    1
     7   111   114    1
     8   107   106    1
     9   114   115    1
    10    25    26    1
    11    32    30   ar
    12    31    30   ar
    13    53    54    1
    14    53    52    1
    15    54    55    1
    16    30    29    1
    17   115   116    1
    18    26    29    1
    19    26    27    1
    20    52    51    1
    21    42    39    1
    22   116   117    2
    23   116   118   am
    24    28    27    2
    25    27    33   am
    26    51    48    1
    27   119   120    1
    28    39    38    1
    29    39    40    1
    30   102   101    2
    31    38    35   am
    32    33    34    1
    33    48    47    1
    34    48    49    1
    35    40    41    2
    36    40    43   am
    37   120   123    1
    38   120   121    1
    39   101   100    1
    40   123   124    1
    41    35    34    1
    42    35    36    2
    43   122   121    2
    44    47    45   am
    45   104   103    1
    46    34    37    1
    47    43    44    1
    48    49    50    2
    49    49    56   am
    50   121   127   am
    51   103   100    1
    52   103   105    1
    53   100    99    1
    54    45    44    1
    55    45    46    2
    56    15    13    1
    57    56    57    1
    58   124   126   am
    59   124   125    2
    60    61    60    1
    61   127   128    1
    62   133   134    1
    63   133   132    1
    64    57    60    1
    65    57    58    1
    66    13    12    2
    67    13    14    1
    68   130   129    2
    69    12    11    1
    70   131   128    1
    71   131   132    1
    72   129   128    1
    73   134   135    1
    74    60    62    1
    75    58    63   am
    76    58    59    2
    77   152   153    1
    78    11    10    1
    79    63    64    1
    80    10     9    1
    81   150   149    1
    82    94    93    2
    83   147   146    2
    84   162   159    1
    85    65    64    1
    86    65    66    2
    87     9     6    1
    88   153   154    1
    89   153   156    1
    90   158   159    1
    91   158   154   am
    92    64    67    1
    93    93    92    1
    94   148   149    1
    95   148   145    1
    96    67    68    1
    97    67    69    1
    98   136   137    1
    99   159   160    1
   100   146   145    1
   101     6     7    1
   102     6     5    1
   103     8     7    2
   104   149   151    1
   105   154   155    2
   106   156   157    1
   107   144   145    1
   108   144   138   am
   109     7    16   am
   110   142   141   ar
   111    97    95    1
   112    89    88    1
   113    88    90    1
   114    88    85    1
   115    92    95    1
   116    92    91    1
   117   137   138    1
   118   137   140    1
   119   138   139    2
   120   160   163   am
   121   160   161    2
   122    95    96    1
   123    91    86   am
   124    86    87    2
   125    86    85    1
   126   141   140    1
   127   141   143   ar
   128    16    17    1
   129   163   164    1
   130    85    84    1
   131     2     1    1
   132     2     3    1
   133     4     3    2
   134    17    18    1
   135    17    20    1
   136    96    98    1
   137    18    19    2
   138   168   167    1
   139    84    79   am
   140   164   167    1
   141   164   165    1
   142   169   167    1
   143    76    74    1
   144    20    21    1
   145   165   166    2
   146    79    80    2
   147    79    78    1
   148    73    72    2
   149    21    22    1
   150    74    71    1
   151    74    75    1
   152    72    71    1
   153    72    77   am
   154    78    77    1
   155    78    81    1
   156    22    23   ar
   157    22    24   ar
   158    70    71    1
   159    81    82    1
   160    81    83    1
