@<TRIPOS>MOLECULE
tmp/3lvvA00.pdb
 205 192 0 0 0
SMALL
GASTEIGER

@<TRIPOS>ATOM
      1  N         40.0930   -8.2120   17.2280 N.3    49  GLU49      -0.1245
      2  CA        39.5340   -7.2690   16.2920 C.3    49  GLU49       0.1567
      3  C         40.4170   -6.0310   16.3670 C.2    49  GLU49       0.2260
      4  O         40.5810   -5.4980   17.4720 O.2    49  GLU49      -0.2867
      5  CB        38.1500   -6.8780   16.7370 C.3    49  GLU49       0.0388
      6  CG        37.0770   -7.9230   16.4970 C.3    49  GLU49       0.1160
      7  CD        35.8890   -7.6520   17.3770 C.2    49  GLU49       0.3649
      8  OE1       35.8720   -8.1790   18.5280 O.co2  49  GLU49      -0.2457
      9  OE2       35.0140   -6.8500   16.9510 O.co2  49  GLU49      -0.2457
     10  N         40.8650   -2.0680   14.9140 N.3    51  GLU51      -0.1245
     11  CA        40.2350   -0.9680   14.2000 C.3    51  GLU51       0.1567
     12  C         41.3270    0.0180   13.7690 C.2    51  GLU51       0.2260
     13  O         42.2750    0.3010   14.5480 O.2    51  GLU51      -0.2867
     14  CB        39.2180   -0.2850   15.1080 C.3    51  GLU51       0.0388
     15  CG        38.0640   -1.2020   15.4410 C.3    51  GLU51       0.1160
     16  CD        37.1160   -0.6350   16.4990 C.2    51  GLU51       0.3649
     17  OE1       37.5610    0.1990   17.3230 O.co2  51  GLU51      -0.2457
     18  OE2       35.9230   -1.0240   16.5240 O.co2  51  GLU51      -0.2457
     19  N         33.2950   -0.1760   10.2030 N.3    95  GLU95      -0.1231
     20  CA        33.1310    0.3960   11.5290 C.3    95  GLU95       0.1699
     21  C         32.3600    1.7460   11.4160 C.2    95  GLU95       0.2592
     22  O         32.1420    2.2590   10.2760 O.2    95  GLU95      -0.2718
     23  CB        34.4790    0.5620   12.2090 C.3    95  GLU95       0.0402
     24  CG        34.7160   -0.4740   13.3150 C.3    95  GLU95       0.1161
     25  CD        33.6310   -0.4580   14.4620 C.2    95  GLU95       0.3649
     26  OE1       32.9180    0.5790   14.7070 O.co2  95  GLU95      -0.2457
     27  OE2       33.4820   -1.5340   15.1170 O.co2  95  GLU95      -0.2457
     28  N         31.9360    2.2910   12.5610 N.am   96  TYR96      -0.1976
     29  CA        31.2180    3.5570   12.5610 C.3    96  TYR96       0.1639
     30  C         31.8080    4.6000   11.5860 C.2    96  TYR96       0.2290
     31  O         31.0660    5.2140   10.8260 O.2    96  TYR96      -0.2864
     32  CB        31.1190    4.1590   13.9660 C.3    96  TYR96       0.0560
     33  CG        30.2880    5.4520   13.9720 C.ar   96  TYR96      -0.0198
     34  CD1       28.8850    5.4090   13.8320 C.ar   96  TYR96      -0.0009
     35  CD2       30.9100    6.7000   14.0370 C.ar   96  TYR96      -0.0009
     36  CE1       28.1010    6.6200   13.7810 C.ar   96  TYR96       0.0417
     37  CE2       30.1570    7.9220   13.9840 C.ar   96  TYR96       0.0417
     38  CZ        28.7630    7.8700   13.8920 C.ar   96  TYR96       0.1957
     39  OH        28.0540    9.0850   13.8420 O.3    96  TYR96      -0.2866
     40  N         37.3990    4.4830    8.7630 N.3   100  MET100     -0.1245
     41  CA        37.9330    3.4340    9.5920 C.3   100  MET100      0.1570
     42  C         37.8330    2.1100    8.8480 C.2   100  MET100      0.2261
     43  O         36.9590    1.9120    7.9570 O.2   100  MET100     -0.2867
     44  CB        37.1330    3.3030   10.8800 C.3   100  MET100      0.0387
     45  CG        37.2080    4.5120   11.8480 C.3   100  MET100      0.0595
     46  SD        36.0090    4.2900   13.1680 S.3   100  MET100     -0.1393
     47  CE        36.7970    3.1230   14.2980 C.3   100  MET100      0.0692
     48  N         37.8830   -2.1800   10.0400 N.3   102  GLU102     -0.1245
     49  CA        38.1510   -3.1850   11.0640 C.3   102  GLU102      0.1567
     50  C         38.5700   -4.4660   10.3240 C.2   102  GLU102      0.2260
     51  O         38.0730   -4.7400    9.2090 O.2   102  GLU102     -0.2867
     52  CB        36.9240   -3.4580   11.9470 C.3   102  GLU102      0.0388
     53  CG        37.0770   -4.5260   13.0020 C.3   102  GLU102      0.1160
     54  CD        35.9470   -4.4240   14.0390 C.2   102  GLU102      0.3649
     55  OE1       35.2920   -5.4610   14.2620 O.co2 102  GLU102     -0.2457
     56  OE2       35.6720   -3.3000   14.5830 O.co2 102  GLU102     -0.2457
     57  N         22.9390    1.4800    8.7850 N.3   195  ARG195     -0.1231
     58  CA        22.9820    1.3120   10.2410 C.3   195  ARG195      0.1694
     59  C         23.6050    2.5320   10.9370 C.2   195  ARG195      0.2592
     60  O         23.0810    2.9980   11.9430 O.2   195  ARG195     -0.2718
     61  CB        23.7230    0.0120   10.6410 C.3   195  ARG195      0.0321
     62  CG        23.6590   -0.2870   12.1380 C.3   195  ARG195      0.0489
     63  CD        24.4400   -1.5920   12.5420 C.3   195  ARG195      0.2205
     64  NE        24.8240   -1.6810   13.9700 N.pl3 195  ARG195     -0.0865
     65  CZ        24.0220   -2.1080   14.9720 C.cat 195  ARG195      0.5346
     66  NH1       22.7700   -2.4580   14.7100 N.pl3 195  ARG195      0.1354
     67  NH2       24.4570   -2.1970   16.2480 N.pl3 195  ARG195      0.1354
     68  N         24.6900    3.0700   10.3860 N.am  196  PHE196     -0.1976
     69  CA        25.4940    4.0370   11.1710 C.3   196  PHE196      0.1639
     70  C         24.8720    5.4070   11.2810 C.2   196  PHE196      0.2290
     71  O         24.7130    5.9330   12.4040 O.2   196  PHE196     -0.2864
     72  CB        26.9650    4.0550   10.7530 C.3   196  PHE196      0.0560
     73  CG        27.6330    2.6690   10.7970 C.ar  196  PHE196     -0.0200
     74  CD1       27.8630    2.0140   12.0080 C.ar  196  PHE196     -0.0042
     75  CD2       27.9970    2.0190    9.6290 C.ar  196  PHE196     -0.0042
     76  CE1       28.5230    0.7600   12.0490 C.ar  196  PHE196     -0.0003
     77  CE2       28.6520    0.7440    9.6770 C.ar  196  PHE196     -0.0003
     78  CZ        28.8880    0.1340   10.8960 C.ar  196  PHE196     -0.0000
     79  N         21.6770    4.8190   13.8320 N.3   199  LEU199     -0.1245
     80  CA        22.0880    4.9140   15.2280 C.3   199  LEU199      0.1561
     81  C         22.3320    6.3450   15.6820 C.2   199  LEU199      0.2260
     82  O         21.8870    6.7260   16.7640 O.2   199  LEU199     -0.2867
     83  CB        23.3810    4.1690   15.4270 C.3   199  LEU199      0.0270
     84  CG        23.3560    2.6730   15.5580 C.3   199  LEU199      0.0019
     85  CD1       24.7750    2.2170   15.7440 C.3   199  LEU199      0.0001
     86  CD2       22.4930    2.2970   16.7530 C.3   199  LEU199      0.0001
     87  N         28.4050   11.5810   17.8650 N.3   257  MET257     -0.1245
     88  CA        28.7750   10.1660   18.0920 C.3   257  MET257      0.1570
     89  C         30.1930    9.7770   17.6090 C.2   257  MET257      0.2261
     90  O         30.8490    8.9100   18.1870 O.2   257  MET257     -0.2867
     91  CB        27.7490    9.2480   17.4130 C.3   257  MET257      0.0387
     92  CG        27.9340    7.7550   17.7000 C.3   257  MET257      0.0595
     93  SD        26.4780    6.9550   16.9510 S.3   257  MET257     -0.1393
     94  CE        26.8740    5.1980   17.0360 C.3   257  MET257      0.0692
     95  N         32.5980    6.8650   18.8210 N.3   261  MET261     -0.1245
     96  CA        32.6000    5.7130   17.9210 C.3   261  MET261      0.1570
     97  C         33.4940    5.9580   16.7220 C.2   261  MET261      0.2261
     98  O         33.7890    5.0440   15.9900 O.2   261  MET261     -0.2867
     99  CB        31.2070    5.3420   17.5250 C.3   261  MET261      0.0387
    100  CG        30.4330    4.7130   18.7030 C.3   261  MET261      0.0595
    101  SD        31.2040    3.1920   19.3070 S.3   261  MET261     -0.1393
    102  CE        29.8580    2.5270   20.3390 C.3   261  MET261      0.0692
    103  N         36.4690    6.7310   17.4140 N.3   263  CYS263     -0.1221
    104  CA        37.7450    6.2710   18.0520 C.3   263  CYS263      0.1808
    105  C         37.9270    4.7680   17.9180 C.2   263  CYS263      0.2602
    106  O         36.9030    4.0420   17.7750 O.2   263  CYS263     -0.2717
    107  CB        37.7150    6.5780   19.5390 C.3   263  CYS263      0.0970
    108  SG        38.2210    8.2890   19.8360 S.3   263  CYS263     -0.0800
    109  N         39.1750    4.2900   18.0760 N.am  264  SER264     -0.1938
    110  CA        39.5520    2.8520   17.8570 C.3   264  SER264      0.2055
    111  C         40.1170    2.1030   19.0610 C.2   264  SER264      0.2643
    112  O         40.7510    2.7100   19.9670 O.2   264  SER264     -0.2714
    113  CB        40.6250    2.7310   16.7630 C.3   264  SER264      0.2130
    114  OG        40.0890    3.0290   15.4920 O.3   264  SER264     -0.2179
    115  N         39.9500    0.7820   19.0360 N.am  265  CYS265     -0.1967
    116  CA        40.3970   -0.0310   20.1330 C.3   265  CYS265      0.1712
    117  C         40.9360   -1.3610   19.6700 C.2   265  CYS265      0.2296
    118  O         40.6300   -1.8300   18.5680 O.2   265  CYS265     -0.2864
    119  CB        39.2360   -0.3010   21.1050 C.3   265  CYS265      0.0983
    120  SG        37.9020   -1.3520   20.4250 S.3   265  CYS265     -0.0798
    121  N         40.3280   -5.3200   20.6240 N.3   267  GLN267     -0.1245
    122  CA        39.4400   -6.2300   21.3480 C.3   267  GLN267      0.1566
    123  C         39.9300   -7.6650   21.1690 C.2   267  GLN267      0.2260
    124  O         40.5360   -7.9750   20.1530 O.2   267  GLN267     -0.2867
    125  CB        37.9920   -6.1190   20.8880 C.3   267  GLN267      0.0367
    126  CG        37.2780   -4.7870   21.2340 C.3   267  GLN267      0.0905
    127  CD        35.9590   -4.6300   20.4550 C.2   267  GLN267      0.2608
    128  OE1       35.7470   -5.3460   19.4830 O.2   267  GLN267     -0.2717
    129  NE2       35.0890   -3.7050   20.8680 N.am  267  GLN267     -0.0878
    130  N         40.1780    6.7520   26.0380 N.3   312  ARG312     -0.1245
    131  CA        39.0610    7.1700   25.2100 C.3   312  ARG312      0.1563
    132  C         37.7450    6.8970   25.8800 C.2   312  ARG312      0.2260
    133  O         36.7170    7.5110   25.4780 O.2   312  ARG312     -0.2867
    134  CB        39.0530    6.4090   23.8890 C.3   312  ARG312      0.0307
    135  CG        38.6590    4.9550   24.0960 C.3   312  ARG312      0.0489
    136  CD        39.0890    3.9900   22.9930 C.3   312  ARG312      0.2205
    137  NE        38.3980    2.7090   23.2520 N.pl3 312  ARG312     -0.0865
    138  CZ        38.7850    1.8010   24.1330 C.cat 312  ARG312      0.5346
    139  NH1       39.8620    1.9610   24.9060 N.pl3 312  ARG312      0.1354
    140  NH2       38.0880    0.6970   24.2400 N.pl3 312  ARG312      0.1354
    141  N         33.6960    7.6510   24.5930 N.3   316  ILE316     -0.1245
    142  CA        32.7930    6.7670   23.8840 C.3   316  ILE316      0.1561
    143  C         31.5400    6.5540   24.6830 C.2   316  ILE316      0.2260
    144  O         30.4480    6.4240   24.0790 O.2   316  ILE316     -0.2867
    145  CB        33.4130    5.4530   23.4400 C.3   316  ILE316      0.0252
    146  CG1       34.8190    5.7110   22.9120 C.3   316  ILE316      0.0019
    147  CG2       32.5350    4.8380   22.3270 C.3   316  ILE316      0.0019
    148  CD1       35.3510    4.6030   22.1430 C.3   316  ILE316      0.0001
    149  N         26.7880    2.4680   26.9150 N.3   361  TYR361     -0.1241
    150  CA        28.1680    2.0980   26.6780 C.3   361  TYR361      0.1605
    151  C         28.8440    2.4120   28.0040 C.2   361  TYR361      0.2264
    152  O         29.0410    3.5850   28.3260 O.2   361  TYR361     -0.2867
    153  CB        28.7690    2.9500   25.5420 C.3   361  TYR361      0.0534
    154  CG        30.2220    2.6570   25.2160 C.ar  361  TYR361     -0.0201
    155  CD1       30.5720    2.0660   24.0030 C.ar  361  TYR361     -0.0009
    156  CD2       31.2470    2.9650   26.1100 C.ar  361  TYR361     -0.0009
    157  CE1       31.9050    1.7790   23.6950 C.ar  361  TYR361      0.0417
    158  CE2       32.5780    2.7060   25.8020 C.ar  361  TYR361      0.0417
    159  CZ        32.8910    2.1030   24.5810 C.ar  361  TYR361      0.1957
    160  OH        34.2150    1.8570   24.2210 O.3   361  TYR361     -0.2866
    161  N         27.1980   -1.7930   25.2040 N.3   444  TRP444     -0.1241
    162  CA        28.6640   -1.8490   24.9380 C.3   444  TRP444      0.1605
    163  C         29.4470   -1.6690   26.2360 C.2   444  TRP444      0.2264
    164  O         29.5430   -0.5550   26.7470 O.2   444  TRP444     -0.2867
    165  CB        29.0840   -0.6640   24.0420 C.3   444  TRP444      0.0550
    166  CG        28.5460   -0.6450   22.6240 C.ar  444  TRP444      0.0003
    167  CD1       29.0020   -1.3690   21.5660 C.ar  444  TRP444      0.0946
    168  CD2       27.4600    0.1580   22.1190 C.ar  444  TRP444      0.0152
    169  NE1       28.2490   -1.1070   20.4390 N.ar  444  TRP444     -0.2442
    170  CE2       27.3260   -0.1340   20.7420 C.ar  444  TRP444      0.0810
    171  CE3       26.5540    1.0670   22.7170 C.ar  444  TRP444      0.0012
    172  CZ2       26.3180    0.4800   19.9180 C.ar  444  TRP444      0.0191
    173  CZ3       25.5690    1.7050   21.9030 C.ar  444  TRP444      0.0001
    174  CH2       25.4770    1.4050   20.5170 C.ar  444  TRP444      0.0015
    175  N         31.9930   -8.6120   27.1420 N.3   448  ARG448     -0.1245
    176  CA        30.6980   -9.0030   26.6560 C.3   448  ARG448      0.1563
    177  C         30.6650  -10.5220   26.7800 C.2   448  ARG448      0.2260
    178  O         31.6420  -11.2410   26.4150 O.2   448  ARG448     -0.2867
    179  CB        30.4990   -8.5860   25.1910 C.3   448  ARG448      0.0307
    180  CG        29.1290   -8.8270   24.6790 C.3   448  ARG448      0.0489
    181  CD        28.9320   -8.2430   23.3070 C.3   448  ARG448      0.2205
    182  NE        28.7360   -6.8120   23.4030 N.pl3 448  ARG448     -0.0865
    183  CZ        28.6880   -5.9830   22.3640 C.cat 448  ARG448      0.5346
    184  NH1       28.8870   -6.4180   21.1030 N.pl3 448  ARG448      0.1354
    185  NH2       28.4390   -4.7250   22.5970 N.pl3 448  ARG448      0.1354
    186  N         34.1320  -11.6400   25.4330 N.3   469  GLU469     -0.1245
    187  CA        34.8590  -10.5380   24.7950 C.3   469  GLU469      0.1567
    188  C         35.4550   -9.5680   25.7900 C.2   469  GLU469      0.2260
    189  O         34.7550   -9.0460   26.6740 O.2   469  GLU469     -0.2867
    190  CB        33.9330   -9.7570   23.8500 C.3   469  GLU469      0.0388
    191  CG        34.6870   -8.8300   22.8990 C.3   469  GLU469      0.1160
    192  CD        33.7960   -8.0210   21.9590 C.2   469  GLU469      0.3649
    193  OE1       32.5800   -7.8460   22.1840 O.co2 469  GLU469     -0.2457
    194  OE2       34.3700   -7.4820   20.9810 O.co2 469  GLU469     -0.2457
    195  N         36.9840   -6.0240   26.0340 N.3   471  ARG471     -0.1245
    196  CA        36.7680   -4.8070   25.1970 C.3   471  ARG471      0.1563
    197  C         37.5370   -3.4910   25.5230 C.2   471  ARG471      0.2260
    198  O         37.4800   -2.5810   24.7210 O.2   471  ARG471     -0.2867
    199  CB        35.2810   -4.5000   25.1280 C.3   471  ARG471      0.0307
    200  CG        34.5370   -5.6810   24.4560 C.3   471  ARG471      0.0489
    201  CD        33.0390   -5.5910   24.5900 C.3   471  ARG471      0.2205
    202  NE        32.6200   -4.3120   24.0420 N.pl3 471  ARG471     -0.0865
    203  CZ        32.3030   -4.0980   22.7640 C.cat 471  ARG471      0.5346
    204  NH1       32.2920   -5.1320   21.8910 N.pl3 471  ARG471      0.1354
    205  NH2       32.0110   -2.8520   22.3510 N.pl3 471  ARG471      0.1354
@<TRIPOS>BOND
     1    43    42    2
     2    40    41    1
     3    57    58    1
     4    42    41    1
     5    51    50    2
     6    41    44    1
     7    75    77   ar
     8    75    73   ar
     9    77    78   ar
    10    48    49    1
    11    19    20    1
    12    58    61    1
    13    58    59    1
    14    22    21    2
    15    50    49    1
    16    68    59   am
    17    68    69    1
    18    61    62    1
    19    72    73    1
    20    72    69    1
    21    73    74   ar
    22    31    30    2
    23    44    45    1
    24    78    76   ar
    25    59    60    2
    26    49    52    1
    27    69    70    1
    28    70    71    2
    29    21    20    1
    30    21    28   am
    31    20    23    1
    32    30    29    1
    33    45    46    1
    34    52    53    1
    35    74    76   ar
    36    62    63    1
    37    23    24    1
    38    63    64    1
    39    28    29    1
    40    29    32    1
    41    53    54    1
    42    46    47    1
    43    24    25    1
    44    12    11    1
    45    12    13    2
    46    36    34   ar
    47    36    38   ar
    48    79    80    1
    49    34    33   ar
    50    39    38    1
    51    38    37   ar
    52    32    33    1
    53    64    65    2
    54    33    35   ar
    55    37    35   ar
    56    54    55   ar
    57    54    56   ar
    58    11    10    1
    59    11    14    1
    60    25    26   ar
    61    25    27   ar
    62    66    65    1
    63    65    67    1
    64    14    15    1
    65    80    83    1
    66    80    81    1
    67    83    84    1
    68    15    16    1
    69   114   113    1
    70    84    85    1
    71    84    86    1
    72    81    82    2
    73    98    97    2
    74     2     3    1
    75     2     5    1
    76     2     1    1
    77     3     4    2
    78     6     5    1
    79     6     7    1
    80    16    18   ar
    81    16    17   ar
    82    97    96    1
    83   113   110    1
    84    93    94    1
    85    93    92    1
    86     9     7   ar
    87     7     8   ar
    88    91    92    1
    89    91    88    1
    90   103   104    1
    91    99    96    1
    92    99   100    1
    93    89    88    1
    94    89    90    2
    95   106   105    2
    96   110   109    1
    97   110   111    1
    98    87    88    1
    99   105   104    1
   100   105   109   am
   101    96    95    1
   102   104   107    1
   103   118   117    2
   104   100   101    1
   105   115   111   am
   106   115   116    1
   107   111   112    2
   108   101   102    1
   109   128   127    2
   110   107   108    1
   111   117   116    1
   112   172   174   ar
   113   172   170   ar
   114   116   119    1
   115   124   123    2
   116   120   119    1
   117   169   170   ar
   118   169   167   ar
   119   127   129   am
   120   127   126    1
   121   174   173   ar
   122   121   122    1
   123   170   168   ar
   124   125   126    1
   125   125   122    1
   126   194   192   ar
   127   184   183    1
   128   123   122    1
   129   167   166   ar
   130   204   203    1
   131   173   171   ar
   132   192   193   ar
   133   192   191    1
   134   168   166   ar
   135   168   171   ar
   136   148   146    1
   137   147   145    1
   138   205   203    1
   139   183   185    1
   140   183   182    2
   141   166   165    1
   142   203   202    2
   143   191   190    1
   144   146   145    1
   145   136   137    1
   146   136   135    1
   147   137   138    2
   148   181   182    1
   149   181   180    1
   150   145   142    1
   151   157   155   ar
   152   157   159   ar
   153   190   187    1
   154   142   141    1
   155   142   143    1
   156   134   135    1
   157   134   131    1
   158   155   154   ar
   159   202   201    1
   160   165   162    1
   161   144   143    2
   162   138   140    1
   163   138   139    1
   164   160   159    1
   165   200   201    1
   166   200   199    1
   167   159   158   ar
   168   180   179    1
   169   198   197    2
   170   187   186    1
   171   187   188    1
   172   162   161    1
   173   162   163    1
   174   199   196    1
   175   179   176    1
   176   196   197    1
   177   196   195    1
   178   131   132    1
   179   131   130    1
   180   154   153    1
   181   154   156   ar
   182   133   132    2
   183   153   150    1
   184   188   189    2
   185   158   156   ar
   186   163   164    2
   187   178   177    2
   188   176   177    1
   189   176   175    1
   190   150   149    1
   191   150   151    1
   192   151   152    2
