@<TRIPOS>MOLECULE
tmp/3lvvA02.pdb
 109 111 0 0 0
SMALL
GASTEIGER

@<TRIPOS>ATOM
      1  N         37.0920   16.7730   14.1120 N.3   162  GLY162     -0.1210
      2  CA        36.1650   17.9040   14.2490 C.3   162  GLY162      0.1956
      3  C         36.8160   19.2790   14.2570 C.2   162  GLY162      0.2612
      4  O         36.1640   20.2540   14.6510 O.2   162  GLY162     -0.2717
      5  N         38.0830   19.3740   13.8360 N.am  163  CYS163     -0.1956
      6  CA        38.8170   20.6430   13.7200 C.3   163  CYS163      0.1828
      7  C         38.9620   21.0460   12.2450 C.2   163  CYS163      0.2467
      8  O         38.7650   20.2190   11.3480 O.2   163  CYS163     -0.2730
      9  CB        40.2230   20.5390   14.3140 C.3   163  CYS163      0.0996
     10  SG        40.2880   20.1870   16.0570 S.3   163  CYS163     -0.0797
     11  N         39.2810   22.3380   11.9890 N.am  164  PRO164     -0.2715
     12  CA        39.3010   22.7530   10.5850 C.3   164  PRO164      0.1536
     13  C         40.2910   21.9590    9.7280 C.2   164  PRO164      0.2599
     14  O         41.3990   21.6150   10.1850 O.2   164  PRO164     -0.2715
     15  CB        39.6030   24.2750   10.6660 C.3   164  PRO164      0.0310
     16  CG        38.9650   24.6420   12.0480 C.3   164  PRO164      0.0237
     17  CD        39.5340   23.4820   12.8810 C.3   164  PRO164      0.0939
     18  N         39.8280   21.6340    8.5270 N.am  165  ASP165     -0.1958
     19  CA        40.6010   20.8710    7.5260 C.3   165  ASP165      0.1840
     20  C         40.9790   19.4650    7.8990 C.2   165  ASP165      0.2622
     21  O         42.0440   19.0170    7.4990 O.2   165  ASP165     -0.2715
     22  CB        41.8670   21.6380    7.1620 C.3   165  ASP165      0.1450
     23  CG        41.5530   23.0380    6.7110 C.2   165  ASP165      0.3671
     24  OD1       40.4490   23.1620    6.1610 O.co2 165  ASP165     -0.2456
     25  OD2       42.3600   23.9790    6.9500 O.co2 165  ASP165     -0.2456
     26  N         40.1190   18.7640    8.6470 N.am  166  PHE166     -0.1960
     27  CA        40.5160   17.4720    9.2370 C.3   166  PHE166      0.1771
     28  C         40.0960   16.3040    8.3770 C.2   166  PHE166      0.2619
     29  O         40.5310   15.2170    8.6150 O.2   166  PHE166     -0.2715
     30  CB        40.0030   17.3150   10.6880 C.3   166  PHE166      0.0574
     31  CG        38.5780   16.8130   10.7860 C.ar  166  PHE166     -0.0200
     32  CD1       38.3010   15.4720   11.1170 C.ar  166  PHE166     -0.0042
     33  CD2       37.5050   17.6740   10.5320 C.ar  166  PHE166     -0.0042
     34  CE1       36.9590   15.0050   11.1980 C.ar  166  PHE166     -0.0003
     35  CE2       36.1860   17.2200   10.5960 C.ar  166  PHE166     -0.0003
     36  CZ        35.9010   15.8790   10.9180 C.ar  166  PHE166     -0.0000
     37  N         39.2000   16.5300    7.4230 N.am  167  ILE167     -0.1977
     38  CA        38.8250   15.5040    6.4410 C.3   167  ILE167      0.1596
     39  C         39.1500   15.9860    5.0420 C.2   167  ILE167      0.2287
     40  O         39.0570   17.1810    4.7570 O.2   167  ILE167     -0.2864
     41  CB        37.3200   15.0820    6.5020 C.3   167  ILE167      0.0276
     42  CG1       36.3740   16.3050    6.4480 C.3   167  ILE167      0.0022
     43  CG2       37.0550   14.3120    7.8000 C.3   167  ILE167      0.0022
     44  CD1       34.9380   15.9590    6.0310 C.3   167  ILE167      0.0001
     45  N         33.2020   20.9260    3.3580 N.3   172  PRO172     -0.2102
     46  CA        32.2100   19.9700    3.7890 C.3   172  PRO172      0.1504
     47  C         31.0360   20.6860    4.4530 C.2   172  PRO172      0.2575
     48  O         29.9960   20.0750    4.7170 O.2   172  PRO172     -0.2718
     49  CB        32.9720   19.1660    4.8230 C.3   172  PRO172      0.0282
     50  CG        33.9700   20.1600    5.3920 C.3   172  PRO172      0.0208
     51  CD        34.3830   20.9540    4.2470 C.3   172  PRO172      0.0893
     52  N         31.1920   21.9760    4.7340 N.am  173  TRP173     -0.1977
     53  CA        30.1180   22.6880    5.4070 C.3   173  TRP173      0.1640
     54  C         29.1920   23.3820    4.4010 C.2   173  TRP173      0.2290
     55  O         28.3260   24.1710    4.7910 O.2   173  TRP173     -0.2864
     56  CB        30.6780   23.6910    6.3950 C.3   173  TRP173      0.0576
     57  CG        31.2880   23.0680    7.6640 C.ar  173  TRP173      0.0006
     58  CD1       32.5370   23.3180    8.1690 C.ar  173  TRP173      0.0946
     59  CD2       30.6640   22.1360    8.5770 C.ar  173  TRP173      0.0152
     60  NE1       32.7230   22.6200    9.3370 N.ar  173  TRP173     -0.2442
     61  CE2       31.5890   21.8960    9.6240 C.ar  173  TRP173      0.0810
     62  CE3       29.4090   21.4930    8.6240 C.ar  173  TRP173      0.0012
     63  CZ2       31.3150   20.9990   10.7060 C.ar  173  TRP173      0.0191
     64  CZ3       29.1300   20.6100    9.7180 C.ar  173  TRP173      0.0001
     65  CH2       30.0960   20.3760   10.7290 C.ar  173  TRP173      0.0015
     66  N         28.2120   20.5200   15.5670 N.3   183  LEU183     -0.1231
     67  CA        28.9530   21.7150   15.1790 C.3   183  LEU183      0.1693
     68  C         30.3290   21.4290   14.5360 C.2   183  LEU183      0.2592
     69  O         30.9670   22.3410   13.9980 O.2   183  LEU183     -0.2718
     70  CB        29.2060   22.5840   16.4110 C.3   183  LEU183      0.0284
     71  CG        28.0290   23.1120   17.2340 C.3   183  LEU183      0.0019
     72  CD1       28.6460   24.0110   18.2940 C.3   183  LEU183      0.0001
     73  CD2       27.0890   23.8840   16.3000 C.3   183  LEU183      0.0001
     74  N         30.7950   20.1800   14.6130 N.am  184  PHE184     -0.1976
     75  CA        32.1870   19.8400   14.2720 C.3   184  PHE184      0.1639
     76  C         32.4050   18.7160   13.2890 C.2   184  PHE184      0.2290
     77  O         33.3690   18.7580   12.5560 O.2   184  PHE184     -0.2864
     78  CB        32.9720   19.4940   15.5090 C.3   184  PHE184      0.0560
     79  CG        32.7100   20.4060   16.6320 C.ar  184  PHE184     -0.0200
     80  CD1       33.3590   21.6370   16.6920 C.ar  184  PHE184     -0.0042
     81  CD2       31.8280   20.0190   17.6620 C.ar  184  PHE184     -0.0042
     82  CE1       33.1290   22.5070   17.7480 C.ar  184  PHE184     -0.0003
     83  CE2       31.5750   20.8720   18.7360 C.ar  184  PHE184     -0.0003
     84  CZ        32.2320   22.1350   18.7740 C.ar  184  PHE184     -0.0000
     85  N         30.9950   16.9840   10.0820 N.3   186  PRO186     -0.2116
     86  CA        30.1370   16.6790    8.9580 C.3   186  PRO186      0.1372
     87  C         29.7740   15.1880    8.9540 C.2   186  PRO186      0.2244
     88  O         30.5340   14.3790    9.4990 O.2   186  PRO186     -0.2868
     89  CB        31.0180   17.0120    7.7360 C.3   186  PRO186      0.0268
     90  CG        31.9640   18.0480    8.2340 C.3   186  PRO186      0.0207
     91  CD        32.2630   17.6280    9.6590 C.3   186  PRO186      0.0892
     92  N         36.6850   26.8200   20.6000 N.3   229  SER229     -0.1217
     93  CA        36.2060   26.3840   19.3140 C.3   229  SER229      0.1889
     94  C         34.6560   26.4150   19.2100 C.2   229  SER229      0.2288
     95  O         34.1120   26.3310   18.1130 O.2   229  SER229     -0.2866
     96  CB        36.7350   24.9910   18.9690 C.3   229  SER229      0.2089
     97  OG        35.8990   23.9890   19.5820 O.3   229  SER229     -0.2183
     98  N         30.8830   27.6390   18.7520 N.3   231  TYR231     -0.1241
     99  CA        30.3880   28.7720   18.0150 C.3   231  TYR231      0.1605
    100  C         28.8900   28.6690   17.9620 C.2   231  TYR231      0.2264
    101  O         28.3130   27.6180   18.2220 O.2   231  TYR231     -0.2867
    102  CB        31.0140   28.9390   16.5900 C.3   231  TYR231      0.0534
    103  CG        30.7420   27.7840   15.6210 C.ar  231  TYR231     -0.0201
    104  CD1       31.4880   26.6100   15.6830 C.ar  231  TYR231     -0.0009
    105  CD2       29.7500   27.8720   14.6490 C.ar  231  TYR231     -0.0009
    106  CE1       31.2260   25.5300   14.8210 C.ar  231  TYR231      0.0417
    107  CE2       29.4800   26.7880   13.7650 C.ar  231  TYR231      0.0417
    108  CZ        30.2360   25.6270   13.8780 C.ar  231  TYR231      0.1957
    109  OH        30.0290   24.5780   13.0380 O.3   231  TYR231     -0.2866
@<TRIPOS>BOND
     1    45    46    1
     2    45    51    1
     3    46    47    1
     4    46    49    1
     5    51    50    1
     6    54    55    2
     7    54    53    1
     8    47    48    2
     9    47    52   am
    10    52    53    1
    11    40    39    2
    12    49    50    1
    13    39    38    1
    14    53    56    1
    15    44    42    1
    16    24    23   ar
    17    56    57    1
    18    38    41    1
    19    38    37    1
    20    42    41    1
    21    41    43    1
    22    23    25   ar
    23    23    22    1
    24    22    19    1
    25    37    28   am
    26    21    20    2
    27    19    20    1
    28    19    18    1
    29    57    58   ar
    30    57    59   ar
    31    89    90    1
    32    89    86    1
    33    20    26   am
    34    58    60   ar
    35    90    91    1
    36    28    29    2
    37    28    27    1
    38    18    13   am
    39    59    62   ar
    40    59    61   ar
    41    62    64   ar
    42    26    27    1
    43    87    86    1
    44    87    88    2
    45    86    85    1
    46    27    30    1
    47    60    61   ar
    48    61    63   ar
    49    91    85    1
    50    64    65   ar
    51    13    14    2
    52    13    12    1
    53    33    35   ar
    54    33    31   ar
    55    12    15    1
    56    12    11    1
    57    35    36   ar
    58    15    16    1
    59    30    31    1
    60    63    65   ar
    61    31    32   ar
    62    36    34   ar
    63    32    34   ar
    64     8     7    2
    65    11     7   am
    66    11    17    1
    67    16    17    1
    68     7     6    1
    69    77    76    2
    70   109   108    1
    71    76    75    1
    72     6     5    1
    73     6     9    1
    74   107   108   ar
    75   107   105   ar
    76     5     3   am
    77   108   106   ar
    78    69    68    2
    79     1     2    1
    80     2     3    1
    81     3     4    2
    82    75    74    1
    83    75    78    1
    84     9    10    1
    85    68    74   am
    86    68    67    1
    87   105   103   ar
    88   106   104   ar
    89    67    66    1
    90    67    70    1
    91    78    79    1
    92   103   104   ar
    93   103   102    1
    94    73    71    1
    95    70    71    1
    96   102    99    1
    97    79    80   ar
    98    79    81   ar
    99    80    82   ar
   100    71    72    1
   101    81    83   ar
   102    82    84   ar
   103   100    99    1
   104   100   101    2
   105    99    98    1
   106    95    94    2
   107    83    84   ar
   108    96    93    1
   109    96    97    1
   110    94    93    1
   111    93    92    1
