@<TRIPOS>MOLECULE
tmp/3lvvA01.pdb
 197 190 0 0 0
SMALL
GASTEIGER

@<TRIPOS>ATOM
      1  N         39.2620  -21.5320   21.2410 N.3    45  PHE45      -0.1227
      2  CA        39.3090  -20.6210   20.0930 C.3    45  PHE45       0.1736
      3  C         39.3050  -19.1700   20.6280 C.2    45  PHE45       0.2595
      4  O         38.6670  -18.8730   21.6370 O.2    45  PHE45      -0.2718
      5  CB        38.1040  -20.8130   19.1640 C.3    45  PHE45       0.0547
      6  CG        38.1730  -22.0960   18.2780 C.ar   45  PHE45      -0.0202
      7  CD1       39.3610  -22.5140   17.7080 C.ar   45  PHE45      -0.0042
      8  CD2       37.0030  -22.8410   18.0090 C.ar   45  PHE45      -0.0042
      9  CE1       39.4150  -23.6580   16.8950 C.ar   45  PHE45      -0.0003
     10  CE2       37.0330  -23.9830   17.2000 C.ar   45  PHE45      -0.0003
     11  CZ        38.2350  -24.4060   16.6530 C.ar   45  PHE45      -0.0000
     12  N         40.0190  -18.2930   19.9320 N.am   46  TRP46      -0.1962
     13  CA        40.0380  -16.8870   20.3100 C.3    46  TRP46       0.1771
     14  C         40.4940  -16.0660   19.1010 C.2    46  TRP46       0.2620
     15  O         40.9560  -16.6370   18.1250 O.2    46  TRP46      -0.2715
     16  CB        40.9410  -16.7290   21.5380 C.3    46  TRP46       0.0590
     17  CG        42.3890  -17.0490   21.3600 C.ar   46  TRP46       0.0006
     18  CD1       42.9780  -18.2870   21.2310 C.ar   46  TRP46       0.0946
     19  CD2       43.4400  -16.1000   21.3150 C.ar   46  TRP46       0.0152
     20  NE1       44.3580  -18.1550   21.0880 N.ar   46  TRP46      -0.2442
     21  CE2       44.6650  -16.8230   21.1420 C.ar   46  TRP46       0.0810
     22  CE3       43.4700  -14.6860   21.3700 C.ar   46  TRP46       0.0012
     23  CZ2       45.9100  -16.1770   21.0390 C.ar   46  TRP46       0.0191
     24  CZ3       44.6620  -14.0600   21.2520 C.ar   46  TRP46       0.0001
     25  CH2       45.8930  -14.7950   21.1310 C.ar   46  TRP46       0.0015
     26  N         40.3110  -14.7490   19.1110 N.am   47  GLY47      -0.1940
     27  CA        40.7780  -13.9270   17.9880 C.3    47  GLY47       0.2014
     28  C         40.7200  -12.4860   18.3800 C.2    47  GLY47       0.2639
     29  O         40.0280  -12.1330   19.3410 O.2    47  GLY47      -0.2714
     30  N         41.4510  -11.6230   17.6700 N.am   48  ASP48      -0.1957
     31  CA        41.3780  -10.1880   17.9620 C.3    48  ASP48       0.1840
     32  C         40.5500   -9.4120   16.8880 C.2    48  ASP48       0.2621
     33  O         40.2910   -9.9250   15.8150 O.2    48  ASP48      -0.2715
     34  CB        42.7860   -9.6710   18.0460 C.3    48  ASP48       0.1450
     35  CG        43.4590   -9.7270   16.7150 C.2    48  ASP48       0.3671
     36  OD1       43.8000  -10.8480   16.2410 O.co2  48  ASP48      -0.2456
     37  OD2       43.5890   -8.6520   16.1160 O.co2  48  ASP48      -0.2456
     38  N         40.0930   -8.2120   17.2280 N.am   49  GLU49      -0.1977
     39  CA        39.5340   -7.2690   16.2920 C.3    49  GLU49       0.1602
     40  C         40.4170   -6.0310   16.3670 C.2    49  GLU49       0.2287
     41  O         40.5810   -5.4980   17.4720 O.2    49  GLU49      -0.2864
     42  CB        38.1500   -6.8780   16.7370 C.3    49  GLU49       0.0415
     43  CG        37.0770   -7.9230   16.4970 C.3    49  GLU49       0.1163
     44  CD        35.8890   -7.6520   17.3770 C.2    49  GLU49       0.3649
     45  OE1       35.8720   -8.1790   18.5280 O.co2  49  GLU49      -0.2457
     46  OE2       35.0140   -6.8500   16.9510 O.co2  49  GLU49      -0.2457
     47  N         35.7640   -5.6690    7.9630 N.3    93  HIS93      -0.1241
     48  CA        34.3830   -5.1530    7.9440 C.3    93  HIS93       0.1621
     49  C         34.2720   -3.6890    8.3270 C.2    93  HIS93       0.2264
     50  O         35.2460   -3.1100    8.7460 O.2    93  HIS93      -0.2867
     51  CB        33.3940   -6.0050    8.7510 C.3    93  HIS93       0.0745
     52  CG        33.9840   -6.6740    9.9410 C.ar   93  HIS93       0.0817
     53  ND1       34.3400   -8.0090    9.9350 N.ar   93  HIS93      -0.2268
     54  CD2       34.2570   -6.2070   11.1840 C.ar   93  HIS93       0.1154
     55  CE1       34.8370   -8.3270   11.1220 C.ar   93  HIS93       0.1986
     56  NE2       34.7970   -7.2520   11.8970 N.ar   93  HIS93      -0.2212
     57  N         33.2950   -0.1760   10.2030 N.3    95  GLU95      -0.1245
     58  CA        33.1310    0.3960   11.5290 C.3    95  GLU95       0.1567
     59  C         32.3600    1.7460   11.4160 C.2    95  GLU95       0.2260
     60  O         32.1420    2.2590   10.2760 O.2    95  GLU95      -0.2867
     61  CB        34.4790    0.5620   12.2090 C.3    95  GLU95       0.0388
     62  CG        34.7160   -0.4740   13.3150 C.3    95  GLU95       0.1160
     63  CD        33.6310   -0.4580   14.4620 C.2    95  GLU95       0.3649
     64  OE1       32.9180    0.5790   14.7070 O.co2  95  GLU95      -0.2457
     65  OE2       33.4820   -1.5340   15.1170 O.co2  95  GLU95      -0.2457
     66  N         37.8830   -2.1800   10.0400 N.3   102  GLU102     -0.1245
     67  CA        38.1510   -3.1850   11.0640 C.3   102  GLU102      0.1567
     68  C         38.5700   -4.4660   10.3240 C.2   102  GLU102      0.2260
     69  O         38.0730   -4.7400    9.2090 O.2   102  GLU102     -0.2867
     70  CB        36.9240   -3.4580   11.9470 C.3   102  GLU102      0.0388
     71  CG        37.0770   -4.5260   13.0020 C.3   102  GLU102      0.1160
     72  CD        35.9470   -4.4240   14.0390 C.2   102  GLU102      0.3649
     73  OE1       35.2920   -5.4610   14.2620 O.co2 102  GLU102     -0.2457
     74  OE2       35.6720   -3.3000   14.5830 O.co2 102  GLU102     -0.2457
     75  N         40.0210   -8.7600   11.3100 N.3   104  THR104     -0.1204
     76  CA        40.2300   -9.8640   12.2570 C.3   104  THR104      0.1979
     77  C         40.8760  -11.0150   11.4850 C.2   104  THR104      0.2459
     78  O         40.8660  -10.9670   10.2640 O.2   104  THR104     -0.2732
     79  CB        38.8670  -10.4170   12.7570 C.3   104  THR104      0.1783
     80  OG1       38.1490  -10.9420   11.6520 O.3   104  THR104     -0.2211
     81  CG2       37.9990   -9.3290   13.4150 C.3   104  THR104      0.0376
     82  N         41.4570  -12.0320   12.1680 N.am  105  PRO105     -0.2728
     83  CA        41.8160  -13.2080   11.3580 C.3   105  PRO105      0.1401
     84  C         40.5150  -13.8390   10.8020 C.2   105  PRO105      0.2269
     85  O         39.3910  -13.5670   11.3530 O.2   105  PRO105     -0.2865
     86  CB        42.5340  -14.1590   12.3660 C.3   105  PRO105      0.0296
     87  CG        41.9570  -13.7380   13.7440 C.3   105  PRO105      0.0237
     88  CD        41.8030  -12.2040   13.6060 C.3   105  PRO105      0.0939
     89  N         39.3880  -18.2440   13.9500 N.3   108  PRO108     -0.2116
     90  CA        39.9810  -17.9800   15.2930 C.3   108  PRO108      0.1372
     91  C         41.2950  -18.6880   15.4740 C.2   108  PRO108      0.2244
     92  O         41.5210  -19.7380   14.8570 O.2   108  PRO108     -0.2868
     93  CB        38.9220  -18.5190   16.2700 C.3   108  PRO108      0.0268
     94  CG        38.0800  -19.4530   15.4590 C.3   108  PRO108      0.0207
     95  CD        38.0790  -18.9100   14.0490 C.3   108  PRO108      0.0892
     96  N         40.3280   -5.3200   20.6240 N.3   267  GLN267     -0.1245
     97  CA        39.4400   -6.2300   21.3480 C.3   267  GLN267      0.1566
     98  C         39.9300   -7.6650   21.1690 C.2   267  GLN267      0.2260
     99  O         40.5360   -7.9750   20.1530 O.2   267  GLN267     -0.2867
    100  CB        37.9920   -6.1190   20.8880 C.3   267  GLN267      0.0367
    101  CG        37.2780   -4.7870   21.2340 C.3   267  GLN267      0.0905
    102  CD        35.9590   -4.6300   20.4550 C.2   267  GLN267      0.2608
    103  OE1       35.7470   -5.3460   19.4830 O.2   267  GLN267     -0.2717
    104  NE2       35.0890   -3.7050   20.8680 N.am  267  GLN267     -0.0878
    105  N         38.5170  -11.8420   21.9990 N.3   269  THR269     -0.1203
    106  CA        37.3540  -12.6860   22.3020 C.3   269  THR269      0.1994
    107  C         37.7920  -14.1620   22.4700 C.2   269  THR269      0.2618
    108  O         38.5980  -14.6260   21.6910 O.2   269  THR269     -0.2717
    109  CB        36.2990  -12.6270   21.1860 C.3   269  THR269      0.1784
    110  OG1       35.9600  -11.2540   20.8860 O.3   269  THR269     -0.2211
    111  CG2       35.0060  -13.3460   21.6260 C.3   269  THR269      0.0376
    112  N         37.2850  -14.8470   23.5180 N.am  270  PHE270     -0.1961
    113  CA        37.7630  -16.1830   23.9180 C.3   270  PHE270      0.1771
    114  C         36.5990  -17.1110   24.1230 C.2   270  PHE270      0.2619
    115  O         35.5680  -16.7370   24.7010 O.2   270  PHE270     -0.2715
    116  CB        38.5890  -16.1400   25.2400 C.3   270  PHE270      0.0574
    117  CG        39.7170  -15.1400   25.1970 C.ar  270  PHE270     -0.0200
    118  CD1       40.9920  -15.5360   24.8100 C.ar  270  PHE270     -0.0042
    119  CD2       39.4990  -13.8030   25.5010 C.ar  270  PHE270     -0.0042
    120  CE1       42.0120  -14.6590   24.7400 C.ar  270  PHE270     -0.0003
    121  CE2       40.5580  -12.8830   25.4330 C.ar  270  PHE270     -0.0003
    122  CZ        41.8050  -13.3120   25.0500 C.ar  270  PHE270     -0.0000
    123  N         36.7820  -18.3510   23.7040 N.am  271  GLN271     -0.1977
    124  CA        35.7350  -19.3300   23.8950 C.3   271  GLN271      0.1601
    125  C         36.0820  -20.1860   25.0670 C.2   271  GLN271      0.2287
    126  O         37.1380  -20.7590   25.0990 O.2   271  GLN271     -0.2864
    127  CB        35.5790  -20.1910   22.6200 C.3   271  GLN271      0.0394
    128  CG        34.4540  -21.2180   22.6780 C.3   271  GLN271      0.0908
    129  CD        34.2290  -21.8660   21.3470 C.2   271  GLN271      0.2608
    130  OE1       33.4180  -21.3710   20.5470 O.2   271  GLN271     -0.2717
    131  NE2       34.9750  -22.9630   21.0650 N.am  271  GLN271     -0.0878
    132  N         31.9930   -8.6120   27.1420 N.3   448  ARG448     -0.1245
    133  CA        30.6980   -9.0030   26.6560 C.3   448  ARG448      0.1563
    134  C         30.6650  -10.5220   26.7800 C.2   448  ARG448      0.2260
    135  O         31.6420  -11.2410   26.4150 O.2   448  ARG448     -0.2867
    136  CB        30.4990   -8.5860   25.1910 C.3   448  ARG448      0.0307
    137  CG        29.1290   -8.8270   24.6790 C.3   448  ARG448      0.0489
    138  CD        28.9320   -8.2430   23.3070 C.3   448  ARG448      0.2205
    139  NE        28.7360   -6.8120   23.4030 N.pl3 448  ARG448     -0.0865
    140  CZ        28.6880   -5.9830   22.3640 C.cat 448  ARG448      0.5346
    141  NH1       28.8870   -6.4180   21.1030 N.pl3 448  ARG448      0.1354
    142  NH2       28.4390   -4.7250   22.5970 N.pl3 448  ARG448      0.1354
    143  N         28.9160  -13.5690   25.4370 N.3   450  LYS450     -0.1245
    144  CA        28.3020  -13.8750   24.1370 C.3   450  LYS450      0.1561
    145  C         27.6800  -15.2940   23.9870 C.2   450  LYS450      0.2260
    146  O         28.3920  -16.2940   23.8210 O.2   450  LYS450     -0.2867
    147  CB        29.3630  -13.6710   23.0730 C.3   450  LYS450      0.0271
    148  CG        29.8890  -12.2270   23.0100 C.3   450  LYS450      0.0035
    149  CD        31.2630  -12.1330   22.4300 C.3   450  LYS450      0.0206
    150  CE        31.3020  -12.5950   21.0010 C.3   450  LYS450      0.1093
    151  NZ        30.4710  -11.7420   20.1460 N.3   450  LYS450     -0.1314
    152  N         32.0990  -27.3850   15.8220 N.3   462  ASP462     -0.1239
    153  CA        32.8340  -26.2540   15.2530 C.3   462  ASP462      0.1674
    154  C         32.1490  -24.9280   15.3840 C.2   462  ASP462      0.2266
    155  O         32.7640  -23.8960   15.0790 O.2   462  ASP462     -0.2867
    156  CB        33.1900  -26.5060   13.7820 C.3   462  ASP462      0.1410
    157  CG        34.4240  -27.3770   13.6570 C.2   462  ASP462      0.3668
    158  OD1       35.5260  -26.8790   14.0320 O.co2 462  ASP462     -0.2456
    159  OD2       34.2700  -28.5650   13.2550 O.co2 462  ASP462     -0.2456
    160  N         30.6970  -21.6190   17.0520 N.3   464  PRO464     -0.2116
    161  CA        31.0180  -20.7800   18.2170 C.3   464  PRO464      0.1372
    162  C         30.1680  -21.1030   19.4610 C.2   464  PRO464      0.2244
    163  O         28.9010  -21.2120   19.3940 O.2   464  PRO464     -0.2868
    164  CB        30.7720  -19.3570   17.7070 C.3   464  PRO464      0.0268
    165  CG        30.9350  -19.4560   16.2150 C.3   464  PRO464      0.0207
    166  CD        30.3980  -20.8100   15.8570 C.3   464  PRO464      0.0892
    167  N         31.0590  -17.3920   24.6890 N.3   467  ARG467     -0.1245
    168  CA        32.3300  -16.6100   24.5610 C.3   467  ARG467      0.1563
    169  C         32.4010  -15.3920   25.4640 C.2   467  ARG467      0.2260
    170  O         31.3720  -14.8440   25.8910 O.2   467  ARG467     -0.2867
    171  CB        32.6080  -16.2170   23.1030 C.3   467  ARG467      0.0307
    172  CG        33.0080  -17.3810   22.2080 C.3   467  ARG467      0.0489
    173  CD        32.5010  -17.2060   20.7760 C.3   467  ARG467      0.2205
    174  NE        31.0800  -17.3510   20.9090 N.pl3 467  ARG467     -0.0865
    175  CZ        30.1890  -16.6140   20.2860 C.cat 467  ARG467      0.5346
    176  NH1       30.5870  -15.7040   19.3970 N.pl3 467  ARG467      0.1354
    177  NH2       28.9000  -16.8170   20.5510 N.pl3 467  ARG467      0.1354
    178  N         34.1320  -11.6400   25.4330 N.3   469  GLU469     -0.1245
    179  CA        34.8590  -10.5380   24.7950 C.3   469  GLU469      0.1567
    180  C         35.4550   -9.5680   25.7900 C.2   469  GLU469      0.2260
    181  O         34.7550   -9.0460   26.6740 O.2   469  GLU469     -0.2867
    182  CB        33.9330   -9.7570   23.8500 C.3   469  GLU469      0.0388
    183  CG        34.6870   -8.8300   22.8990 C.3   469  GLU469      0.1160
    184  CD        33.7960   -8.0210   21.9590 C.2   469  GLU469      0.3649
    185  OE1       32.5800   -7.8460   22.1840 O.co2 469  GLU469     -0.2457
    186  OE2       34.3700   -7.4820   20.9810 O.co2 469  GLU469     -0.2457
    187  N         36.9840   -6.0240   26.0340 N.3   471  ARG471     -0.1245
    188  CA        36.7680   -4.8070   25.1970 C.3   471  ARG471      0.1563
    189  C         37.5370   -3.4910   25.5230 C.2   471  ARG471      0.2260
    190  O         37.4800   -2.5810   24.7210 O.2   471  ARG471     -0.2867
    191  CB        35.2810   -4.5000   25.1280 C.3   471  ARG471      0.0307
    192  CG        34.5370   -5.6810   24.4560 C.3   471  ARG471      0.0489
    193  CD        33.0390   -5.5910   24.5900 C.3   471  ARG471      0.2205
    194  NE        32.6200   -4.3120   24.0420 N.pl3 471  ARG471     -0.0865
    195  CZ        32.3030   -4.0980   22.7640 C.cat 471  ARG471      0.5346
    196  NH1       32.2920   -5.1320   21.8910 N.pl3 471  ARG471      0.1354
    197  NH2       32.0110   -2.8520   22.3510 N.pl3 471  ARG471      0.1354
@<TRIPOS>BOND
     1    48    47    1
     2    48    49    1
     3    48    51    1
     4    49    50    2
     5    51    52    1
     6    69    68    2
     7    53    52   ar
     8    53    55   ar
     9    52    54   ar
    10    66    67    1
    11    57    58    1
    12    78    77    2
    13    60    59    2
    14    68    67    1
    15    84    85    2
    16    84    83    1
    17    67    70    1
    18    55    56   ar
    19    54    56   ar
    20    75    76    1
    21    83    82    1
    22    83    86    1
    23    59    58    1
    24    77    82   am
    25    77    76    1
    26    58    61    1
    27    80    79    1
    28    70    71    1
    29    82    88    1
    30    61    62    1
    31    76    79    1
    32    86    87    1
    33    79    81    1
    34    71    72    1
    35   159   157   ar
    36    62    63    1
    37    88    87    1
    38   157   156    1
    39   157   158   ar
    40   156   153    1
    41    89    95    1
    42    89    90    1
    43    72    73   ar
    44    72    74   ar
    45    95    94    1
    46    63    64   ar
    47    63    65   ar
    48    92    91    2
    49   155   154    2
    50   153   154    1
    51   153   152    1
    52    90    91    1
    53    90    93    1
    54    94    93    1
    55    33    32    2
    56   166   165    1
    57   166   160    1
    58    37    35   ar
    59   165   164    1
    60    36    35   ar
    61    39    40    1
    62    39    42    1
    63    39    38    1
    64    40    41    2
    65    43    42    1
    66    43    44    1
    67    11     9   ar
    68    11    10   ar
    69    35    34    1
    70    32    38   am
    71    32    31    1
    72     9     7   ar
    73    46    44   ar
    74   160   161    1
    75    10     8   ar
    76    44    45   ar
    77    30    31    1
    78    30    28   am
    79   164   161    1
    80     7     6   ar
    81    31    34    1
    82    27    28    1
    83    27    26    1
    84     8     6   ar
    85    15    14    2
    86   161   162    1
    87     6     5    1
    88    28    29    2
    89    14    26   am
    90    14    13    1
    91     5     2    1
    92   163   162    2
    93   176   175    1
    94   103   102    2
    95    12    13    1
    96    12     3   am
    97     2     3    1
    98     2     1    1
    99   151   150    1
   100    99    98    2
   101   175   177    1
   102   175   174    2
   103    13    16    1
   104   102   104   am
   105   102   101    1
   106   130   129    2
   107    96    97    1
   108     3     4    2
   109   173   174    1
   110   173   172    1
   111   110   109    1
   112   100   101    1
   113   100    97    1
   114   186   184   ar
   115   150   149    1
   116    23    25   ar
   117    23    21   ar
   118   131   129   am
   119    20    21   ar
   120    20    18   ar
   121   141   140    1
   122    25    24   ar
   123    21    19   ar
   124    98    97    1
   125   109   111    1
   126   109   106    1
   127    18    17   ar
   128    24    22   ar
   129    19    17   ar
   130    19    22   ar
   131   129   128    1
   132    17    16    1
   133   108   107    2
   134   196   195    1
   135   184   185   ar
   136   184   183    1
   137   105   106    1
   138   172   171    1
   139   106   107    1
   140   197   195    1
   141   140   142    1
   142   140   139    2
   143   149   148    1
   144   107   112   am
   145   127   128    1
   146   127   124    1
   147   195   194    2
   148   183   182    1
   149   148   147    1
   150   147   144    1
   151   171   168    1
   152   138   139    1
   153   138   137    1
   154   112   113    1
   155   123   124    1
   156   123   114   am
   157   146   145    2
   158   182   179    1
   159   124   125    1
   160   113   114    1
   161   113   116    1
   162   145   144    1
   163   194   193    1
   164   114   115    2
   165   144   143    1
   166   192   193    1
   167   192   191    1
   168   168   167    1
   169   168   169    1
   170   137   136    1
   171   190   189    2
   172   120   118   ar
   173   120   122   ar
   174   179   178    1
   175   179   180    1
   176   118   117   ar
   177   122   121   ar
   178   125   126    2
   179   191   188    1
   180   136   133    1
   181   188   189    1
   182   188   187    1
   183   117   116    1
   184   117   119   ar
   185   121   119   ar
   186   169   170    2
   187   180   181    2
   188   135   134    2
   189   133   134    1
   190   133   132    1
