@<TRIPOS>MOLECULE
tmp/3lvwA00.pdb
 208 196 0 0 0
SMALL
GASTEIGER

@<TRIPOS>ATOM
      1  N         -5.8230   28.1740   -6.3630 N.3     3  LEU3       -0.1245
      2  CA        -5.8590   26.7900   -6.8840 C.3     3  LEU3        0.1561
      3  C         -5.9230   25.8230   -5.6550 C.2     3  LEU3        0.2260
      4  O         -5.1060   25.9510   -4.7140 O.2     3  LEU3       -0.2867
      5  CB        -4.6400   26.4820   -7.7940 C.3     3  LEU3        0.0270
      6  CG        -4.4560   27.0060   -9.2360 C.3     3  LEU3        0.0019
      7  CD1       -2.9720   27.2890   -9.4890 C.3     3  LEU3        0.0001
      8  CD2       -5.0480   26.0700  -10.3360 C.3     3  LEU3        0.0001
      9  N         -2.0700   41.4110  -14.9010 N.3    51  GLU51      -0.1245
     10  CA        -0.9980   40.7160  -14.2330 C.3    51  GLU51       0.1567
     11  C          0.0060   41.7750  -13.7930 C.2    51  GLU51       0.2260
     12  O          0.2820   42.7460  -14.5160 O.2    51  GLU51      -0.2867
     13  CB        -0.4030   39.6190  -15.1610 C.3    51  GLU51       0.0388
     14  CG        -1.3680   38.4310  -15.3710 C.3    51  GLU51       0.1160
     15  CD        -0.9640   37.4350  -16.4550 C.2    51  GLU51       0.3649
     16  OE1       -0.0720   37.7710  -17.2930 O.co2  51  GLU51      -0.2457
     17  OE2       -1.5820   36.3050  -16.4910 O.co2  51  GLU51      -0.2457
     18  N         -3.2000   33.5310   -8.3080 N.3    94  PRO94      -0.2102
     19  CA        -1.7610   33.2830   -8.4920 C.3    94  PRO94       0.1504
     20  C         -1.4640   33.1450   -9.9530 C.2    94  PRO94       0.2576
     21  O         -2.3310   32.7480  -10.7080 O.2    94  PRO94      -0.2718
     22  CB        -1.5410   31.9140   -7.8460 C.3    94  PRO94       0.0282
     23  CG        -2.8840   31.4970   -7.2270 C.3    94  PRO94       0.0208
     24  CD        -3.9090   32.2920   -7.8950 C.3    94  PRO94       0.0893
     25  N         -0.2570   33.5370  -10.3280 N.am   95  GLU95      -0.1966
     26  CA         0.3160   33.3020  -11.6470 C.3    95  GLU95       0.1733
     27  C          1.7160   32.5800  -11.5080 C.2    95  GLU95       0.2616
     28  O          2.1900   32.3110  -10.3670 O.2    95  GLU95      -0.2715
     29  CB         0.3990   34.6330  -12.4320 C.3    95  GLU95       0.0429
     30  CG        -0.6800   34.7900  -13.4990 C.3    95  GLU95       0.1163
     31  CD        -0.7280   33.5780  -14.5200 C.2    95  GLU95       0.3649
     32  OE1        0.3400   32.9270  -14.8140 O.co2  95  GLU95      -0.2457
     33  OE2       -1.8580   33.3060  -15.0200 O.co2  95  GLU95      -0.2457
     34  N          2.3530   32.2520  -12.6450 N.am   96  TYR96      -0.1974
     35  CA         3.6340   31.5480  -12.6150 C.3    96  TYR96       0.1639
     36  C          4.6150   32.1710  -11.6490 C.2    96  TYR96       0.2290
     37  O          5.1790   31.4480  -10.8410 O.2    96  TYR96      -0.2864
     38  CB         4.2930   31.4420  -13.9980 C.3    96  TYR96       0.0560
     39  CG         5.5110   30.5370  -14.0020 C.ar   96  TYR96      -0.0198
     40  CD1        5.3580   29.1530  -13.9280 C.ar   96  TYR96      -0.0009
     41  CD2        6.8110   31.0640  -14.0320 C.ar   96  TYR96      -0.0009
     42  CE1        6.4520   28.2910  -13.8810 C.ar   96  TYR96       0.0417
     43  CE2        7.9640   30.2050  -14.0150 C.ar   96  TYR96       0.0417
     44  CZ         7.7650   28.8160  -13.9370 C.ar   96  TYR96       0.1957
     45  OH         8.8320   27.9330  -13.8850 O.3    96  TYR96      -0.2866
     46  N          4.4450   37.6070   -8.8910 N.3   100  MET100     -0.1245
     47  CA         3.3790   38.1200   -9.7370 C.3   100  MET100      0.1570
     48  C          2.0660   38.1520   -9.0280 C.2   100  MET100      0.2261
     49  O          1.8460   37.3520   -8.1360 O.2   100  MET100     -0.2867
     50  CB         3.2380   37.2370  -10.9580 C.3   100  MET100      0.0387
     51  CG         4.3030   37.5080  -11.9680 C.3   100  MET100      0.0595
     52  SD         4.1860   36.3630  -13.3250 S.3   100  MET100     -0.1393
     53  CE         3.0490   37.2570  -14.4160 C.3   100  MET100      0.0692
     54  N         -2.2010   38.2300  -10.1870 N.3   102  GLU102     -0.1245
     55  CA        -3.2490   38.3430  -11.2000 C.3   102  GLU102      0.1567
     56  C         -4.5420   38.7970  -10.5200 C.2   102  GLU102      0.2260
     57  O         -4.8740   38.3650   -9.4050 O.2   102  GLU102     -0.2867
     58  CB        -3.4500   36.9900  -11.8980 C.3   102  GLU102      0.0388
     59  CG        -4.1630   36.9900  -13.3210 C.3   102  GLU102      0.1160
     60  CD        -5.0530   35.6940  -13.5100 C.2   102  GLU102      0.3649
     61  OE1       -4.4960   34.5230  -13.6040 O.co2 102  GLU102     -0.2457
     62  OE2       -6.3290   35.8410  -13.4930 O.co2 102  GLU102     -0.2457
     63  N          1.5080   23.2650   -8.8710 N.3   195  ARG195     -0.1231
     64  CA         1.3340   23.3010  -10.3360 C.3   195  ARG195      0.1694
     65  C          2.5380   23.8860  -11.0150 C.2   195  ARG195      0.2592
     66  O          3.0220   23.3000  -11.9600 O.2   195  ARG195     -0.2718
     67  CB         0.0620   24.0580  -10.7680 C.3   195  ARG195      0.0321
     68  CG        -0.2070   24.1150  -12.3140 C.3   195  ARG195      0.0489
     69  CD        -1.5960   24.7980  -12.6320 C.3   195  ARG195      0.2205
     70  NE        -1.7830   25.1500  -14.0470 N.pl3 195  ARG195     -0.0865
     71  CZ        -2.0950   24.2750  -15.0150 C.cat 195  ARG195      0.5346
     72  NH1       -2.2440   23.0000  -14.7180 N.pl3 195  ARG195      0.1354
     73  NH2       -2.2550   24.6630  -16.2840 N.pl3 195  ARG195      0.1354
     74  N          3.0290   25.0290  -10.5410 N.am  196  PHE196     -0.1976
     75  CA         4.0540   25.7690  -11.3000 C.3   196  PHE196      0.1639
     76  C          5.4480   25.0930  -11.3390 C.2   196  PHE196      0.2290
     77  O          5.9560   24.8780  -12.4270 O.2   196  PHE196     -0.2864
     78  CB         4.0930   27.2720  -10.9490 C.3   196  PHE196      0.0560
     79  CG         2.7410   27.9470  -11.0420 C.ar  196  PHE196     -0.0200
     80  CD1        2.2070   28.3110  -12.2800 C.ar  196  PHE196     -0.0042
     81  CD2        1.9790   28.1970   -9.8890 C.ar  196  PHE196     -0.0042
     82  CE1        0.9850   28.9060  -12.3730 C.ar  196  PHE196     -0.0003
     83  CE2        0.7210   28.8020   -9.9970 C.ar  196  PHE196     -0.0003
     84  CZ         0.2340   29.1490  -11.2330 C.ar  196  PHE196     -0.0000
     85  N          4.9090   21.9470  -13.8350 N.3   199  LEU199     -0.1245
     86  CA         4.9160   22.2740  -15.2500 C.3   199  LEU199      0.1561
     87  C          6.3480   22.5820  -15.7040 C.2   199  LEU199      0.2260
     88  O          6.7560   22.2000  -16.8000 O.2   199  LEU199     -0.2867
     89  CB         4.0740   23.5080  -15.5110 C.3   199  LEU199      0.0270
     90  CG         2.5880   23.3610  -15.7080 C.3   199  LEU199      0.0019
     91  CD1        2.0760   24.7440  -15.8790 C.3   199  LEU199      0.0001
     92  CD2        2.2310   22.5050  -16.9280 C.3   199  LEU199      0.0001
     93  N         11.5310   28.6590  -17.8830 N.3   257  MET257     -0.1245
     94  CA        10.1070   28.9660  -18.1740 C.3   257  MET257      0.1570
     95  C          9.6990   30.3790  -17.6860 C.2   257  MET257      0.2261
     96  O          8.9090   31.0920  -18.3150 O.2   257  MET257     -0.2867
     97  CB         9.2100   27.8920  -17.5650 C.3   257  MET257      0.0387
     98  CG         7.7280   28.0950  -17.7670 C.3   257  MET257      0.0595
     99  SD         6.8760   26.6890  -17.0320 S.3   257  MET257     -0.1393
    100  CE         5.1410   27.1710  -17.0410 C.3   257  MET257      0.0692
    101  N          6.7550   32.7500  -18.9790 N.3   261  MET261     -0.1245
    102  CA         5.5740   32.7710  -18.1490 C.3   261  MET261      0.1570
    103  C          5.7950   33.6640  -16.9370 C.2   261  MET261      0.2261
    104  O          4.8720   33.8640  -16.1440 O.2   261  MET261     -0.2867
    105  CB         5.1830   31.3590  -17.7710 C.3   261  MET261      0.0387
    106  CG         4.5910   30.6100  -18.9680 C.3   261  MET261      0.0595
    107  SD         2.9940   31.2850  -19.3100 S.3   261  MET261     -0.1393
    108  CE         2.3180   29.9280  -20.3050 C.3   261  MET261      0.0692
    109  N          6.4670   36.7240  -17.5500 N.3   263  CYS263     -0.1221
    110  CA         6.0000   37.9610  -18.1190 C.3   263  CYS263      0.1808
    111  C          4.4920   38.1230  -17.9500 C.2   263  CYS263      0.2602
    112  O          3.7530   37.1490  -17.6800 O.2   263  CYS263     -0.2717
    113  CB         6.3120   37.9170  -19.5940 C.3   263  CYS263      0.0970
    114  SG         8.0260   38.3620  -19.9350 S.3   263  CYS263     -0.0800
    115  N          4.0300   39.3500  -18.1420 N.am  264  SER264     -0.1938
    116  CA         2.6340   39.7650  -17.9030 C.3   264  SER264      0.2055
    117  C          1.9600   40.2940  -19.1770 C.2   264  SER264      0.2643
    118  O          2.6280   40.8800  -20.0450 O.2   264  SER264     -0.2714
    119  CB         2.6080   40.9360  -16.9070 C.3   264  SER264      0.2130
    120  OG         2.7520   40.5340  -15.5630 O.3   264  SER264     -0.2179
    121  N          0.6410   40.1500  -19.2560 N.am  265  CYS265     -0.1967
    122  CA        -0.1160   40.7040  -20.3500 C.3   265  CYS265      0.1712
    123  C         -1.4830   41.0990  -19.8520 C.2   265  CYS265      0.2296
    124  O         -1.8050   40.8380  -18.7100 O.2   265  CYS265     -0.2864
    125  CB        -0.3250   39.6650  -21.4390 C.3   265  CYS265      0.0983
    126  SG        -1.1640   38.1630  -20.8230 S.3   265  CYS265     -0.0798
    127  N         -5.5240   40.3710  -20.6830 N.3   267  GLN267     -0.1245
    128  CA        -6.3370   39.3980  -21.4160 C.3   267  GLN267      0.1566
    129  C         -7.7700   39.8050  -21.2780 C.2   267  GLN267      0.2260
    130  O         -8.1490   40.2860  -20.2080 O.2   267  GLN267     -0.2867
    131  CB        -6.1560   37.9360  -20.9050 C.3   267  GLN267      0.0367
    132  CG        -4.7410   37.2800  -21.1690 C.3   267  GLN267      0.0905
    133  CD        -4.5570   35.8660  -20.5020 C.2   267  GLN267      0.2608
    134  OE1       -5.0670   35.5940  -19.3990 O.2   267  GLN267     -0.2717
    135  NE2       -3.7990   34.9890  -21.1720 N.am  267  GLN267     -0.0878
    136  N          6.7180   40.3600  -26.0290 N.3   312  ARG312     -0.1245
    137  CA         7.0510   39.1720  -25.2720 C.3   312  ARG312      0.1563
    138  C          6.7600   37.8780  -26.0530 C.2   312  ARG312      0.2260
    139  O          7.2390   36.7890  -25.6500 O.2   312  ARG312     -0.2867
    140  CB         6.1360   39.1110  -24.0530 C.3   312  ARG312      0.0307
    141  CG         4.6630   38.8730  -24.4600 C.3   312  ARG312      0.0489
    142  CD         3.7830   39.1440  -23.3220 C.3   312  ARG312      0.2205
    143  NE         2.4840   38.5120  -23.4500 N.pl3 312  ARG312     -0.0865
    144  CZ         1.5110   38.8910  -24.2940 C.cat 312  ARG312      0.5346
    145  NH1        1.6690   39.9080  -25.1500 N.pl3 312  ARG312      0.1354
    146  NH2        0.3600   38.2270  -24.2780 N.pl3 312  ARG312      0.1354
    147  N          7.4570   33.9170  -24.7060 N.3   316  ILE316     -0.1245
    148  CA         6.6040   33.0480  -23.9330 C.3   316  ILE316      0.1561
    149  C          6.4090   31.7830  -24.7560 C.2   316  ILE316      0.2260
    150  O          6.3430   30.6840  -24.1810 O.2   316  ILE316     -0.2867
    151  CB         5.2770   33.6430  -23.5640 C.3   316  ILE316      0.0252
    152  CG1        5.4500   35.1040  -23.1550 C.3   316  ILE316      0.0019
    153  CG2        4.7240   32.8670  -22.4180 C.3   316  ILE316      0.0019
    154  CD1        4.3540   35.5960  -22.1800 C.3   316  ILE316      0.0001
    155  N          2.4110   26.9590  -27.1080 N.3   361  TYR361     -0.1241
    156  CA         2.0660   28.3230  -26.8730 C.3   361  TYR361      0.1605
    157  C          2.3770   28.9950  -28.1890 C.2   361  TYR361      0.2264
    158  O          3.5590   29.1820  -28.4980 O.2   361  TYR361     -0.2867
    159  CB         2.9360   28.8700  -25.7440 C.3   361  TYR361      0.0534
    160  CG         2.6020   30.2730  -25.3560 C.ar  361  TYR361     -0.0201
    161  CD1        2.0160   30.5560  -24.1100 C.ar  361  TYR361     -0.0009
    162  CD2        2.8330   31.3320  -26.2170 C.ar  361  TYR361     -0.0009
    163  CE1        1.6760   31.8450  -23.7500 C.ar  361  TYR361      0.0417
    164  CE2        2.5150   32.6150  -25.8580 C.ar  361  TYR361      0.0417
    165  CZ         1.9250   32.8650  -24.6310 C.ar  361  TYR361      0.1957
    166  OH         1.6030   34.1830  -24.2800 O.3   361  TYR361     -0.2866
    167  N         -6.3840   24.2160  -21.2670 N.3   441  SER441     -0.1217
    168  CA        -5.6410   25.2730  -20.5570 C.3   441  SER441      0.1889
    169  C         -4.0790   25.2620  -20.7980 C.2   441  SER441      0.2288
    170  O         -3.3570   26.2330  -20.4300 O.2   441  SER441     -0.2866
    171  CB        -5.9070   25.1380  -19.0710 C.3   441  SER441      0.2089
    172  OG        -4.9950   24.1350  -18.6200 O.3   441  SER441     -0.2183
    173  N         -1.9320   27.4010  -25.0730 N.3   444  TRP444     -0.1241
    174  CA        -1.9360   28.8720  -24.9250 C.3   444  TRP444      0.1605
    175  C         -1.8060   29.6130  -26.2590 C.2   444  TRP444      0.2264
    176  O         -0.6670   29.7130  -26.8310 O.2   444  TRP444     -0.2867
    177  CB        -0.7380   29.3010  -24.0800 C.3   444  TRP444      0.0550
    178  CG        -0.6600   28.7060  -22.7060 C.ar  444  TRP444      0.0003
    179  CD1       -1.3260   29.1300  -21.6130 C.ar  444  TRP444      0.0946
    180  CD2        0.0900   27.5690  -22.3020 C.ar  444  TRP444      0.0152
    181  NE1       -1.0390   28.3650  -20.5460 N.ar  444  TRP444     -0.2442
    182  CE2       -0.1380   27.4020  -20.9230 C.ar  444  TRP444      0.0810
    183  CE3        0.9690   26.7050  -22.9540 C.ar  444  TRP444      0.0012
    184  CZ2        0.4930   26.3650  -20.1430 C.ar  444  TRP444      0.0191
    185  CZ3        1.6480   25.6830  -22.1780 C.ar  444  TRP444      0.0001
    186  CH2        1.3800   25.5230  -20.7900 C.ar  444  TRP444      0.0015
    187  N         -8.6620   32.0740  -27.2750 N.3   448  ARG448     -0.1245
    188  CA        -9.0670   30.8050  -26.7200 C.3   448  ARG448      0.1563
    189  C        -10.5950   30.7240  -26.9240 C.2   448  ARG448      0.2260
    190  O        -11.3150   31.6740  -26.6480 O.2   448  ARG448     -0.2867
    191  CB        -8.6510   30.6950  -25.2450 C.3   448  ARG448      0.0307
    192  CG        -8.9380   29.3370  -24.7270 C.3   448  ARG448      0.0489
    193  CD        -8.2820   29.0180  -23.4040 C.3   448  ARG448      0.2205
    194  NE        -6.8220   28.9210  -23.5550 N.pl3 448  ARG448     -0.0865
    195  CZ        -5.9480   28.8470  -22.5540 C.cat 448  ARG448      0.5346
    196  NH1       -6.3500   28.8640  -21.2810 N.pl3 448  ARG448      0.1354
    197  NH2       -4.6660   28.7340  -22.8480 N.pl3 448  ARG448      0.1354
    198  N         -6.1660   37.1780  -26.1830 N.3   471  ARG471     -0.1245
    199  CA        -4.9760   37.0480  -25.3470 C.3   471  ARG471      0.1563
    200  C         -3.6730   37.7820  -25.7790 C.2   471  ARG471      0.2260
    201  O         -2.6750   37.6420  -25.0720 O.2   471  ARG471     -0.2867
    202  CB        -4.6320   35.5620  -25.1670 C.3   471  ARG471      0.0307
    203  CG        -5.7730   34.7350  -24.6870 C.3   471  ARG471      0.0489
    204  CD        -5.5060   33.2370  -24.9410 C.3   471  ARG471      0.2205
    205  NE        -4.2610   32.8390  -24.3040 N.pl3 471  ARG471     -0.0865
    206  CZ        -4.2010   32.3470  -23.0710 C.cat 471  ARG471      0.5346
    207  NH1       -5.3300   32.1920  -22.3650 N.pl3 471  ARG471      0.1354
    208  NH2       -3.0310   31.9960  -22.5550 N.pl3 471  ARG471      0.1354
@<TRIPOS>BOND
     1   158   157    2
     2   157   156    1
     3   187   188    1
     4   155   156    1
     5   189   188    1
     6   189   190    2
     7   156   159    1
     8   176   175    2
     9   188   191    1
    10   175   174    1
    11   162   164   ar
    12   162   160   ar
    13   198   199    1
    14   138   139    2
    15   138   137    1
    16   136   137    1
    17   164   165   ar
    18   200   199    1
    19   200   201    2
    20   159   160    1
    21   160   161   ar
    22   199   202    1
    23   137   140    1
    24   191   192    1
    25   202   203    1
    26   145   144    1
    27   173   174    1
    28   204   203    1
    29   204   205    1
    30   174   177    1
    31   149   150    2
    32   149   148    1
    33   192   193    1
    34   147   148    1
    35   165   166    1
    36   165   163   ar
    37   141   140    1
    38   141   142    1
    39   205   206    2
    40   144   146    1
    41   144   143    2
    42   161   163   ar
    43   177   178    1
    44   148   151    1
    45   151   152    1
    46   151   153    1
    47   194   193    1
    48   194   195    2
    49   143   142    1
    50   152   154    1
    51   206   208    1
    52   206   207    1
    53   183   180   ar
    54   183   185   ar
    55   197   195    1
    56   178   180   ar
    57   178   179   ar
    58   195   196    1
    59   180   182   ar
    60   185   186   ar
    61   179   181   ar
    62   125   126    1
    63   125   122    1
    64   128   129    1
    65   128   131    1
    66   128   127    1
    67   129   130    2
    68   167   168    1
    69   135   133   am
    70   132   131    1
    71   132   133    1
    72   182   181   ar
    73   182   184   ar
    74   169   168    1
    75   169   170    2
    76   186   184   ar
    77   168   171    1
    78   133   134    2
    79   122   123    1
    80   122   121    1
    81   108   107    1
    82   118   117    2
    83   114   113    1
    84   123   124    2
    85   113   110    1
    86   107   106    1
    87   121   117   am
    88   117   116    1
    89   171   172    1
    90   101   102    1
    91   106   105    1
    92    96    95    2
    93    94    93    1
    94    94    95    1
    95    94    97    1
    96   102   105    1
    97   102   103    1
    98   115   111   am
    99   115   116    1
   100   110   111    1
   101   110   109    1
   102   111   112    2
   103   116   119    1
   104    98    97    1
   105    98    99    1
   106    16    15   ar
   107   100    99    1
   108   103   104    2
   109    92    90    1
   110   119   120    1
   111    88    87    2
   112    17    15   ar
   113    15    14    1
   114    73    71    1
   115    91    90    1
   116    90    89    1
   117    87    86    1
   118    89    86    1
   119    14    13    1
   120    86    85    1
   121    13    10    1
   122    33    31   ar
   123    71    72    1
   124    71    70    2
   125     9    10    1
   126    32    31   ar
   127    31    30    1
   128    12    11    2
   129    53    52    1
   130    10    11    1
   131    70    69    1
   132    41    43   ar
   133    41    39   ar
   134    43    44   ar
   135    39    38    1
   136    39    40   ar
   137    38    35    1
   138    44    45    1
   139    44    42   ar
   140    40    42   ar
   141    61    60   ar
   142    60    62   ar
   143    60    59    1
   144    30    29    1
   145    52    51    1
   146    59    58    1
   147    34    35    1
   148    34    27   am
   149    69    68    1
   150    35    36    1
   151    29    26    1
   152    77    76    2
   153    82    80   ar
   154    82    84   ar
   155    68    67    1
   156    80    79   ar
   157    51    50    1
   158    66    65    2
   159    58    55    1
   160    36    37    2
   161    26    27    1
   162    26    25    1
   163    27    28    2
   164    76    75    1
   165    75    78    1
   166    75    74    1
   167    84    83   ar
   168    55    56    1
   169    55    54    1
   170    79    78    1
   171    79    81   ar
   172    65    74   am
   173    65    64    1
   174    50    47    1
   175    67    64    1
   176    21    20    2
   177    56    57    2
   178    64    63    1
   179     8     6    1
   180    25    20   am
   181    83    81   ar
   182    20    19    1
   183    47    48    1
   184    47    46    1
   185     7     6    1
   186     6     5    1
   187    48    49    2
   188    19    18    1
   189    19    22    1
   190    18    24    1
   191    24    23    1
   192    22    23    1
   193     5     2    1
   194     2     1    1
   195     2     3    1
   196     3     4    2
