@<TRIPOS>MOLECULE
tmp/3lvwA02.pdb
 103 103 0 0 0
SMALL
GASTEIGER

@<TRIPOS>ATOM
      1  N        -21.6180   39.4150  -21.3820 N.3    45  PHE45      -0.1227
      2  CA       -20.7870   39.5670  -20.1940 C.3    45  PHE45       0.1736
      3  C        -19.3430   39.4680  -20.6080 C.2    45  PHE45       0.2595
      4  O        -18.9890   38.6640  -21.4790 O.2    45  PHE45      -0.2718
      5  CB       -21.0690   38.4500  -19.2000 C.3    45  PHE45       0.0547
      6  CG       -22.3630   38.6340  -18.4200 C.ar   45  PHE45      -0.0202
      7  CD1      -22.6490   39.8530  -17.7840 C.ar   45  PHE45      -0.0042
      8  CD2      -23.2840   37.5600  -18.2860 C.ar   45  PHE45      -0.0042
      9  CE1      -23.8670   40.0100  -17.0460 C.ar   45  PHE45      -0.0003
     10  CE2      -24.4980   37.7110  -17.5610 C.ar   45  PHE45      -0.0003
     11  CZ       -24.7820   38.9350  -16.9570 C.ar   45  PHE45      -0.0000
     12  N        -18.5010   40.2880  -20.0090 N.am   46  TRP46      -0.1962
     13  CA       -17.0760   40.2680  -20.3670 C.3    46  TRP46       0.1771
     14  C        -16.2470   40.7230  -19.2070 C.2    46  TRP46       0.2620
     15  O        -16.8080   41.2190  -18.2210 O.2    46  TRP46      -0.2715
     16  CB       -16.8170   41.1380  -21.5920 C.3    46  TRP46       0.0590
     17  CG       -17.0910   42.5960  -21.4350 C.ar   46  TRP46       0.0006
     18  CD1      -18.3160   43.1950  -21.3630 C.ar   46  TRP46       0.0946
     19  CD2      -16.1240   43.6550  -21.3930 C.ar   46  TRP46       0.0152
     20  NE1      -18.1760   44.5780  -21.2440 N.ar   46  TRP46      -0.2442
     21  CE2      -16.8430   44.8820  -21.2670 C.ar   46  TRP46       0.0810
     22  CE3      -14.7370   43.6920  -21.4570 C.ar   46  TRP46       0.0012
     23  CZ2      -16.2180   46.1140  -21.1790 C.ar   46  TRP46       0.0191
     24  CZ3      -14.0920   44.9300  -21.3620 C.ar   46  TRP46       0.0001
     25  CH2      -14.8450   46.1280  -21.2210 C.ar   46  TRP46       0.0015
     26  N        -14.9250   40.5540  -19.3040 N.am   47  GLY47      -0.1940
     27  CA       -14.0040   40.9790  -18.2570 C.3    47  GLY47       0.2014
     28  C        -12.5600   40.9220  -18.7000 C.2    47  GLY47       0.2638
     29  O        -12.1670   40.1190  -19.5590 O.2    47  GLY47      -0.2714
     30  N        -11.7490   41.7810  -18.0920 N.am   48  ASP48      -0.1971
     31  CA       -10.3060   41.7640  -18.2650 C.3    48  ASP48       0.1709
     32  C         -9.5510   40.9770  -17.1290 C.2    48  ASP48       0.2293
     33  O        -10.1040   40.7080  -16.0690 O.2    48  ASP48      -0.2864
     34  CB        -9.8480   43.1940  -18.3060 C.3    48  ASP48       0.1436
     35  CG        -9.9770   43.8370  -16.9860 C.2    48  ASP48       0.3671
     36  OD1      -11.1170   44.1500  -16.5770 O.co2  48  ASP48      -0.2456
     37  OD2       -8.9290   43.9750  -16.3140 O.co2  48  ASP48      -0.2456
     38  N         -8.7930   40.3530  -11.3530 N.3   104  THR104     -0.1204
     39  CA        -9.8440   40.5230  -12.3480 C.3   104  THR104      0.1979
     40  C        -10.9760   41.1770  -11.5940 C.2   104  THR104      0.2460
     41  O        -10.9290   41.1670  -10.3700 O.2   104  THR104     -0.2732
     42  CB       -10.4190   39.1390  -12.8280 C.3   104  THR104      0.1783
     43  OG1      -10.9260   38.4180  -11.6930 O.3   104  THR104     -0.2211
     44  CG2       -9.4250   38.2970  -13.5480 C.3   104  THR104      0.0376
     45  N        -12.0280   41.7040  -12.2830 N.am  105  PRO105     -0.2717
     46  CA       -13.1890   42.1410  -11.4480 C.3   105  PRO105      0.1535
     47  C        -13.8780   40.8820  -10.8250 C.2   105  PRO105      0.2598
     48  O        -13.6670   39.7580  -11.3660 O.2   105  PRO105     -0.2715
     49  CB       -14.1100   42.8210  -12.4680 C.3   105  PRO105      0.0310
     50  CG       -13.7730   42.1220  -13.7920 C.3   105  PRO105      0.0237
     51  CD       -12.2790   41.9150  -13.7250 C.3   105  PRO105      0.0939
     52  N        -14.6320   41.0300   -9.7200 N.am  106  ALA106     -0.1964
     53  CA       -15.2530   39.8330   -9.1360 C.3   106  ALA106      0.1728
     54  C        -16.4590   39.3390   -9.9370 C.2   106  ALA106      0.2617
     55  O        -16.8260   38.1370   -9.9020 O.2   106  ALA106     -0.2715
     56  CB       -15.6000   40.0000   -7.6420 C.3   106  ALA106      0.0334
     57  N        -17.0740   40.2760  -10.6510 N.am  107  SER107     -0.1936
     58  CA       -18.1550   39.9670  -11.5910 C.3   107  SER107      0.2040
     59  C        -17.9030   40.5790  -12.9630 C.2   107  SER107      0.2485
     60  O        -17.4820   41.7520  -13.0670 O.2   107  SER107     -0.2729
     61  CB       -19.4610   40.5640  -11.0870 C.3   107  SER107      0.2129
     62  OG       -19.8640   39.8210  -10.0020 O.3   107  SER107     -0.2179
     63  N        -18.3030   39.8500  -14.0080 N.am  108  PRO108     -0.2726
     64  CA       -18.1900   40.3040  -15.3880 C.3   108  PRO108      0.1402
     65  C        -18.9530   41.5900  -15.5040 C.2   108  PRO108      0.2269
     66  O        -19.9480   41.7690  -14.8040 O.2   108  PRO108     -0.2865
     67  CB       -18.9200   39.2080  -16.1710 C.3   108  PRO108      0.0296
     68  CG       -19.8140   38.5390  -15.1370 C.3   108  PRO108      0.0237
     69  CD       -18.9760   38.5400  -13.9130 C.3   108  PRO108      0.0939
     70  N        -11.9360   38.5340  -21.8820 N.3   269  THR269     -0.1218
     71  CA       -12.8710   37.4560  -22.2050 C.3   269  THR269      0.1862
     72  C        -14.2580   37.9780  -22.4430 C.2   269  THR269      0.2287
     73  O        -14.7190   38.8360  -21.6910 O.2   269  THR269     -0.2866
     74  CB       -12.9120   36.3530  -21.1360 C.3   269  THR269      0.1770
     75  OG1      -11.5930   35.8630  -20.9810 O.3   269  THR269     -0.2211
     76  CG2      -13.8250   35.1370  -21.6000 C.3   269  THR269      0.0375
     77  N        -18.4380   36.8390  -23.7870 N.3   271  GLN271     -0.1245
     78  CA       -19.4000   35.7500  -23.8780 C.3   271  GLN271      0.1566
     79  C        -20.2520   36.0730  -25.0690 C.2   271  GLN271      0.2260
     80  O        -20.7090   37.1870  -25.2170 O.2   271  GLN271     -0.2867
     81  CB       -20.1980   35.6110  -22.5600 C.3   271  GLN271      0.0367
     82  CG       -21.4920   34.8300  -22.6920 C.3   271  GLN271      0.0905
     83  CD       -22.1220   34.4660  -21.3610 C.2   271  GLN271      0.2608
     84  OE1      -21.6910   33.5230  -20.6820 O.2   271  GLN271     -0.2717
     85  NE2      -23.1650   35.1920  -20.9930 N.am  271  GLN271     -0.0878
     86  N        -21.7480   30.7370  -17.1260 N.3   464  PRO464     -0.2116
     87  CA       -20.9930   31.1880  -18.3030 C.3   464  PRO464      0.1372
     88  C        -21.3410   30.3480  -19.5740 C.2   464  PRO464      0.2244
     89  O        -21.4160   29.0950  -19.5350 O.2   464  PRO464     -0.2868
     90  CB       -19.5380   31.0200  -17.8590 C.3   464  PRO464      0.0268
     91  CG       -19.5730   30.8790  -16.3490 C.3   464  PRO464      0.0207
     92  CD       -20.8640   30.1770  -16.0840 C.3   464  PRO464      0.0892
     93  N        -17.5270   31.1650  -24.7890 N.3   467  ARG467     -0.1245
     94  CA       -16.7470   32.4110  -24.6750 C.3   467  ARG467      0.1563
     95  C        -15.5030   32.5100  -25.5670 C.2   467  ARG467      0.2260
     96  O        -14.9670   31.4940  -26.0390 O.2   467  ARG467     -0.2867
     97  CB       -16.3380   32.6350  -23.2270 C.3   467  ARG467      0.0307
     98  CG       -17.3680   33.3010  -22.3670 C.3   467  ARG467      0.0489
     99  CD       -17.2090   32.8300  -20.8960 C.3   467  ARG467      0.2205
    100  NE       -17.3510   31.3990  -20.9890 N.pl3 467  ARG467     -0.0865
    101  CZ       -16.6170   30.5180  -20.3400 C.cat 467  ARG467      0.5346
    102  NH1      -15.6620   30.9600  -19.5080 N.pl3 467  ARG467      0.1354
    103  NH2      -16.8560   29.1990  -20.5530 N.pl3 467  ARG467      0.1354
@<TRIPOS>BOND
     1    96    95    2
     2    95    94    1
     3    80    79    2
     4    79    78    1
     5    93    94    1
     6    94    97    1
     7    78    77    1
     8    78    81    1
     9    97    98    1
    10    82    81    1
    11    82    83    1
    12    72    71    1
    13    72    73    2
    14    98    99    1
    15    71    70    1
    16    71    74    1
    17    76    74    1
    18    16    17    1
    19    16    13    1
    20     4     3    2
    21    22    19   ar
    22    22    24   ar
    23    17    19   ar
    24    17    18   ar
    25    19    21   ar
    26     1     2    1
    27    18    20   ar
    28    24    25   ar
    29    83    85   am
    30    83    84    2
    31    21    20   ar
    32    21    23   ar
    33    25    23   ar
    34    74    75    1
    35   100    99    1
    36   100   101    2
    37     3     2    1
    38     3    12   am
    39   103   101    1
    40    13    12    1
    41    13    14    1
    42   101   102    1
    43     2     5    1
    44    88    89    2
    45    88    87    1
    46    29    28    2
    47    26    14   am
    48    26    27    1
    49    14    15    2
    50     5     6    1
    51    28    27    1
    52    28    30   am
    53     6     8   ar
    54     6     7   ar
    55    34    31    1
    56    34    35    1
    57    87    90    1
    58    87    86    1
    59     8    10   ar
    60    31    30    1
    61    31    32    1
    62    90    91    1
    63     7     9   ar
    64    10    11   ar
    65    32    33    2
    66    86    92    1
    67     9    11   ar
    68    35    36   ar
    69    35    37   ar
    70    91    92    1
    71    67    64    1
    72    67    68    1
    73    65    64    1
    74    65    66    2
    75    64    63    1
    76    68    69    1
    77    63    69    1
    78    63    59   am
    79    50    51    1
    80    50    49    1
    81    51    45    1
    82    44    42    1
    83    60    59    2
    84    59    58    1
    85    42    39    1
    86    42    43    1
    87    49    46    1
    88    39    40    1
    89    39    38    1
    90    45    40   am
    91    45    46    1
    92    40    41    2
    93    58    61    1
    94    58    57    1
    95    46    47    1
    96    48    47    2
    97    61    62    1
    98    47    52   am
    99    57    54   am
   100    54    55    2
   101    54    53    1
   102    52    53    1
   103    53    56    1
