@<TRIPOS>MOLECULE
tmp/3lw0A00.pdb
 216 207 0 0 0
SMALL
GASTEIGER

@<TRIPOS>ATOM
      1  N         -6.8970  -17.6790  -64.0600 N.3    51  LYS51      -0.1245
      2  CA        -8.0390  -17.5830  -63.1450 C.3    51  LYS51       0.1561
      3  C         -8.5730  -16.1640  -63.1950 C.2    51  LYS51       0.2260
      4  O         -7.7890  -15.2220  -63.2470 O.2    51  LYS51      -0.2867
      5  CB        -7.6290  -17.8560  -61.7080 C.3    51  LYS51       0.0271
      6  CG        -6.9680  -19.1910  -61.4420 C.3    51  LYS51       0.0035
      7  CD        -7.1830  -19.6140  -59.9830 C.3    51  LYS51       0.0206
      8  CE        -6.4940  -18.7250  -58.9710 C.3    51  LYS51       0.1093
      9  NZ        -7.0880  -18.9370  -57.5940 N.3    51  LYS51      -0.1314
     10  N         -9.2450  -11.4720  -51.1880 N.3    64  GLU64      -0.1231
     11  CA        -9.0220  -12.8830  -50.8420 C.3    64  GLU64       0.1699
     12  C         -8.3670  -13.6470  -52.0050 C.2    64  GLU64       0.2592
     13  O         -7.3960  -14.3850  -51.8200 O.2    64  GLU64      -0.2718
     14  CB       -10.3460  -13.5410  -50.4620 C.3    64  GLU64       0.0402
     15  CG       -10.2240  -15.0120  -50.0980 C.3    64  GLU64       0.1161
     16  CD       -11.5460  -15.6360  -49.6690 C.2    64  GLU64       0.3649
     17  OE1      -12.5770  -14.9220  -49.6090 O.co2  64  GLU64      -0.2457
     18  OE2      -11.5460  -16.8530  -49.3910 O.co2  64  GLU64      -0.2457
     19  N         -8.9060  -13.4370  -53.2010 N.am   65  PHE65      -0.1976
     20  CA        -8.3690  -13.9900  -54.4410 C.3    65  PHE65       0.1639
     21  C         -6.8950  -13.5900  -54.6230 C.2    65  PHE65       0.2290
     22  O         -6.0320  -14.4190  -54.9460 O.2    65  PHE65      -0.2864
     23  CB        -9.2400  -13.4960  -55.6000 C.3    65  PHE65       0.0560
     24  CG        -8.7620  -13.9020  -56.9710 C.ar   65  PHE65      -0.0200
     25  CD1       -9.1380  -15.1200  -57.5320 C.ar   65  PHE65      -0.0042
     26  CD2       -7.9790  -13.0330  -57.7290 C.ar   65  PHE65      -0.0042
     27  CE1       -8.7080  -15.4820  -58.8190 C.ar   65  PHE65      -0.0003
     28  CE2       -7.5600  -13.3720  -59.0090 C.ar   65  PHE65      -0.0003
     29  CZ        -7.9230  -14.6080  -59.5550 C.ar   65  PHE65      -0.0000
     30  N         -4.4260  -15.1120  -51.9650 N.3    68  GLU68      -0.1231
     31  CA        -4.1150  -16.5110  -52.3030 C.3    68  GLU68       0.1699
     32  C         -2.9460  -16.5890  -53.2740 C.2    68  GLU68       0.2592
     33  O         -2.0950  -17.4780  -53.1680 O.2    68  GLU68      -0.2718
     34  CB        -5.3250  -17.2170  -52.9160 C.3    68  GLU68       0.0402
     35  CG        -6.3840  -17.6900  -51.9150 C.3    68  GLU68       0.1161
     36  CD        -7.6110  -18.4940  -52.5770 C.2    68  GLU68       0.3649
     37  OE1       -7.5950  -18.8600  -53.7740 O.co2  68  GLU68      -0.2457
     38  OE2       -8.5540  -18.7390  -51.7990 O.co2  68  GLU68      -0.2457
     39  N         -2.9080  -15.6690  -54.2310 N.am   69  ALA69      -0.1980
     40  CA        -1.7560  -15.5650  -55.1260 C.3    69  ALA69       0.1597
     41  C         -0.5190  -15.0840  -54.3670 C.2    69  ALA69       0.2287
     42  O          0.5730  -15.6150  -54.5610 O.2    69  ALA69      -0.2864
     43  CB        -2.0650  -14.6190  -56.2930 C.3    69  ALA69       0.0319
     44  N          0.4500  -15.5130  -51.3080 N.3    71  VAL71      -0.1231
     45  CA         1.1050  -16.5630  -50.5090 C.3    71  VAL71       0.1692
     46  C          1.9870  -17.4900  -51.3710 C.2    71  VAL71       0.2591
     47  O          3.0260  -17.9770  -50.9000 O.2    71  VAL71      -0.2718
     48  CB         0.1070  -17.3710  -49.6060 C.3    71  VAL71       0.0266
     49  CG1       -0.4490  -16.4840  -48.5150 C.3    71  VAL71       0.0020
     50  CG2       -1.0200  -17.9730  -50.4000 C.3    71  VAL71       0.0020
     51  N          1.6210  -17.6940  -52.6340 N.am   72  MET72      -0.1979
     52  CA         2.3970  -18.5990  -53.4940 C.3    72  MET72       0.1605
     53  C          3.6080  -17.9560  -54.1660 C.2    72  MET72       0.2287
     54  O          4.3980  -18.6590  -54.8000 O.2    72  MET72      -0.2864
     55  CB         1.4910  -19.2560  -54.5420 C.3    72  MET72       0.0413
     56  CG         0.2440  -19.9040  -53.9340 C.3    72  MET72       0.0598
     57  SD         0.5160  -21.0800  -52.5550 S.3    72  MET72      -0.1393
     58  CE         1.1990  -22.4610  -53.4680 C.3    72  MET72       0.0692
     59  N          4.8980  -28.6210  -57.1250 N.3    80  VAL80      -0.1231
     60  CA         3.8240  -27.6680  -56.8090 C.3    80  VAL80       0.1692
     61  C          3.6100  -26.7570  -58.0080 C.2    80  VAL80       0.2592
     62  O          4.5470  -26.1630  -58.5380 O.2    80  VAL80      -0.2718
     63  CB         4.1360  -26.8500  -55.5350 C.3    80  VAL80       0.0266
     64  CG1        2.9860  -25.8940  -55.2110 C.3    80  VAL80       0.0020
     65  CG2        4.3750  -27.7750  -54.3580 C.3    80  VAL80       0.0020
     66  N          2.3500  -26.6260  -58.4320 N.am   81  VAL81      -0.1966
     67  CA         2.0290  -25.7660  -59.5800 C.3    81  VAL81       0.1727
     68  C          2.5170  -24.3320  -59.3260 C.2    81  VAL81       0.2616
     69  O          2.2810  -23.7670  -58.2420 O.2    81  VAL81      -0.2715
     70  CB         0.5020  -25.7620  -59.8560 C.3    81  VAL81       0.0290
     71  CG1        0.1250  -24.7480  -60.9490 C.3    81  VAL81       0.0023
     72  CG2        0.0260  -27.1530  -60.2110 C.3    81  VAL81       0.0023
     73  N          3.1860  -23.7500  -60.3160 N.am   82  ARG82      -0.1963
     74  CA         3.8300  -22.4350  -60.1580 C.3    82  ARG82       0.1729
     75  C          2.9090  -21.2410  -60.4360 C.2    82  ARG82       0.2616
     76  O          2.1240  -21.2720  -61.3790 O.2    82  ARG82      -0.2715
     77  CB         5.0300  -22.3070  -61.0960 C.3    82  ARG82       0.0348
     78  CG         6.2690  -23.0570  -60.6460 C.3    82  ARG82       0.0492
     79  CD         7.5160  -22.5240  -61.3360 C.3    82  ARG82       0.2205
     80  NE         8.0750  -21.3290  -60.6970 N.pl3  82  ARG82      -0.0865
     81  CZ         9.2340  -20.7580  -61.0480 C.cat  82  ARG82       0.5346
     82  NH1        9.6640  -19.6720  -60.4150 N.pl3  82  ARG82       0.1354
     83  NH2        9.9760  -21.2640  -62.0330 N.pl3  82  ARG82       0.1354
     84  N          3.0200  -20.2030  -59.6040 N.am   83  LEU83      -0.1977
     85  CA         2.4650  -18.8820  -59.9280 C.3    83  LEU83       0.1596
     86  C          3.3450  -18.2670  -61.0100 C.2    83  LEU83       0.2287
     87  O          4.5800  -18.3650  -60.9370 O.2    83  LEU83      -0.2864
     88  CB         2.4110  -17.9730  -58.6910 C.3    83  LEU83       0.0297
     89  CG         1.8780  -16.5440  -58.9250 C.3    83  LEU83       0.0022
     90  CD1        0.3980  -16.5560  -59.1480 C.3    83  LEU83       0.0001
     91  CD2        2.2120  -15.6380  -57.7500 C.3    83  LEU83       0.0001
     92  N         -5.1860  -14.0180  -62.3060 N.3    95  VAL95      -0.1245
     93  CA        -4.0080  -14.6870  -61.7870 C.3    95  VAL95       0.1561
     94  C         -3.5590  -15.7250  -62.8280 C.2    95  VAL95       0.2260
     95  O         -4.3870  -16.4890  -63.3330 O.2    95  VAL95      -0.2867
     96  CB        -4.3010  -15.3460  -60.4280 C.3    95  VAL95       0.0252
     97  CG1       -3.2960  -16.4420  -60.1130 C.3    95  VAL95       0.0019
     98  CG2       -4.2900  -14.2740  -59.3280 C.3    95  VAL95       0.0019
     99  N         -1.1490  -18.9320  -63.9900 N.3    97  MET97      -0.1245
    100  CA        -0.5580  -20.1280  -63.3750 C.3    97  MET97       0.1570
    101  C          0.0240  -21.0800  -64.4370 C.2    97  MET97       0.2261
    102  O         -0.4200  -21.1010  -65.5870 O.2    97  MET97      -0.2867
    103  CB        -1.6080  -20.8640  -62.5170 C.3    97  MET97       0.0387
    104  CG        -1.9200  -20.1900  -61.1600 C.3    97  MET97       0.0595
    105  SD        -3.4770  -20.7940  -60.4490 S.3    97  MET97      -0.1393
    106  CE        -3.1470  -22.5160  -60.0220 C.3    97  MET97       0.0692
    107  N          5.9500  -27.8240  -48.9720 N.3   135  LEU135     -0.1245
    108  CA         5.0180  -26.8480  -48.4060 C.3   135  LEU135      0.1561
    109  C          5.0730  -26.8510  -46.8790 C.2   135  LEU135      0.2260
    110  O          5.2100  -25.7900  -46.2470 O.2   135  LEU135     -0.2867
    111  CB         3.5950  -27.1620  -48.8710 C.3   135  LEU135      0.0270
    112  CG         3.3810  -26.8460  -50.3570 C.3   135  LEU135      0.0019
    113  CD1        2.0150  -27.3550  -50.7800 C.3   135  LEU135      0.0001
    114  CD2        3.5190  -25.3580  -50.6240 C.3   135  LEU135      0.0001
    115  N          3.6090  -24.0360  -44.5020 N.3   140  PHE140     -0.1241
    116  CA         2.3330  -23.9980  -45.2020 C.3   140  PHE140      0.1605
    117  C          1.5840  -25.2890  -44.9030 C.2   140  PHE140      0.2264
    118  O          2.0310  -26.3530  -45.2970 O.2   140  PHE140     -0.2867
    119  CB         2.5760  -23.8790  -46.7050 C.3   140  PHE140      0.0534
    120  CG         1.3240  -23.6620  -47.5290 C.ar  140  PHE140     -0.0203
    121  CD1        0.6210  -24.7210  -48.0490 C.ar  140  PHE140     -0.0042
    122  CD2        0.8900  -22.3770  -47.8090 C.ar  140  PHE140     -0.0042
    123  CE1       -0.5270  -24.5250  -48.8220 C.ar  140  PHE140     -0.0003
    124  CE2       -0.2470  -22.1650  -48.5850 C.ar  140  PHE140     -0.0003
    125  CZ        -0.9520  -23.2470  -49.0890 C.ar  140  PHE140     -0.0000
    126  N         -1.7600  -27.2740  -45.8700 N.3   142  HIS142     -0.1226
    127  CA        -2.6650  -27.1970  -47.0430 C.3   142  HIS142      0.1752
    128  C         -4.1460  -27.0790  -46.6500 C.2   142  HIS142      0.2596
    129  O         -4.8550  -26.1530  -47.0850 O.2   142  HIS142     -0.2718
    130  CB        -2.4670  -28.4000  -47.9540 C.3   142  HIS142      0.0759
    131  CG        -3.0950  -28.2490  -49.3080 C.ar  142  HIS142      0.0818
    132  ND1       -4.4590  -28.2580  -49.5040 N.ar  142  HIS142     -0.2268
    133  CD2       -2.5400  -28.1100  -50.5390 C.ar  142  HIS142      0.1154
    134  CE1       -4.7170  -28.1130  -50.7930 C.ar  142  HIS142      0.1986
    135  NE2       -3.5700  -28.0250  -51.4440 N.ar  142  HIS142     -0.2212
    136  N         -4.5830  -27.9840  -45.7880 N.am  143  ARG143     -0.1966
    137  CA        -5.9590  -28.0200  -45.2590 C.3   143  ARG143      0.1729
    138  C         -6.9860  -28.6480  -46.2050 C.2   143  ARG143      0.2616
    139  O         -8.0850  -28.9450  -45.7560 O.2   143  ARG143     -0.2715
    140  CB        -6.4970  -26.6390  -44.8020 C.3   143  ARG143      0.0348
    141  CG        -5.6110  -25.8700  -43.8250 C.3   143  ARG143      0.0492
    142  CD        -6.2390  -24.5850  -43.3150 C.3   143  ARG143      0.2205
    143  NE        -5.5110  -24.1260  -42.1330 N.pl3 143  ARG143     -0.0865
    144  CZ        -4.3190  -23.5240  -42.1440 C.cat 143  ARG143      0.5346
    145  NH1       -3.6820  -23.2660  -43.2850 N.pl3 143  ARG143      0.1354
    146  NH2       -3.7570  -23.1630  -40.9930 N.pl3 143  ARG143      0.1354
    147  N         -6.6680  -28.8170  -47.4910 N.am  144  ASP144     -0.1971
    148  CA        -7.6130  -29.4350  -48.4460 C.3   144  ASP144      0.1709
    149  C         -6.9000  -30.3610  -49.4460 C.2   144  ASP144      0.2293
    150  O         -7.1940  -30.3510  -50.6480 O.2   144  ASP144     -0.2864
    151  CB        -8.4180  -28.3330  -49.1610 C.3   144  ASP144      0.1436
    152  CG        -9.6680  -28.8480  -49.8990 C.2   144  ASP144      0.3671
    153  OD1      -10.1320  -29.9850  -49.6700 O.co2 144  ASP144     -0.2456
    154  OD2      -10.2050  -28.0610  -50.7120 O.co2 144  ASP144     -0.2456
    155  N          0.8890  -30.5950  -56.7010 N.3   160  ILE160     -0.1231
    156  CA        -0.1090  -29.9770  -55.8310 C.3   160  ILE160      0.1696
    157  C         -0.6450  -28.7050  -56.4740 C.2   160  ILE160      0.2632
    158  O          0.1180  -27.7950  -56.7970 O.2   160  ILE160     -0.2714
    159  CB         0.4890  -29.5860  -54.4500 C.3   160  ILE160      0.0266
    160  CG1        1.2540  -30.7520  -53.8020 C.3   160  ILE160      0.0019
    161  CG2       -0.5940  -29.0570  -53.5380 C.3   160  ILE160      0.0020
    162  CD1        0.4140  -32.0020  -53.5150 C.3   160  ILE160      0.0001
    163  N         -1.9590  -28.5950  -56.6370 N.am  161  GLY161     -0.1718
    164  CA        -2.4840  -27.3940  -57.2680 C.2   161  GLY161      0.1480
    165  C         -3.9430  -27.4400  -57.6290 C.2   161  GLY161      0.2820
    166  O         -4.4710  -28.5080  -57.9610 O.2   161  GLY161     -0.2669
    167  N         -4.5880  -26.2690  -57.5980 N.am  162  ASP162     -0.1937
    168  CA        -6.0120  -26.1770  -57.9070 C.3   162  ASP162      0.1712
    169  C         -6.4690  -24.7260  -58.0860 C.2   162  ASP162      0.2293
    170  O         -5.7360  -23.7930  -57.7070 O.2   162  ASP162     -0.2864
    171  CB        -6.8400  -26.8770  -56.8180 C.3   162  ASP162      0.1436
    172  CG        -6.9640  -26.0670  -55.5370 C.2   162  ASP162      0.3671
    173  OD1       -7.7970  -25.1300  -55.5160 O.co2 162  ASP162     -0.2456
    174  OD2       -6.2780  -26.4050  -54.5260 O.co2 162  ASP162     -0.2456
    175  N        -18.3370  -22.4050  -42.7260 N.3   178  GLY178     -0.1210
    176  CA       -17.3530  -22.6600  -43.7720 C.3   178  GLY178      0.1956
    177  C        -17.4770  -24.0570  -44.3610 C.2   178  GLY178      0.2612
    178  O        -17.9670  -24.9760  -43.7030 O.2   178  GLY178     -0.2717
    179  N        -17.0320  -24.2080  -45.6040 N.am  179  LEU179     -0.1965
    180  CA       -17.0910  -25.4950  -46.2980 C.3   179  LEU179      0.1728
    181  C        -15.9720  -26.4210  -45.8280 C.2   179  LEU179      0.2616
    182  O        -14.8010  -26.0380  -45.8500 O.2   179  LEU179     -0.2715
    183  CB       -16.9750  -25.2770  -47.8080 C.3   179  LEU179      0.0311
    184  CG       -18.1570  -24.6210  -48.5080 C.3   179  LEU179      0.0022
    185  CD1      -17.7820  -24.2690  -49.9230 C.3   179  LEU179      0.0001
    186  CD2      -19.3700  -25.5310  -48.5080 C.3   179  LEU179      0.0001
    187  N        -16.3150  -27.6450  -45.4240 N.am  180  LEU180     -0.1964
    188  CA       -15.3210  -28.5960  -44.9090 C.3   180  LEU180      0.1713
    189  C        -15.2880  -29.8640  -45.7620 C.2   180  LEU180      0.2458
    190  O        -16.3360  -30.4380  -46.0380 O.2   180  LEU180     -0.2730
    191  CB       -15.6670  -29.0120  -43.4800 C.3   180  LEU180      0.0310
    192  CG       -15.7380  -27.9040  -42.4190 C.3   180  LEU180      0.0022
    193  CD1      -16.3740  -28.4570  -41.1600 C.3   180  LEU180      0.0001
    194  CD2      -14.3630  -27.3540  -42.1070 C.3   180  LEU180      0.0001
    195  N        -14.0890  -30.3000  -46.1790 N.am  181  PRO181     -0.2727
    196  CA       -13.9170  -31.5220  -46.9260 C.3   181  PRO181      0.1402
    197  C        -13.9440  -32.7590  -46.0170 C.2   181  PRO181      0.2269
    198  O        -12.9230  -33.4240  -45.8570 O.2   181  PRO181     -0.2865
    199  CB       -12.5410  -31.3210  -47.5690 C.3   181  PRO181      0.0296
    200  CG       -11.8250  -30.4670  -46.6140 C.3   181  PRO181      0.0237
    201  CD       -12.8100  -29.6000  -45.9660 C.3   181  PRO181      0.0939
    202  N        -11.6640  -28.5140  -35.5150 N.3   193  GLY193     -0.1225
    203  CA       -11.5690  -27.6260  -36.6650 C.3   193  GLY193      0.1811
    204  C        -10.1970  -27.0180  -36.9040 C.2   193  GLY193      0.2280
    205  O        -10.0700  -26.0780  -37.7020 O.2   193  GLY193     -0.2866
    206  N         -6.2880  -27.4910  -38.3160 N.3   195  PHE195     -0.1241
    207  CA        -5.5440  -28.2520  -39.3090 C.3   195  PHE195      0.1605
    208  C         -4.0400  -28.1250  -39.0230 C.2   195  PHE195      0.2264
    209  O         -3.5610  -27.0500  -38.6180 O.2   195  PHE195     -0.2867
    210  CB        -5.8870  -27.7290  -40.7080 C.3   195  PHE195      0.0534
    211  CG        -7.3290  -27.9180  -41.0820 C.ar  195  PHE195     -0.0203
    212  CD1       -8.2980  -27.0360  -40.6410 C.ar  195  PHE195     -0.0042
    213  CD2       -7.7240  -28.9840  -41.8540 C.ar  195  PHE195     -0.0042
    214  CE1       -9.6430  -27.2200  -40.9780 C.ar  195  PHE195     -0.0003
    215  CE2       -9.0780  -29.1710  -42.2040 C.ar  195  PHE195     -0.0003
    216  CZ       -10.0250  -28.2850  -41.7640 C.ar  195  PHE195     -0.0000
@<TRIPOS>BOND
     1   102   101    2
     2   101   100    1
     3     1     2    1
     4    99   100    1
     5   100   103    1
     6    95    94    2
     7     4     3    2
     8     3     2    1
     9     2     5    1
    10    94    93    1
    11   103   104    1
    12    92    93    1
    13    83    81    1
    14    93    96    1
    15     5     6    1
    16     6     7    1
    17    76    75    2
    18    79    80    1
    19    79    78    1
    20   104   105    1
    21    77    78    1
    22    77    74    1
    23    81    80    2
    24    81    82    1
    25    86    87    2
    26    86    85    1
    27    71    70    1
    28   105   106    1
    29    75    74    1
    30    75    84   am
    31    96    97    1
    32    96    98    1
    33    73    74    1
    34    73    68   am
    35    72    70    1
    36     7     8    1
    37    85    84    1
    38    85    88    1
    39    70    67    1
    40    67    68    1
    41    67    66    1
    42    29    28   ar
    43    29    27   ar
    44    68    69    2
    45    90    89    1
    46    28    26   ar
    47     8     9    1
    48    89    88    1
    49    89    91    1
    50    27    25   ar
    51    62    61    2
    52    66    61   am
    53   169   168    1
    54   169   170    2
    55    61    60    1
    56   166   165    2
    57   168   167    1
    58   168   171    1
    59    26    24   ar
    60   165   167   am
    61   165   164    1
    62    25    24   ar
    63   164   163    2
    64    59    60    1
    65    24    23    1
    66   171   172    1
    67    60    63    1
    68   158   157    2
    69   155   156    1
    70   163   157    1
    71   157   156    1
    72    43    40    1
    73   156   159    1
    74    23    20    1
    75   172   173   ar
    76   172   174   ar
    77    63    64    1
    78    63    65    1
    79    40    41    1
    80    40    39    1
    81    22    21    2
    82    54    53    2
    83    21    20    1
    84    42    41    2
    85    55    56    1
    86    55    52    1
    87   159   160    1
    88   159   161    1
    89    20    19    1
    90    39    32   am
    91    53    52    1
    92    56    57    1
    93   160   162    1
    94    37    36   ar
    95    52    51    1
    96    58    57    1
    97    32    33    2
    98    32    31    1
    99    19    12   am
   100    34    31    1
   101    34    35    1
   102    51    46   am
   103    36    35    1
   104    36    38   ar
   105    31    30    1
   106    12    13    2
   107    12    11    1
   108   135   134   ar
   109   135   133   ar
   110    46    47    2
   111    46    45    1
   112    44    45    1
   113    10    11    1
   114    11    14    1
   115   134   132   ar
   116   113   112    1
   117   154   152   ar
   118   150   149    2
   119   114   112    1
   120   133   131   ar
   121    45    48    1
   122    14    15    1
   123    50    48    1
   124   112   111    1
   125    15    16    1
   126   185   184    1
   127   152   153   ar
   128   152   151    1
   129    16    17   ar
   130    16    18   ar
   131    48    49    1
   132   132   131   ar
   133   149   148    1
   134   131   130    1
   135   151   148    1
   136   125   123   ar
   137   125   124   ar
   138   107   108    1
   139   111   108    1
   140   123   121   ar
   141   124   122   ar
   142   186   184    1
   143   184   183    1
   144   148   147    1
   145   108   109    1
   146   121   120   ar
   147   130   127    1
   148   122   120   ar
   149   183   180    1
   150   199   196    1
   151   199   200    1
   152   120   119    1
   153   147   138   am
   154   129   128    2
   155   127   128    1
   156   127   126    1
   157   196   195    1
   158   196   197    1
   159   109   110    2
   160   119   116    1
   161   128   136   am
   162   200   201    1
   163   180   181    1
   164   180   179    1
   165   138   139    2
   166   138   137    1
   167   195   201    1
   168   195   189   am
   169   190   189    2
   170   197   198    2
   171   182   181    2
   172   181   187   am
   173   136   137    1
   174   189   188    1
   175   179   177   am
   176   187   188    1
   177   118   117    2
   178   137   140    1
   179   116   117    1
   180   116   115    1
   181   188   191    1
   182   140   141    1
   183   177   176    1
   184   177   178    2
   185   141   142    1
   186   176   175    1
   187   191   192    1
   188   142   143    1
   189   145   144    1
   190   192   194    1
   191   192   193    1
   192   215   213   ar
   193   215   216   ar
   194   144   143    2
   195   144   146    1
   196   213   211   ar
   197   216   214   ar
   198   211   210    1
   199   211   212   ar
   200   214   212   ar
   201   210   207    1
   202   207   208    1
   203   207   206    1
   204   208   209    2
   205   205   204    2
   206   204   203    1
   207   203   202    1
