@<TRIPOS>MOLECULE
tmp/3lw0A02.pdb
 99 96 0 0 0
SMALL
GASTEIGER

@<TRIPOS>ATOM
      1  N         13.5780  -17.3060  -71.2150 N.3    42  ASP42      -0.1239
      2  CA        13.8960  -17.9020  -72.5310 C.3    42  ASP42       0.1674
      3  C         12.6940  -18.3360  -73.3900 C.2    42  ASP42       0.2266
      4  O         12.8930  -18.8960  -74.4700 O.2    42  ASP42      -0.2867
      5  CB        14.8860  -19.0710  -72.3900 C.3    42  ASP42       0.1410
      6  CG        16.1860  -18.6670  -71.6990 C.2    42  ASP42       0.3668
      7  OD1       16.7370  -17.6010  -72.0350 O.co2  42  ASP42      -0.2456
      8  OD2       16.6420  -19.4230  -70.8120 O.co2  42  ASP42      -0.2456
      9  N          9.2460  -28.2210  -58.0370 N.3    78  HIS78      -0.1226
     10  CA         8.8480  -29.0060  -59.2000 C.3    78  HIS78       0.1752
     11  C          7.4920  -29.6870  -59.0190 C.2    78  HIS78       0.2596
     12  O          6.7960  -29.9660  -59.9920 O.2    78  HIS78      -0.2718
     13  CB         9.9140  -30.0790  -59.4930 C.3    78  HIS78       0.0759
     14  CG         9.6830  -30.8360  -60.7680 C.ar   78  HIS78       0.0818
     15  ND1        9.9220  -30.2780  -62.0130 N.ar   78  HIS78      -0.2268
     16  CD2        9.2660  -32.1010  -60.9970 C.ar   78  HIS78       0.1154
     17  CE1        9.6330  -31.1700  -62.9500 C.ar   78  HIS78       0.1986
     18  NE2        9.2320  -32.2840  -62.3630 N.ar   78  HIS78      -0.2212
     19  N          7.1600  -30.0530  -57.7750 N.am   79  HIS79      -0.1975
     20  CA         5.9320  -30.7950  -57.4920 C.3    79  HIS79       0.1656
     21  C          4.7840  -29.9270  -56.9280 C.2    79  HIS79       0.2291
     22  O          3.8040  -30.4730  -56.3870 O.2    79  HIS79      -0.2864
     23  CB         6.2310  -31.9740  -56.5780 C.3    79  HIS79       0.0771
     24  CG         7.1440  -32.9870  -57.1940 C.ar   79  HIS79       0.0820
     25  ND1        8.3410  -33.3560  -56.6250 N.ar   79  HIS79      -0.2267
     26  CD2        7.0360  -33.6910  -58.3420 C.ar   79  HIS79       0.1154
     27  CE1        8.9280  -34.2640  -57.3940 C.ar   79  HIS79       0.1986
     28  NE2        8.1570  -34.4760  -58.4500 N.ar   79  HIS79      -0.2212
     29  N          5.5010  -38.0610  -55.7220 N.3   127  GLU127     -0.1245
     30  CA         5.4050  -36.6760  -56.2250 C.3   127  GLU127      0.1567
     31  C          4.5340  -35.8010  -55.3150 C.2   127  GLU127      0.2260
     32  O          4.9030  -34.6750  -54.9270 O.2   127  GLU127     -0.2867
     33  CB         4.8530  -36.6790  -57.6720 C.3   127  GLU127      0.0388
     34  CG         5.8250  -37.2890  -58.6660 C.3   127  GLU127      0.1160
     35  CD         5.2860  -37.4380  -60.0950 C.2   127  GLU127      0.3649
     36  OE1        4.0720  -37.6690  -60.3010 O.co2 127  GLU127     -0.2457
     37  OE2        6.1040  -37.3370  -61.0350 O.co2 127  GLU127     -0.2457
     38  N          3.2860  -34.8150  -69.3450 N.3   155  ASP155     -0.1239
     39  CA         4.1280  -36.0140  -69.1500 C.3   155  ASP155      0.1674
     40  C          3.7150  -36.9040  -67.9650 C.2   155  ASP155      0.2266
     41  O          4.4480  -37.8390  -67.5990 O.2   155  ASP155     -0.2867
     42  CB         5.6130  -35.6120  -69.0480 C.3   155  ASP155      0.1410
     43  CG         5.9930  -34.9990  -67.6940 C.2   155  ASP155      0.3668
     44  OD1        5.1090  -34.6950  -66.8570 O.co2 155  ASP155     -0.2456
     45  OD2        7.2120  -34.8160  -67.4670 O.co2 155  ASP155     -0.2456
     46  N          3.4370  -36.1230  -64.8100 N.3   157  THR157     -0.1218
     47  CA         3.8490  -35.5980  -63.5100 C.3   157  THR157      0.1862
     48  C          2.6440  -35.0210  -62.7370 C.2   157  THR157      0.2287
     49  O          1.9130  -34.1810  -63.2720 O.2   157  THR157     -0.2866
     50  CB         4.9210  -34.5020  -63.6490 C.3   157  THR157      0.1770
     51  OG1        6.0410  -34.9970  -64.3930 O.3   157  THR157     -0.2211
     52  CG2        5.3960  -34.0630  -62.2860 C.3   157  THR157      0.0375
     53  N         11.2370  -43.5330  -59.5260 N.3   277  GLU277     -0.1231
     54  CA        11.8940  -43.6730  -60.8320 C.3   277  GLU277      0.1684
     55  C         13.1240  -42.8010  -60.9000 C.2   277  GLU277      0.2434
     56  O         13.2290  -41.8190  -60.1370 O.2   277  GLU277     -0.2733
     57  CB        10.9450  -43.3100  -61.9810 C.3   277  GLU277      0.0402
     58  CG        10.5490  -41.8210  -62.0130 C.3   277  GLU277      0.1161
     59  CD         9.3060  -41.5220  -62.8570 C.2   277  GLU277      0.3649
     60  OE1        9.0490  -42.2530  -63.8300 O.co2 277  GLU277     -0.2457
     61  OE2        8.5950  -40.5410  -62.5330 O.co2 277  GLU277     -0.2457
     62  N         14.0850  -43.1780  -61.7730 N.am  278  PRO278     -0.2718
     63  CA        15.2250  -42.3220  -62.0460 C.3   278  PRO278      0.1535
     64  C         14.7570  -40.9570  -62.5000 C.2   278  PRO278      0.2599
     65  O         13.9600  -40.8440  -63.4630 O.2   278  PRO278     -0.2715
     66  CB        15.9440  -43.0390  -63.1900 C.3   278  PRO278      0.0310
     67  CG        15.5500  -44.4650  -63.0270 C.3   278  PRO278      0.0237
     68  CD        14.1560  -44.4320  -62.5470 C.3   278  PRO278      0.0939
     69  N         15.2650  -39.9390  -61.8270 N.am  279  GLY279     -0.1941
     70  CA        14.8630  -38.5720  -62.0830 C.3   279  GLY279      0.2014
     71  C         14.4240  -37.9130  -60.7950 C.2   279  GLY279      0.2638
     72  O         14.6740  -36.7420  -60.5860 O.2   279  GLY279     -0.2714
     73  N         13.7770  -38.6770  -59.9100 N.am  280  PHE280     -0.1973
     74  CA        13.2530  -38.1260  -58.6510 C.3   280  PHE280      0.1639
     75  C         14.3490  -37.4870  -57.7870 C.2   280  PHE280      0.2290
     76  O         14.1130  -36.4300  -57.1690 O.2   280  PHE280     -0.2864
     77  CB        12.4860  -39.2160  -57.8660 C.3   280  PHE280      0.0560
     78  CG        11.8170  -38.7200  -56.6130 C.ar  280  PHE280     -0.0200
     79  CD1       10.6470  -37.9440  -56.6820 C.ar  280  PHE280     -0.0042
     80  CD2       12.3380  -39.0430  -55.3580 C.ar  280  PHE280     -0.0042
     81  CE1       10.0000  -37.4980  -55.5290 C.ar  280  PHE280     -0.0003
     82  CE2       11.7090  -38.5960  -54.1800 C.ar  280  PHE280     -0.0003
     83  CZ        10.5360  -37.8210  -54.2590 C.ar  280  PHE280     -0.0000
     84  N         16.8750  -35.9040  -58.7540 N.3   282  GLU282     -0.1231
     85  CA        17.3250  -34.6460  -59.3450 C.3   282  GLU282      0.1699
     86  C         16.3550  -33.4730  -59.1730 C.2   282  GLU282      0.2592
     87  O         16.7900  -32.3200  -59.1130 O.2   282  GLU282     -0.2718
     88  CB        17.6510  -34.8620  -60.8250 C.3   282  GLU282      0.0402
     89  CG        18.9310  -35.6610  -61.0610 C.3   282  GLU282      0.1161
     90  CD        18.7660  -37.1710  -60.9440 C.2   282  GLU282      0.3649
     91  OE1       17.6260  -37.6640  -60.8890 O.co2 282  GLU282     -0.2457
     92  OE2       19.7930  -37.8890  -60.9160 O.co2 282  GLU282     -0.2457
     93  N         15.0590  -33.7560  -59.0950 N.am  283  VAL283     -0.1980
     94  CA        14.0370  -32.6980  -58.9920 C.3   283  VAL283      0.1595
     95  C         13.3180  -32.5690  -57.6430 C.2   283  VAL283      0.2287
     96  O         12.5870  -31.5920  -57.4200 O.2   283  VAL283     -0.2864
     97  CB        12.9710  -32.8240  -60.1310 C.3   283  VAL283      0.0276
     98  CG1       13.6120  -32.5820  -61.4690 C.3   283  VAL283      0.0022
     99  CG2       12.2930  -34.1580  -60.0920 C.3   283  VAL283      0.0022
@<TRIPOS>BOND
     1     4     3    2
     2     3     2    1
     3     2     5    1
     4     2     1    1
     5     5     6    1
     6     7     6   ar
     7     6     8   ar
     8    38    39    1
     9    39    42    1
    10    39    40    1
    11    42    43    1
    12    40    41    2
    13    43    45   ar
    14    43    44   ar
    15    46    47    1
    16    51    50    1
    17    60    59   ar
    18    50    47    1
    19    50    52    1
    20    47    48    1
    21    65    64    2
    22    49    48    2
    23    66    67    1
    24    66    63    1
    25    67    68    1
    26    17    18   ar
    27    17    15   ar
    28    59    61   ar
    29    59    58    1
    30    68    62    1
    31    64    63    1
    32    64    69   am
    33    18    16   ar
    34    70    69    1
    35    70    71    1
    36    63    62    1
    37    58    57    1
    38    15    14   ar
    39    57    54    1
    40    62    55   am
    41    98    97    1
    42    89    90    1
    43    89    88    1
    44    37    35   ar
    45    16    14   ar
    46    90    92   ar
    47    90    91   ar
    48    55    54    1
    49    55    56    2
    50    54    53    1
    51    88    85    1
    52    71    72    2
    53    71    73   am
    54    14    13    1
    55    36    35   ar
    56    97    99    1
    57    97    94    1
    58    35    34    1
    59    12    11    2
    60    73    74    1
    61    13    10    1
    62    85    86    1
    63    85    84    1
    64    10    11    1
    65    10     9    1
    66    86    87    2
    67    86    93   am
    68    93    94    1
    69    11    19   am
    70    94    95    1
    71    34    33    1
    72    74    77    1
    73    74    75    1
    74    28    26   ar
    75    28    27   ar
    76    26    24   ar
    77    77    78    1
    78    75    76    2
    79    19    20    1
    80    33    30    1
    81    95    96    2
    82    20    21    1
    83    20    23    1
    84    27    25   ar
    85    24    25   ar
    86    24    23    1
    87    21    22    2
    88    79    78   ar
    89    79    81   ar
    90    78    80   ar
    91    30    29    1
    92    30    31    1
    93    81    83   ar
    94    80    82   ar
    95    31    32    2
    96    83    82   ar
