@<TRIPOS>MOLECULE
tmp/3lw0A01.pdb
 143 137 0 0 0
SMALL
GASTEIGER

@<TRIPOS>ATOM
      1  N          9.2460  -28.2210  -58.0370 N.3    78  HIS78      -0.1241
      2  CA         8.8480  -29.0060  -59.2000 C.3    78  HIS78       0.1621
      3  C          7.4920  -29.6870  -59.0190 C.2    78  HIS78       0.2264
      4  O          6.7960  -29.9660  -59.9920 O.2    78  HIS78      -0.2867
      5  CB         9.9140  -30.0790  -59.4930 C.3    78  HIS78       0.0745
      6  CG         9.6830  -30.8360  -60.7680 C.ar   78  HIS78       0.0817
      7  ND1        9.9220  -30.2780  -62.0130 N.ar   78  HIS78      -0.2268
      8  CD2        9.2660  -32.1010  -60.9970 C.ar   78  HIS78       0.1154
      9  CE1        9.6330  -31.1700  -62.9500 C.ar   78  HIS78       0.1986
     10  NE2        9.2320  -32.2840  -62.3630 N.ar   78  HIS78      -0.2212
     11  N         -6.5400  -34.5320  -60.8700 N.3   105  LEU105     -0.1245
     12  CA        -6.3050  -35.9840  -60.7290 C.3   105  LEU105      0.1561
     13  C         -7.5820  -36.8100  -60.5020 C.2   105  LEU105      0.2260
     14  O         -7.6860  -37.9400  -60.9950 O.2   105  LEU105     -0.2867
     15  CB        -5.2530  -36.2810  -59.6620 C.3   105  LEU105      0.0270
     16  CG        -4.9080  -37.7500  -59.3570 C.3   105  LEU105      0.0019
     17  CD1       -4.3200  -38.4390  -60.5810 C.3   105  LEU105      0.0001
     18  CD2       -3.9340  -37.7890  -58.1670 C.3   105  LEU105      0.0001
     19  N         -9.1100  -37.2680  -63.8630 N.3   108  TYR108     -0.1227
     20  CA        -8.2550  -38.1330  -64.6530 C.3   108  TYR108      0.1736
     21  C         -8.4700  -39.5880  -64.2550 C.2   108  TYR108      0.2595
     22  O         -8.7090  -40.4330  -65.1110 O.2   108  TYR108     -0.2718
     23  CB        -6.7720  -37.7700  -64.5180 C.3   108  TYR108      0.0548
     24  CG        -5.9490  -38.6740  -65.4090 C.ar  108  TYR108     -0.0200
     25  CD1       -5.8910  -38.4620  -66.7830 C.ar  108  TYR108     -0.0009
     26  CD2       -5.3250  -39.7930  -64.8910 C.ar  108  TYR108     -0.0009
     27  CE1       -5.1840  -39.3300  -67.6060 C.ar  108  TYR108      0.0417
     28  CE2       -4.6180  -40.6540  -65.7020 C.ar  108  TYR108      0.0417
     29  CZ        -4.5450  -40.4140  -67.0400 C.ar  108  TYR108      0.1957
     30  OH        -3.8390  -41.2930  -67.8210 O.3   108  TYR108     -0.2866
     31  N         -8.3940  -39.8660  -62.9570 N.am  109  LEU109     -0.1980
     32  CA        -8.6250  -41.2230  -62.4810 C.3   109  LEU109      0.1596
     33  C         -9.9900  -41.7660  -62.9280 C.2   109  LEU109      0.2287
     34  O        -10.0970  -42.8960  -63.4270 O.2   109  LEU109     -0.2864
     35  CB        -8.5060  -41.2620  -60.9580 C.3   109  LEU109      0.0297
     36  CG        -7.1000  -41.0900  -60.3980 C.3   109  LEU109      0.0022
     37  CD1       -7.1630  -40.8660  -58.8920 C.3   109  LEU109      0.0001
     38  CD2       -6.2470  -42.3070  -60.7390 C.3   109  LEU109      0.0001
     39  N        -10.3930  -43.1550  -66.4720 N.3   112  LEU112     -0.1245
     40  CA        -9.7900  -44.4640  -66.7530 C.3   112  LEU112      0.1561
     41  C        -10.7440  -45.6200  -66.4610 C.2   112  LEU112      0.2260
     42  O        -10.4560  -46.7730  -66.7900 O.2   112  LEU112     -0.2867
     43  CB        -8.5090  -44.6520  -65.9400 C.3   112  LEU112      0.0270
     44  CG        -7.4340  -43.5820  -66.0670 C.3   112  LEU112      0.0019
     45  CD1       -6.2890  -43.9170  -65.1510 C.3   112  LEU112      0.0001
     46  CD2       -6.9400  -43.4520  -67.5040 C.3   112  LEU112      0.0001
     47  N         -3.8960  -48.4480  -63.6160 N.3   116  PRO116     -0.2116
     48  CA        -2.5040  -48.0250  -63.4000 C.3   116  PRO116      0.1372
     49  C         -1.7060  -49.0350  -62.5640 C.2   116  PRO116      0.2244
     50  O         -2.1830  -49.5030  -61.5350 O.2   116  PRO116     -0.2868
     51  CB        -2.6290  -46.6820  -62.6740 C.3   116  PRO116      0.0268
     52  CG        -4.0410  -46.6080  -62.1830 C.3   116  PRO116      0.0207
     53  CD        -4.8620  -47.4760  -63.0750 C.3   116  PRO116      0.0892
     54  N          3.4190  -46.9910  -61.3990 N.3   120  LYS120     -0.1245
     55  CA         2.7220  -45.7080  -61.6430 C.3   120  LYS120      0.1561
     56  C          2.1300  -45.0800  -60.3720 C.2   120  LYS120      0.2260
     57  O          2.3220  -43.8840  -60.0990 O.2   120  LYS120     -0.2867
     58  CB         1.6380  -45.8690  -62.7220 C.3   120  LYS120      0.0271
     59  CG         2.1890  -45.9910  -64.1270 C.3   120  LYS120      0.0035
     60  CD         1.0460  -46.2650  -65.1200 C.3   120  LYS120      0.0206
     61  CE         1.5380  -46.4920  -66.5180 C.3   120  LYS120      0.1093
     62  NZ         0.3600  -46.5700  -67.4350 N.3   120  LYS120     -0.1314
     63  N          4.8400  -43.6480  -58.1410 N.3   123  GLN123     -0.1231
     64  CA         5.3710  -42.3740  -58.6480 C.3   123  GLN123      0.1698
     65  C          4.4650  -41.2160  -58.2670 C.2   123  GLN123      0.2592
     66  O          4.9360  -40.1590  -57.8220 O.2   123  GLN123     -0.2718
     67  CB         5.5620  -42.3880  -60.1790 C.3   123  GLN123      0.0381
     68  CG         6.4610  -43.4760  -60.7110 C.3   123  GLN123      0.0905
     69  CD         7.6720  -43.7700  -59.8520 C.2   123  GLN123      0.2608
     70  OE1        8.4830  -42.8880  -59.5810 O.2   123  GLN123     -0.2717
     71  NE2        7.8120  -45.0240  -59.4300 N.am  123  GLN123     -0.0878
     72  N          3.1640  -41.3960  -58.4650 N.am  124  MET124     -0.1979
     73  CA         2.2080  -40.3610  -58.0880 C.3   124  MET124      0.1605
     74  C          2.2580  -40.0680  -56.5870 C.2   124  MET124      0.2287
     75  O          2.2680  -38.8980  -56.1580 O.2   124  MET124     -0.2864
     76  CB         0.8010  -40.7460  -58.5450 C.3   124  MET124      0.0413
     77  CG         0.6700  -40.7910  -60.0820 C.3   124  MET124      0.0598
     78  SD        -1.0410  -40.9290  -60.6770 S.3   124  MET124     -0.1393
     79  CE        -1.2050  -42.6270  -60.2450 C.3   124  MET124      0.0692
     80  N          5.5010  -38.0610  -55.7220 N.3   127  GLU127     -0.1245
     81  CA         5.4050  -36.6760  -56.2250 C.3   127  GLU127      0.1567
     82  C          4.5340  -35.8010  -55.3150 C.2   127  GLU127      0.2260
     83  O          4.9030  -34.6750  -54.9270 O.2   127  GLU127     -0.2867
     84  CB         4.8530  -36.6790  -57.6720 C.3   127  GLU127      0.0388
     85  CG         5.8250  -37.2890  -58.6660 C.3   127  GLU127      0.1160
     86  CD         5.2860  -37.4380  -60.0950 C.2   127  GLU127      0.3649
     87  OE1        4.0720  -37.6690  -60.3010 O.co2 127  GLU127     -0.2457
     88  OE2        6.1040  -37.3370  -61.0350 O.co2 127  GLU127     -0.2457
     89  N          3.2860  -34.8150  -69.3450 N.3   155  ASP155     -0.1225
     90  CA         4.1280  -36.0140  -69.1500 C.3   155  ASP155      0.1805
     91  C          3.7150  -36.9040  -67.9650 C.2   155  ASP155      0.2598
     92  O          4.4480  -37.8390  -67.5990 O.2   155  ASP155     -0.2718
     93  CB         5.6130  -35.6120  -69.0480 C.3   155  ASP155      0.1424
     94  CG         5.9930  -34.9990  -67.6940 C.2   155  ASP155      0.3668
     95  OD1        5.1090  -34.6950  -66.8570 O.co2 155  ASP155     -0.2456
     96  OD2        7.2120  -34.8160  -67.4670 O.co2 155  ASP155     -0.2456
     97  N          2.5400  -36.6200  -67.3900 N.am  156  PHE156     -0.1962
     98  CA         1.9320  -37.3670  -66.2920 C.3   156  PHE156      0.1771
     99  C          2.4900  -37.0570  -64.8970 C.2   156  PHE156      0.2620
    100  O          2.0270  -37.6050  -63.9040 O.2   156  PHE156     -0.2715
    101  CB         1.8960  -38.8840  -66.5620 C.3   156  PHE156      0.0574
    102  CG         1.0390  -39.2570  -67.7410 C.ar  156  PHE156     -0.0200
    103  CD1       -0.3440  -39.2610  -67.6300 C.ar  156  PHE156     -0.0042
    104  CD2        1.6100  -39.5840  -68.9490 C.ar  156  PHE156     -0.0042
    105  CE1       -1.1420  -39.6070  -68.7260 C.ar  156  PHE156     -0.0003
    106  CE2        0.8120  -39.9150  -70.0410 C.ar  156  PHE156     -0.0003
    107  CZ        -0.5670  -39.9250  -69.9030 C.ar  156  PHE156     -0.0000
    108  N          3.4370  -36.1230  -64.8100 N.am  157  THR157     -0.1951
    109  CA         3.8490  -35.5980  -63.5100 C.3   157  THR157      0.1897
    110  C          2.6440  -35.0210  -62.7370 C.2   157  THR157      0.2313
    111  O          1.9130  -34.1810  -63.2720 O.2   157  THR157     -0.2863
    112  CB         4.9210  -34.5020  -63.6490 C.3   157  THR157      0.1794
    113  OG1        6.0410  -34.9970  -64.3930 O.3   157  THR157     -0.2208
    114  CG2        5.3960  -34.0630  -62.2860 C.3   157  THR157      0.0378
    115  N         11.2370  -43.5330  -59.5260 N.3   277  GLU277     -0.1231
    116  CA        11.8940  -43.6730  -60.8320 C.3   277  GLU277      0.1684
    117  C         13.1240  -42.8010  -60.9000 C.2   277  GLU277      0.2434
    118  O         13.2290  -41.8190  -60.1370 O.2   277  GLU277     -0.2733
    119  CB        10.9450  -43.3100  -61.9810 C.3   277  GLU277      0.0402
    120  CG        10.5490  -41.8210  -62.0130 C.3   277  GLU277      0.1161
    121  CD         9.3060  -41.5220  -62.8570 C.2   277  GLU277      0.3649
    122  OE1        9.0490  -42.2530  -63.8300 O.co2 277  GLU277     -0.2457
    123  OE2        8.5950  -40.5410  -62.5330 O.co2 277  GLU277     -0.2457
    124  N         14.0850  -43.1780  -61.7730 N.am  278  PRO278     -0.2718
    125  CA        15.2250  -42.3220  -62.0460 C.3   278  PRO278      0.1535
    126  C         14.7570  -40.9570  -62.5000 C.2   278  PRO278      0.2599
    127  O         13.9600  -40.8440  -63.4630 O.2   278  PRO278     -0.2715
    128  CB        15.9440  -43.0390  -63.1900 C.3   278  PRO278      0.0310
    129  CG        15.5500  -44.4650  -63.0270 C.3   278  PRO278      0.0237
    130  CD        14.1560  -44.4320  -62.5470 C.3   278  PRO278      0.0939
    131  N         15.2650  -39.9390  -61.8270 N.am  279  GLY279     -0.1955
    132  CA        14.8630  -38.5720  -62.0830 C.3   279  GLY279      0.1869
    133  C         14.4240  -37.9130  -60.7950 C.2   279  GLY279      0.2309
    134  O         14.6740  -36.7420  -60.5860 O.2   279  GLY279     -0.2863
    135  N         16.8750  -35.9040  -58.7540 N.3   282  GLU282     -0.1245
    136  CA        17.3250  -34.6460  -59.3450 C.3   282  GLU282      0.1567
    137  C         16.3550  -33.4730  -59.1730 C.2   282  GLU282      0.2260
    138  O         16.7900  -32.3200  -59.1130 O.2   282  GLU282     -0.2867
    139  CB        17.6510  -34.8620  -60.8250 C.3   282  GLU282      0.0388
    140  CG        18.9310  -35.6610  -61.0610 C.3   282  GLU282      0.1160
    141  CD        18.7660  -37.1710  -60.9440 C.2   282  GLU282      0.3649
    142  OE1       17.6260  -37.6640  -60.8890 O.co2 282  GLU282     -0.2457
    143  OE2       19.7930  -37.8890  -60.9160 O.co2 282  GLU282     -0.2457
@<TRIPOS>BOND
     1   106   107   ar
     2   106   104   ar
     3   107   105   ar
     4    89    90    1
     5    90    93    1
     6    90    91    1
     7    93    94    1
     8   104   102   ar
     9   105   103   ar
    10    91    92    2
    11    91    97   am
    12    30    29    1
    13   102   103   ar
    14   102   101    1
    15    94    96   ar
    16    94    95   ar
    17    27    29   ar
    18    27    25   ar
    19    46    44    1
    20    62    61    1
    21    97    98    1
    22    29    28   ar
    23    42    41    2
    24    25    24   ar
    25    40    39    1
    26    40    41    1
    27    40    43    1
    28   101    98    1
    29    61    60    1
    30    98    99    1
    31    44    43    1
    32    44    45    1
    33    28    26   ar
    34    24    26   ar
    35    24    23    1
    36    60    59    1
    37    22    21    2
    38    99   108   am
    39    99   100    2
    40   108   109    1
    41    20    23    1
    42    20    21    1
    43    20    19    1
    44   113   112    1
    45    21    31   am
    46    59    58    1
    47   122   121   ar
    48   112   109    1
    49   112   114    1
    50    47    48    1
    51    47    53    1
    52   109   110    1
    53   127   126    2
    54    34    33    2
    55    48    51    1
    56    48    49    1
    57   111   110    2
    58   128   129    1
    59   128   125    1
    60    53    52    1
    61   129   130    1
    62    31    32    1
    63     9    10   ar
    64     9     7   ar
    65    33    32    1
    66   121   123   ar
    67   121   120    1
    68    58    55    1
    69    51    52    1
    70    49    50    2
    71   130   124    1
    72   126   125    1
    73   126   131   am
    74    32    35    1
    75    10     8   ar
    76   132   131    1
    77   132   133    1
    78   125   124    1
    79     7     6   ar
    80   120   119    1
    81   119   116    1
    82   124   117   am
    83    55    54    1
    84    55    56    1
    85   140   141    1
    86   140   139    1
    87    88    86   ar
    88     8     6   ar
    89    14    13    2
    90    35    36    1
    91   141   143   ar
    92   141   142   ar
    93   117   116    1
    94   117   118    2
    95    11    12    1
    96   116   115    1
    97   139   136    1
    98   133   134    2
    99     6     5    1
   100    38    36    1
   101    12    13    1
   102    12    15    1
   103    68    67    1
   104    68    69    1
   105    78    79    1
   106    78    77    1
   107    17    16    1
   108    36    37    1
   109    56    57    2
   110    87    86   ar
   111    67    64    1
   112    86    85    1
   113    77    76    1
   114     4     3    2
   115    69    70    2
   116    69    71   am
   117    15    16    1
   118     5     2    1
   119    16    18    1
   120   136   137    1
   121   136   135    1
   122     2     3    1
   123     2     1    1
   124   137   138    2
   125    85    84    1
   126    64    65    1
   127    64    63    1
   128    76    73    1
   129    72    65   am
   130    72    73    1
   131    65    66    2
   132    73    74    1
   133    84    81    1
   134    74    75    2
   135    81    80    1
   136    81    82    1
   137    82    83    2
