@<TRIPOS>MOLECULE
tmp/3lw1A00.pdb
 198 187 0 0 0
SMALL
GASTEIGER

@<TRIPOS>ATOM
      1  N        -24.7490  -20.7470   -3.4980 N.3    46  ASN46      -0.1240
      2  CA       -23.7670  -19.7830   -3.2050 C.3    46  ASN46       0.1653
      3  C        -24.2270  -18.3560   -3.5740 C.2    46  ASN46       0.2266
      4  O        -23.9140  -17.4220   -2.8280 O.2    46  ASN46      -0.2867
      5  CB       -22.4330  -20.1890   -3.7500 C.3    46  ASN46       0.1155
      6  CG       -21.8120  -21.3070   -2.9270 C.2    46  ASN46       0.2627
      7  OD1      -21.1370  -20.9970   -1.9560 O.2    46  ASN46      -0.2716
      8  ND2      -22.0730  -22.5900   -3.2560 N.am   46  ASN46      -0.0877
      9  N        -26.3670  -17.2570   -0.6140 N.3    49  SER49      -0.1202
     10  CA       -25.5630  -16.9430    0.5520 C.3    49  SER49       0.2020
     11  C        -24.8340  -15.6140    0.3580 C.2    49  SER49       0.2618
     12  O        -24.8260  -14.7980    1.2770 O.2    49  SER49      -0.2717
     13  CB       -24.5860  -18.0720    0.7760 C.3    49  SER49       0.2103
     14  OG       -23.7750  -17.7500    1.9100 O.3    49  SER49      -0.2182
     15  N        -24.2080  -15.3930   -0.7980 N.am   50  VAL50      -0.1979
     16  CA       -23.4400  -14.1580   -0.9940 C.3    50  VAL50       0.1595
     17  C        -24.3660  -12.9590   -0.8900 C.2    50  VAL50       0.2287
     18  O        -24.0200  -11.9300   -0.2990 O.2    50  VAL50      -0.2864
     19  CB       -22.7510  -14.2000   -2.3920 C.3    50  VAL50       0.0276
     20  CG1      -22.3070  -12.8030   -2.8580 C.3    50  VAL50       0.0022
     21  CG2      -21.5850  -15.1610   -2.3650 C.3    50  VAL50       0.0022
     22  N        -25.5130  -12.4490    2.7910 N.3    53  LYS53      -0.1231
     23  CA       -24.3920  -12.1460    3.6540 C.3    53  LYS53       0.1693
     24  C        -23.9650  -10.6910    3.4660 C.2    53  LYS53       0.2592
     25  O        -23.5780  -10.0210    4.4500 O.2    53  LYS53      -0.2718
     26  CB       -23.2050  -13.0990    3.3740 C.3    53  LYS53       0.0285
     27  CG       -22.0400  -12.8450    4.2510 C.3    53  LYS53       0.0035
     28  CD       -22.3490  -13.4450    5.5710 C.3    53  LYS53       0.0206
     29  CE       -21.2930  -13.1200    6.6910 C.3    53  LYS53       0.1093
     30  NZ       -19.9960  -12.7430    6.2870 N.3    53  LYS53      -0.1314
     31  N        -23.9760  -10.1960    2.2490 N.am   54  ASN54      -0.1974
     32  CA       -23.6380   -8.8110    2.0200 C.3    54  ASN54       0.1688
     33  C        -24.7070   -7.8750    2.5830 C.2    54  ASN54       0.2292
     34  O        -24.3530   -6.8570    3.1980 O.2    54  ASN54      -0.2864
     35  CB       -23.4390   -8.5580    0.5170 C.3    54  ASN54       0.1181
     36  CG       -22.0310   -8.8900    0.0320 C.2    54  ASN54       0.2629
     37  OD1      -21.1130   -8.0520    0.1750 O.2    54  ASN54      -0.2716
     38  ND2      -21.8190  -10.0700   -0.5010 N.am   54  ASN54      -0.0877
     39  N        -24.4240   -8.0570    6.3550 N.3    57  GLY57      -0.1210
     40  CA       -23.1470   -7.5370    6.8030 C.3    57  GLY57       0.1956
     41  C        -23.1720   -6.0270    6.9100 C.2    57  GLY57       0.2612
     42  O        -22.5960   -5.4520    7.8300 O.2    57  GLY57      -0.2717
     43  N        -23.8210   -5.3620    5.9590 N.am   58  GLY58      -0.1956
     44  CA       -23.9490   -3.8920    6.0280 C.3    58  GLY58       0.1869
     45  C        -24.7620   -3.5030    7.2430 C.2    58  GLY58       0.2309
     46  O        -24.4650   -2.5140    7.9300 O.2    58  GLY58      -0.2863
     47  N        -25.1880   -5.2510   10.0650 N.3    60  ARG60      -0.1245
     48  CA       -24.4130   -5.5520   11.2770 C.3    60  ARG60       0.1563
     49  C        -23.4040   -4.4470   11.5170 C.2    60  ARG60       0.2260
     50  O        -23.2080   -4.0100   12.6650 O.2    60  ARG60      -0.2867
     51  CB       -23.7380   -6.9130   11.1390 C.3    60  ARG60       0.0307
     52  CG       -24.7180   -8.0800   11.1630 C.3    60  ARG60       0.0489
     53  CD       -24.0550   -9.3600   10.6430 C.3    60  ARG60       0.2205
     54  NE       -23.0500   -9.8610   11.6210 N.pl3  60  ARG60      -0.0865
     55  CZ       -22.0040  -10.6200   11.2430 C.cat  60  ARG60       0.5346
     56  NH1      -21.6820  -10.8660    9.9700 N.pl3  60  ARG60       0.1354
     57  NH2      -21.2470  -11.1530   12.2060 N.pl3  60  ARG60       0.1354
     58  N        -25.7480  -24.7710    8.1760 N.3   126  LYS126     -0.1245
     59  CA       -24.7810  -23.7420    8.5340 C.3   126  LYS126      0.1561
     60  C        -25.3900  -22.3480    8.4100 C.2   126  LYS126      0.2260
     61  O        -25.2310  -21.5230    9.2590 O.2   126  LYS126     -0.2867
     62  CB       -23.5700  -23.8440    7.6020 C.3   126  LYS126      0.0271
     63  CG       -22.5470  -22.7620    7.8040 C.3   126  LYS126      0.0035
     64  CD       -21.4670  -22.7850    6.7670 C.3   126  LYS126      0.0206
     65  CE       -20.6590  -21.5110    6.7530 C.3   126  LYS126      0.1093
     66  NZ       -21.5000  -20.3240    6.2250 N.3   126  LYS126     -0.1314
     67  N        -27.1800  -16.8020   14.7390 N.3   133  ARG133     -0.1231
     68  CA       -26.0850  -16.1110   15.3740 C.3   133  ARG133      0.1694
     69  C        -26.1660  -14.5830   15.2100 C.2   133  ARG133      0.2592
     70  O        -25.9480  -13.8470   16.1560 O.2   133  ARG133     -0.2718
     71  CB       -24.7290  -16.6650   14.8630 C.3   133  ARG133      0.0321
     72  CG       -23.5040  -15.8700   15.3200 C.3   133  ARG133      0.0489
     73  CD       -22.2040  -16.6130   15.1250 C.3   133  ARG133      0.2205
     74  NE       -21.9650  -17.0040   13.7320 N.pl3 133  ARG133     -0.0865
     75  CZ       -21.3760  -16.2330   12.8350 C.cat 133  ARG133      0.5346
     76  NH1      -20.8650  -15.0290   13.1580 N.pl3 133  ARG133      0.1354
     77  NH2      -21.2520  -16.6740   11.5620 N.pl3 133  ARG133      0.1354
     78  N        -26.5640  -14.1270   14.0220 N.am  134  TYR134     -0.1976
     79  CA       -26.7140  -12.6920   13.8280 C.3   134  TYR134      0.1639
     80  C        -27.8650  -12.1550   14.6620 C.2   134  TYR134      0.2290
     81  O        -27.7710  -11.0470   15.2320 O.2   134  TYR134     -0.2864
     82  CB       -26.9030  -12.3690   12.3250 C.3   134  TYR134      0.0560
     83  CG       -25.8130  -12.8940   11.4330 C.ar  134  TYR134     -0.0198
     84  CD1      -24.5020  -13.0420   11.8470 C.ar  134  TYR134     -0.0009
     85  CD2      -26.1430  -13.2830   10.1450 C.ar  134  TYR134     -0.0009
     86  CE1      -23.5270  -13.5870   10.9870 C.ar  134  TYR134      0.0417
     87  CE2      -25.1740  -13.8150    9.2810 C.ar  134  TYR134      0.0417
     88  CZ       -23.8880  -13.9620    9.7570 C.ar  134  TYR134      0.1957
     89  OH       -22.9840  -14.5780    8.8830 O.3   134  TYR134     -0.2866
     90  N        -14.5470  -27.4990    1.6330 N.3   170  PRO170     -0.2116
     91  CA       -14.7050  -26.1130    2.0310 C.3   170  PRO170      0.1372
     92  C        -15.9610  -25.7850    2.8030 C.2   170  PRO170      0.2244
     93  O        -15.9270  -24.8770    3.6480 O.2   170  PRO170     -0.2868
     94  CB       -14.5870  -25.3250    0.7140 C.3   170  PRO170      0.0268
     95  CG       -13.6190  -26.2060   -0.0990 C.3   170  PRO170      0.0207
     96  CD       -14.1810  -27.5650    0.2180 C.3   170  PRO170      0.0892
     97  N        -15.7790  -24.0900    6.4310 N.3   174  GLY174     -0.1225
     98  CA       -16.4290  -22.8340    6.7470 C.3   174  GLY174      0.1811
     99  C        -17.4340  -22.9840    7.8700 C.2   174  GLY174      0.2280
    100  O        -17.5920  -22.0580    8.6720 O.2   174  GLY174     -0.2866
    101  N        -15.3090  -23.0590   11.0240 N.3   177  LEU177     -0.1231
    102  CA       -14.8620  -21.6880   11.2950 C.3   177  LEU177      0.1693
    103  C        -15.9610  -20.8940   11.9840 C.2   177  LEU177      0.2592
    104  O        -15.7670  -20.2620   13.0320 O.2   177  LEU177     -0.2718
    105  CB       -14.4950  -21.0380    9.9610 C.3   177  LEU177      0.0284
    106  CG       -14.0960  -19.5670   10.0420 C.3   177  LEU177      0.0019
    107  CD1      -12.7290  -19.3550   10.7290 C.3   177  LEU177      0.0001
    108  CD2      -14.0490  -18.9820    8.5950 C.3   177  LEU177      0.0001
    109  N        -17.1760  -20.9350   11.4170 N.am  178  ASN178     -0.1974
    110  CA       -18.2460  -20.1340   11.9740 C.3   178  ASN178      0.1688
    111  C        -18.7650  -20.6280   13.3050 C.2   178  ASN178      0.2292
    112  O        -19.0840  -19.8440   14.1790 O.2   178  ASN178     -0.2864
    113  CB       -19.3860  -20.0500   10.9560 C.3   178  ASN178      0.1181
    114  CG       -19.1000  -19.1680    9.7570 C.2   178  ASN178      0.2629
    115  OD1      -17.9240  -18.7680    9.5570 O.2   178  ASN178     -0.2716
    116  ND2      -20.1430  -18.8560    8.9800 N.am  178  ASN178     -0.0877
    117  N        -16.4120  -19.3740   15.8940 N.3   181  VAL181     -0.1245
    118  CA       -16.6800  -17.9740   16.2480 C.3   181  VAL181      0.1561
    119  C        -17.9570  -17.9060   17.1090 C.2   181  VAL181      0.2260
    120  O        -17.9680  -17.1180   18.0690 O.2   181  VAL181     -0.2867
    121  CB       -16.7980  -17.1350   14.9750 C.3   181  VAL181      0.0252
    122  CG1      -17.3730  -15.7500   15.2890 C.3   181  VAL181      0.0019
    123  CG2      -15.3650  -16.9780   14.4040 C.3   181  VAL181      0.0019
    124  N        -16.8260  -18.5870   20.5940 N.3   184  TYR184     -0.1227
    125  CA       -16.0170  -17.5480   21.2040 C.3   184  TYR184      0.1736
    126  C        -16.8200  -16.2860   21.4980 C.2   184  TYR184      0.2595
    127  O        -16.6990  -15.7300   22.5700 O.2   184  TYR184     -0.2718
    128  CB       -14.8950  -17.1360   20.2090 C.3   184  TYR184      0.0548
    129  CG       -13.7900  -16.3680   20.8350 C.ar  184  TYR184     -0.0200
    130  CD1      -13.8980  -15.0070   21.0340 C.ar  184  TYR184     -0.0009
    131  CD2      -12.6790  -16.9860   21.3550 C.ar  184  TYR184     -0.0009
    132  CE1      -12.8660  -14.2780   21.6630 C.ar  184  TYR184      0.0417
    133  CE2      -11.6640  -16.3010   21.9870 C.ar  184  TYR184      0.0417
    134  CZ       -11.7910  -14.9850   22.1760 C.ar  184  TYR184      0.1957
    135  OH       -10.7520  -14.2570   22.7630 O.3   184  TYR184     -0.2866
    136  N        -17.6220  -15.8680   20.5610 N.am  185  GLU185     -0.1979
    137  CA       -18.2740  -14.5320   20.6040 C.3   185  GLU185      0.1602
    138  C        -19.6400  -14.5800   21.2100 C.2   185  GLU185      0.2287
    139  O        -20.0940  -13.5470   21.7460 O.2   185  GLU185     -0.2864
    140  CB       -18.4270  -13.9870   19.1120 C.3   185  GLU185      0.0415
    141  CG       -17.1540  -13.6320   18.4550 C.3   185  GLU185      0.1163
    142  CD       -17.2550  -12.8400   17.1290 C.2   185  GLU185      0.3649
    143  OE1      -18.3820  -12.5720   16.6160 O.co2 185  GLU185     -0.2457
    144  OE2      -16.1690  -12.5480   16.5320 O.co2 185  GLU185     -0.2457
    145  N         -9.5100  -21.2500    3.5020 N.3   222  ILE222     -0.1245
    146  CA       -10.3450  -21.3000    4.7320 C.3   222  ILE222      0.1561
    147  C         -9.5030  -21.6650    5.9330 C.2   222  ILE222      0.2260
    148  O         -9.6940  -21.1560    7.0200 O.2   222  ILE222     -0.2867
    149  CB       -11.5830  -22.1810    4.5920 C.3   222  ILE222      0.0252
    150  CG1      -12.3410  -21.7370    3.3290 C.3   222  ILE222      0.0019
    151  CG2      -12.4620  -22.1090    5.8300 C.3   222  ILE222      0.0019
    152  CD1      -13.3620  -22.6840    3.0060 C.3   222  ILE222      0.0001
    153  N         -8.0710  -18.7050    7.5090 N.3   225  LEU225     -0.1245
    154  CA        -9.0230  -17.9900    8.3660 C.3   225  LEU225      0.1561
    155  C         -9.0480  -18.6000    9.7700 C.2   225  LEU225      0.2260
    156  O         -9.0900  -17.8680   10.7720 O.2   225  LEU225     -0.2867
    157  CB       -10.4210  -17.9450    7.7750 C.3   225  LEU225      0.0270
    158  CG       -10.5310  -17.2760    6.3760 C.3   225  LEU225      0.0019
    159  CD1      -11.9930  -17.4370    5.8660 C.3   225  LEU225      0.0001
    160  CD2      -10.1150  -15.7910    6.4310 C.3   225  LEU225      0.0001
    161  N         -5.9290  -17.4150   11.3760 N.3   228  ASP228     -0.1225
    162  CA        -6.0370  -16.0080   11.8010 C.3   228  ASP228      0.1805
    163  C         -6.8260  -15.8400   13.0960 C.2   228  ASP228      0.2597
    164  O         -6.3760  -15.0890   13.9780 O.2   228  ASP228     -0.2718
    165  CB        -6.8090  -15.1750   10.7210 C.3   228  ASP228      0.1424
    166  CG        -6.1100  -15.0420    9.4160 C.2   228  ASP228      0.3668
    167  OD1       -4.8460  -15.2170    9.3820 O.co2 228  ASP228     -0.2456
    168  OD2       -6.8810  -14.6950    8.4380 O.co2 228  ASP228     -0.2456
    169  N         -7.9110  -16.5840   13.2500 N.am  229  ASN229     -0.1974
    170  CA        -8.6330  -16.5130   14.5360 C.3   229  ASN229      0.1688
    171  C         -7.8070  -17.1120   15.6570 C.2   229  ASN229      0.2292
    172  O         -7.7350  -16.5240   16.7480 O.2   229  ASN229     -0.2864
    173  CB        -9.9580  -17.2790   14.4180 C.3   229  ASN229      0.1181
    174  CG       -11.0260  -16.5510   13.6080 C.2   229  ASN229      0.2629
    175  OD1      -10.8370  -15.2960   13.4540 O.2   229  ASN229     -0.2716
    176  ND2      -12.0910  -17.1660   13.2330 N.am  229  ASN229     -0.0877
    177  N         -5.3880  -14.5500   16.8960 N.3   232  LEU232     -0.1231
    178  CA        -6.0870  -13.5240   17.7130 C.3   232  LEU232      0.1693
    179  C         -6.4230  -14.0690   19.0930 C.2   232  LEU232      0.2592
    180  O         -6.3730  -13.3480   20.0810 O.2   232  LEU232     -0.2718
    181  CB        -7.3610  -13.0650   17.0270 C.3   232  LEU232      0.0284
    182  CG        -7.2130  -12.2520   15.7500 C.3   232  LEU232      0.0019
    183  CD1       -8.5670  -12.1100   15.0780 C.3   232  LEU232      0.0001
    184  CD2       -6.6460  -10.9210   15.9800 C.3   232  LEU232      0.0001
    185  N         -6.7830  -15.3580   19.1950 N.am  233  TRP233     -0.1976
    186  CA        -7.3260  -15.9090   20.4490 C.3   233  TRP233      0.1640
    187  C         -6.2880  -16.5330   21.4010 C.2   233  TRP233      0.2290
    188  O         -6.6110  -16.8480   22.5730 O.2   233  TRP233     -0.2864
    189  CB        -8.2860  -17.0290   20.0620 C.3   233  TRP233      0.0576
    190  CG        -9.5170  -16.5930   19.3650 C.ar  233  TRP233      0.0006
    191  CD1       -9.9880  -15.3530   19.2560 C.ar  233  TRP233      0.0946
    192  CD2      -10.4000  -17.4440   18.6030 C.ar  233  TRP233      0.0152
    193  NE1      -11.1510  -15.3340   18.5190 N.ar  233  TRP233     -0.2442
    194  CE2      -11.4090  -16.6070   18.0830 C.ar  233  TRP233      0.0810
    195  CE3      -10.3940  -18.8160   18.3170 C.ar  233  TRP233      0.0012
    196  CZ2      -12.4950  -17.0870   17.3410 C.ar  233  TRP233      0.0191
    197  CZ3      -11.4530  -19.3170   17.5190 C.ar  233  TRP233      0.0001
    198  CH2      -12.4800  -18.4370   17.0630 C.ar  233  TRP233      0.0015
@<TRIPOS>BOND
     1     5     2    1
     2     5     6    1
     3     3     2    1
     4     3     4    2
     5     1     2    1
     6     8     6   am
     7     6     7    2
     8    20    19    1
     9    19    21    1
    10    19    16    1
    11    16    17    1
    12    16    15    1
    13    17    18    2
    14    15    11   am
    15     9    10    1
    16    38    36   am
    17    95    96    1
    18    95    94    1
    19    36    37    2
    20    36    35    1
    21    96    90    1
    22    11    10    1
    23    11    12    2
    24    35    32    1
    25    10    13    1
    26    94    91    1
    27    13    14    1
    28    90    91    1
    29    32    31    1
    30    32    33    1
    31    91    92    1
    32    31    24   am
    33    33    34    2
    34    22    23    1
    35    92    93    2
    36   152   150    1
    37   150   149    1
    38    26    23    1
    39    26    27    1
    40    24    23    1
    41    24    25    2
    42   145   146    1
    43    27    28    1
    44   149   146    1
    45   149   151    1
    46   146   147    1
    47    28    29    1
    48   159   158    1
    49   147   148    2
    50    43    44    1
    51    43    41   am
    52    44    45    1
    53    66    65    1
    54    30    29    1
    55    39    40    1
    56   158   160    1
    57   158   157    1
    58    97    98    1
    59    98    99    1
    60    65    64    1
    61    64    63    1
    62    40    41    1
    63    41    42    2
    64    45    46    2
    65   153   154    1
    66    62    63    1
    67    62    59    1
    68   157   154    1
    69    99   100    2
    70    58    59    1
    71   154   155    1
    72    60    59    1
    73    60    61    2
    74   168   166   ar
    75   108   106    1
    76    89    88    1
    77   116   114   am
    78    87    88   ar
    79    87    85   ar
    80   167   166   ar
    81   166   165    1
    82   115   114    2
    83    88    86   ar
    84   114   113    1
    85   155   156    2
    86   105   106    1
    87   105   102    1
    88    56    55    1
    89   106   107    1
    90    47    48    1
    91    85    83   ar
    92    53    52    1
    93    53    54    1
    94   165   162    1
    95   113   110    1
    96    86    84   ar
    97   101   102    1
    98    51    52    1
    99    51    48    1
   100    55    54    2
   101    55    57    1
   102    48    49    1
   103   102   103    1
   104   161   162    1
   105   109   110    1
   106   109   103   am
   107    83    84   ar
   108    83    82    1
   109    49    50    2
   110    77    75    1
   111   162   163    1
   112   110   111    1
   113   103   104    2
   114    82    79    1
   115    75    76    1
   116    75    74    2
   117   163   169   am
   118   163   164    2
   119   176   174   am
   120   169   170    1
   121   111   112    2
   122   175   174    2
   123   174   173    1
   124    74    73    1
   125    79    78    1
   126    79    80    1
   127    78    69   am
   128   123   121    1
   129   173   170    1
   130   170   171    1
   131    80    81    2
   132    67    68    1
   133    71    72    1
   134    71    68    1
   135   121   122    1
   136   121   118    1
   137   183   182    1
   138    73    72    1
   139    69    68    1
   140    69    70    2
   141   171   172    2
   142   182   184    1
   143   182   181    1
   144   117   118    1
   145   118   119    1
   146   144   142   ar
   147   143   142   ar
   148   177   178    1
   149   181   178    1
   150   198   196   ar
   151   198   197   ar
   152   119   120    2
   153   142   141    1
   154   196   194   ar
   155   197   195   ar
   156   178   179    1
   157   194   193   ar
   158   194   192   ar
   159   195   192   ar
   160   141   140    1
   161   193   191   ar
   162   192   190   ar
   163   179   185   am
   164   179   180    2
   165   140   137    1
   166   185   186    1
   167   191   190   ar
   168   190   189    1
   169   189   186    1
   170   128   129    1
   171   128   125    1
   172   186   187    1
   173   136   137    1
   174   136   126   am
   175   124   125    1
   176   137   138    1
   177   129   130   ar
   178   129   131   ar
   179   130   132   ar
   180   125   126    1
   181   138   139    2
   182   131   133   ar
   183   187   188    2
   184   126   127    2
   185   132   134   ar
   186   133   134   ar
   187   134   135    1
