@<TRIPOS>MOLECULE
tmp/3lw5F00.pdb
 75 71 0 0 0
SMALL
GASTEIGER

@<TRIPOS>ATOM
      1  N         39.5300    9.8110   64.3050 N.3    97  ILE97      -0.1231
      2  CA        38.5840    9.3530   65.3120 C.3    97  ILE97       0.1692
      3  C         38.8610    7.8770   65.5350 C.2    97  ILE97       0.2592
      4  O         38.8760    7.3960   66.6640 O.2    97  ILE97      -0.2718
      5  CB        37.1210    9.5060   64.8180 C.3    97  ILE97       0.0266
      6  CG1       36.7720   10.9760   64.5150 C.3    97  ILE97       0.0019
      7  CG2       36.1360    8.8790   65.8050 C.3    97  ILE97       0.0020
      8  CD1       37.3280   11.9980   65.5050 C.3    97  ILE97       0.0001
      9  N         39.0900    7.1700   64.4270 N.am   98  GLY98      -0.1957
     10  CA        39.2090    5.7110   64.4250 C.3    98  GLY98       0.1869
     11  C         40.6350    5.2090   64.2890 C.2    98  GLY98       0.2309
     12  O         40.9090    4.0370   64.5440 O.2    98  GLY98      -0.2863
     13  N         42.5980    6.3000   66.2150 N.3   100  VAL100     -0.1231
     14  CA        42.7020    6.1580   67.6570 C.3   100  VAL100      0.1692
     15  C         41.6500    5.1660   68.1950 C.2   100  VAL100      0.2593
     16  O         41.8000    4.6340   69.3010 O.2   100  VAL100     -0.2718
     17  CB        42.7600    7.5470   68.3970 C.3   100  VAL100      0.0266
     18  CG1       43.2260    8.6600   67.4340 C.3   100  VAL100      0.0020
     19  CG2       41.4270    7.9170   69.0580 C.3   100  VAL100      0.0020
     20  N         40.6120    4.8960   67.3950 N.am  101  GLY101     -0.1942
     21  CA        39.7660    3.7170   67.6220 C.3   101  GLY101      0.2014
     22  C         40.5940    2.4270   67.5490 C.2   101  GLY101      0.2638
     23  O         40.6140    1.6320   68.4960 O.2   101  GLY101     -0.2714
     24  N         41.2900    2.2250   66.4260 N.am  102  ARG102     -0.1977
     25  CA        42.2900    1.1640   66.3000 C.3   102  ARG102      0.1597
     26  C         43.5420    1.5310   67.1250 C.2   102  ARG102      0.2287
     27  O         44.6680    1.3380   66.6660 O.2   102  ARG102     -0.2864
     28  CB        42.6580    0.9610   64.8040 C.3   102  ARG102      0.0334
     29  CG        43.5100   -0.2980   64.4790 C.3   102  ARG102      0.0492
     30  CD        44.7100   -0.0230   63.5320 C.3   102  ARG102      0.2205
     31  NE        45.5090    1.1200   64.0020 N.pl3 102  ARG102     -0.0865
     32  CZ        46.7760    1.0820   64.4440 C.cat 102  ARG102      0.5346
     33  NH1       47.4770   -0.0580   64.4870 N.pl3 102  ARG102      0.1354
     34  NH2       47.3500    2.2160   64.8470 N.pl3 102  ARG102      0.1354
     35  N         43.3600    3.1520   71.2490 N.3   104  TYR104     -0.1227
     36  CA        42.9130    2.8380   72.6100 C.3   104  TYR104      0.1736
     37  C         42.0570    1.6000   72.4480 C.2   104  TYR104      0.2595
     38  O         40.8860    1.5340   72.8700 O.2   104  TYR104     -0.2718
     39  CB        42.1820    3.9890   73.3210 C.3   104  TYR104      0.0548
     40  CG        41.7030    3.6720   74.7450 C.ar  104  TYR104     -0.0200
     41  CD1       41.2910    4.6940   75.6100 C.ar  104  TYR104     -0.0009
     42  CD2       41.6520    2.3580   75.2210 C.ar  104  TYR104     -0.0009
     43  CE1       40.8260    4.4140   76.9100 C.ar  104  TYR104      0.0417
     44  CE2       41.2020    2.0650   76.5020 C.ar  104  TYR104      0.0417
     45  CZ        40.7920    3.0950   77.3420 C.ar  104  TYR104      0.1957
     46  OH        40.3440    2.7850   78.6030 O.3   104  TYR104     -0.2866
     47  N         42.6870    0.6300   71.7840 N.am  105  LEU105     -0.1980
     48  CA        42.2000   -0.7210   71.6630 C.3   105  LEU105      0.1596
     49  C         43.3790   -1.6270   71.4110 C.2   105  LEU105      0.2287
     50  O         43.5430   -2.6110   72.1110 O.2   105  LEU105     -0.2864
     51  CB        41.1650   -0.8730   70.5380 C.3   105  LEU105      0.0297
     52  CG        39.6880   -0.6640   70.9120 C.3   105  LEU105      0.0022
     53  CD1       38.8440   -0.7820   69.6580 C.3   105  LEU105      0.0001
     54  CD2       39.2180   -1.6400   72.0160 C.3   105  LEU105      0.0001
     55  N         37.5630    4.1120   81.6270 N.3   121  ILE121     -0.1245
     56  CA        38.5700    4.4080   80.5970 C.3   121  ILE121      0.1561
     57  C         39.8470    5.1660   80.9950 C.2   121  ILE121      0.2260
     58  O         39.9280    6.3640   80.8060 O.2   121  ILE121     -0.2867
     59  CB        37.9660    4.9570   79.2910 C.3   121  ILE121      0.0252
     60  CG1       36.9820    6.0880   79.6110 C.3   121  ILE121      0.0019
     61  CG2       37.2930    3.8190   78.5110 C.3   121  ILE121      0.0019
     62  CD1       36.5260    6.8490   78.4170 C.3   121  ILE121      0.0001
     63  N         40.0020    9.1680   76.3620 N.3   125  LEU125     -0.1231
     64  CA        40.1990    9.6040   74.9860 C.3   125  LEU125      0.1693
     65  C         41.5080    8.9770   74.5900 C.2   125  LEU125      0.2591
     66  O         41.9770    9.1390   73.4610 O.2   125  LEU125     -0.2718
     67  CB        40.2950   11.1130   74.9310 C.3   125  LEU125      0.0284
     68  CG        39.0490   11.7110   75.5260 C.3   125  LEU125      0.0019
     69  CD1       39.1190   13.1900   75.4990 C.3   125  LEU125      0.0001
     70  CD2       37.9060   11.2060   74.7300 C.3   125  LEU125      0.0001
     71  N         41.9960    8.1290   75.4860 N.am  126  ALA126     -0.1980
     72  CA        43.2750    7.4860   75.3920 C.3   126  ALA126      0.1597
     73  C         44.3760    8.4090   75.7990 C.2   126  ALA126      0.2287
     74  O         45.5340    8.0000   75.8950 O.2   126  ALA126     -0.2864
     75  CB        43.4900    7.1080   73.9810 C.3   126  ALA126      0.0319
@<TRIPOS>BOND
     1    30    31    1
     2    30    29    1
     3    31    32    2
     4    11    10    1
     5    11    12    2
     6     1     2    1
     7    10     9    1
     8     9     3   am
     9    32    33    1
    10    32    34    1
    11    29    28    1
    12     6     5    1
    13     6     8    1
    14    28    25    1
    15     5     2    1
    16     5     7    1
    17     2     3    1
    18     3     4    2
    19    13    14    1
    20    25    24    1
    21    25    26    1
    22    24    22   am
    23    27    26    2
    24    20    21    1
    25    20    15   am
    26    18    17    1
    27    22    21    1
    28    22    23    2
    29    14    15    1
    30    14    17    1
    31    15    16    2
    32    17    19    1
    33    53    52    1
    34    51    52    1
    35    51    48    1
    36    52    54    1
    37    35    36    1
    38    49    48    1
    39    49    50    2
    40    48    47    1
    41    47    37   am
    42    37    36    1
    43    37    38    2
    44    36    39    1
    45    39    40    1
    46    66    65    2
    47    75    72    1
    48    65    64    1
    49    65    71   am
    50    70    68    1
    51    40    42   ar
    52    40    41   ar
    53    67    64    1
    54    67    68    1
    55    64    63    1
    56    42    44   ar
    57    72    71    1
    58    72    73    1
    59    69    68    1
    60    41    43   ar
    61    73    74    2
    62    44    45   ar
    63    43    45   ar
    64    45    46    1
    65    62    60    1
    66    61    59    1
    67    59    60    1
    68    59    56    1
    69    56    57    1
    70    56    55    1
    71    58    57    2
