@<TRIPOS>MOLECULE
tmp/3lw5F08.pdb
 87 84 0 0 0
SMALL
GASTEIGER

@<TRIPOS>ATOM
      1  N         32.7450   20.5260   48.7670 N.3    83  PHE83      -0.1227
      2  CA        32.8180   19.0940   48.9720 C.3    83  PHE83       0.1736
      3  C         34.2220   18.6240   49.3210 C.2    83  PHE83       0.2595
      4  O         34.4070   17.8600   50.2650 O.2    83  PHE83      -0.2718
      5  CB        32.3560   18.3600   47.7210 C.3    83  PHE83       0.0547
      6  CG        31.3850   17.2790   48.0120 C.ar   83  PHE83      -0.0202
      7  CD1       30.0440   17.5910   48.2320 C.ar   83  PHE83      -0.0042
      8  CD2       31.8100   15.9530   48.0980 C.ar   83  PHE83      -0.0042
      9  CE1       29.1440   16.6040   48.5150 C.ar   83  PHE83      -0.0003
     10  CE2       30.9170   14.9550   48.3800 C.ar   83  PHE83      -0.0003
     11  CZ        29.5870   15.2770   48.5970 C.ar   83  PHE83      -0.0000
     12  N         35.2050   19.0780   48.5460 N.am   84  ILE84      -0.1980
     13  CA        36.5800   18.6590   48.7310 C.3    84  ILE84       0.1595
     14  C         37.1100   19.4300   49.9250 C.2    84  ILE84       0.2287
     15  O         37.3780   18.8190   50.9770 O.2    84  ILE84      -0.2864
     16  CB        37.4090   18.8780   47.4540 C.3    84  ILE84       0.0276
     17  CG1       36.6300   18.3670   46.2260 C.3    84  ILE84       0.0022
     18  CG2       38.7730   18.1960   47.5630 C.3    84  ILE84       0.0022
     19  CD1       35.9110   17.0190   46.4370 C.3    84  ILE84       0.0001
     20  N         38.7090    9.0190   60.9810 N.3    95  GLY95      -0.1225
     21  CA        40.0030    8.3930   60.7130 C.3    95  GLY95       0.1811
     22  C         41.0450    8.8390   61.7310 C.2    95  GLY95       0.2280
     23  O         41.9250    8.0660   62.0920 O.2    95  GLY95      -0.2866
     24  N         39.0900    7.1700   64.4270 N.3    98  GLY98      -0.1210
     25  CA        39.2090    5.7110   64.4250 C.3    98  GLY98       0.1956
     26  C         40.6350    5.2090   64.2890 C.2    98  GLY98       0.2611
     27  O         40.9090    4.0370   64.5440 O.2    98  GLY98      -0.2717
     28  N         41.5540    6.0880   63.8750 N.am   99  TRP99      -0.1976
     29  CA        42.9690    5.7400   63.9220 C.3    99  TRP99       0.1640
     30  C         43.2840    5.5250   65.3780 C.2    99  TRP99       0.2290
     31  O         44.1080    4.6860   65.7300 O.2    99  TRP99      -0.2864
     32  CB        43.8520    6.8650   63.3810 C.3    99  TRP99       0.0576
     33  CG        45.2810    6.4860   63.3790 C.ar   99  TRP99       0.0006
     34  CD1       46.3020    7.1280   64.0100 C.ar   99  TRP99       0.0946
     35  CD2       45.8500    5.3450   62.7440 C.ar   99  TRP99       0.0152
     36  NE1       47.4790    6.4680   63.7930 N.ar   99  TRP99      -0.2442
     37  CE2       47.2310    5.3650   63.0150 C.ar   99  TRP99       0.0810
     38  CE3       45.3260    4.3090   61.9530 C.ar   99  TRP99       0.0012
     39  CZ2       48.1020    4.3930   62.5230 C.ar   99  TRP99       0.0191
     40  CZ3       46.1840    3.3410   61.4750 C.ar   99  TRP99       0.0001
     41  CH2       47.5590    3.3900   61.7560 C.ar   99  TRP99       0.0015
     42  N         41.2900    2.2250   66.4260 N.3   102  ARG102     -0.1245
     43  CA        42.2900    1.1640   66.3000 C.3   102  ARG102      0.1563
     44  C         43.5420    1.5310   67.1250 C.2   102  ARG102      0.2260
     45  O         44.6680    1.3380   66.6660 O.2   102  ARG102     -0.2867
     46  CB        42.6580    0.9610   64.8040 C.3   102  ARG102      0.0307
     47  CG        43.5100   -0.2980   64.4790 C.3   102  ARG102      0.0489
     48  CD        44.7100   -0.0230   63.5320 C.3   102  ARG102      0.2205
     49  NE        45.5090    1.1200   64.0020 N.pl3 102  ARG102     -0.0865
     50  CZ        46.7760    1.0820   64.4440 C.cat 102  ARG102      0.5346
     51  NH1       47.4770   -0.0580   64.4870 N.pl3 102  ARG102      0.1354
     52  NH2       47.3500    2.2160   64.8470 N.pl3 102  ARG102      0.1354
     53  N         49.4970   11.9950   62.2500 N.3   136  TRP136     -0.1241
     54  CA        49.6610   11.1380   61.1290 C.3   136  TRP136      0.1605
     55  C         50.0260   12.1930   60.1070 C.2   136  TRP136      0.2264
     56  O         49.2660   13.1360   59.8640 O.2   136  TRP136     -0.2867
     57  CB        48.3860   10.2770   60.8660 C.3   136  TRP136      0.0550
     58  CG        47.4500   10.5050   59.6640 C.ar  136  TRP136      0.0003
     59  CD1       47.7760   10.9280   58.4100 C.ar  136  TRP136      0.0946
     60  CD2       46.0420   10.2170   59.6190 C.ar  136  TRP136      0.0152
     61  NE1       46.6660   10.9700   57.6120 N.ar  136  TRP136     -0.2442
     62  CE2       45.5870   10.5340   58.3310 C.ar  136  TRP136      0.0810
     63  CE3       45.1190    9.7480   60.5540 C.ar  136  TRP136      0.0012
     64  CZ2       44.2550   10.3840   57.9560 C.ar  136  TRP136      0.0191
     65  CZ3       43.8040    9.5980   60.1700 C.ar  136  TRP136      0.0001
     66  CH2       43.3870    9.9130   58.8890 C.ar  136  TRP136      0.0015
     67  N         48.8060    5.5120   58.6340 N.3   140  ALA140     -0.1245
     68  CA        48.1710    4.2960   58.1680 C.3   140  ALA140      0.1562
     69  C         48.4170    4.2330   56.7010 C.2   140  ALA140      0.2260
     70  O         48.4980    3.1720   56.1450 O.2   140  ALA140     -0.2867
     71  CB        46.7070    4.3650   58.4030 C.3   140  ALA140      0.0290
     72  N         49.4050    1.0530   57.2860 N.3   144  LEU144     -0.1245
     73  CA        48.3470    0.0680   57.1540 C.3   144  LEU144      0.1561
     74  C         48.6510   -0.8360   55.9880 C.2   144  LEU144      0.2260
     75  O         48.5100   -2.0370   56.0960 O.2   144  LEU144     -0.2867
     76  CB        46.9770    0.7150   56.9430 C.3   144  LEU144      0.0270
     77  CG        45.8340   -0.2530   56.6350 C.3   144  LEU144      0.0019
     78  CD1       44.7290   -0.1160   57.5840 C.3   144  LEU144      0.0001
     79  CD2       45.3040   -0.0840   55.2490 C.3   144  LEU144      0.0001
     80  N         49.4770   -3.8090   61.0430 N.3   149  LEU149     -0.1245
     81  CA        48.4070   -4.4850   60.3750 C.3   149  LEU149      0.1561
     82  C         49.1730   -4.7300   59.1110 C.2   149  LEU149      0.2260
     83  O         49.5250   -3.7970   58.4230 O.2   149  LEU149     -0.2867
     84  CB        47.2870   -3.5050   60.0620 C.3   149  LEU149      0.0270
     85  CG        45.9000   -4.1350   60.0690 C.3   149  LEU149      0.0019
     86  CD1       44.8510   -3.0890   59.9540 C.3   149  LEU149      0.0001
     87  CD2       45.7160   -5.2260   59.0140 C.3   149  LEU149      0.0001
@<TRIPOS>BOND
     1    17    19    1
     2    17    16    1
     3    16    18    1
     4    16    13    1
     5     5     6    1
     6     5     2    1
     7     6     8   ar
     8     6     7   ar
     9     8    10   ar
    10     7     9   ar
    11    10    11   ar
    12     9    11   ar
    13    12    13    1
    14    12     3   am
    15    13    14    1
    16     1     2    1
    17     2     3    1
    18     3     4    2
    19    14    15    2
    20    79    77    1
    21    74    75    2
    22    74    73    1
    23    70    69    2
    24    77    76    1
    25    77    78    1
    26    69    68    1
    27    76    73    1
    28    73    72    1
    29    61    62   ar
    30    61    59   ar
    31    64    62   ar
    32    64    66   ar
    33    68    71    1
    34    68    67    1
    35    62    60   ar
    36    59    58   ar
    37    83    82    2
    38    66    65   ar
    39    87    85    1
    40    82    81    1
    41    60    58   ar
    42    60    63   ar
    43    58    57    1
    44    56    55    2
    45    86    85    1
    46    84    85    1
    47    84    81    1
    48    55    54    1
    49    65    63   ar
    50    81    80    1
    51    21    20    1
    52    21    22    1
    53    57    54    1
    54    54    53    1
    55    40    41   ar
    56    40    38   ar
    57    22    23    2
    58    41    39   ar
    59    38    35   ar
    60    39    37   ar
    61    35    37   ar
    62    35    33   ar
    63    37    36   ar
    64    33    32    1
    65    33    34   ar
    66    32    29    1
    67    48    49    1
    68    48    47    1
    69    36    34   ar
    70    28    29    1
    71    28    26   am
    72    29    30    1
    73    49    50    2
    74    26    25    1
    75    26    27    2
    76    25    24    1
    77    50    51    1
    78    50    52    1
    79    47    46    1
    80    46    43    1
    81    30    31    2
    82    43    42    1
    83    43    44    1
    84    45    44    2
