@<TRIPOS>MOLECULE
tmp/3lw5O07.pdb
 125 123 0 0 0
SMALL
GASTEIGER

@<TRIPOS>ATOM
      1  N         55.4530  -13.1410   16.8860 N.3    22  ARG22      -0.1231
      2  CA        55.7880  -13.4020   15.4680 C.3    22  ARG22       0.1694
      3  C         54.6340  -12.8540   14.6510 C.2    22  ARG22       0.2592
      4  O         54.8220  -12.3090   13.5710 O.2    22  ARG22      -0.2718
      5  CB        56.0190  -14.8920   15.1140 C.3    22  ARG22       0.0321
      6  CG        56.4760  -15.1420   13.6480 C.3    22  ARG22       0.0489
      7  CD        56.4120  -16.6260   13.2230 C.3    22  ARG22       0.2205
      8  NE        57.6880  -17.3340   13.5210 N.pl3  22  ARG22      -0.0865
      9  CZ        58.0390  -18.5410   13.0430 C.cat  22  ARG22       0.5346
     10  NH1       57.2160  -19.2030   12.2200 N.pl3  22  ARG22       0.1354
     11  NH2       59.2320  -19.0780   13.3890 N.pl3  22  ARG22       0.1354
     12  N         53.4300  -12.9980   15.1790 N.am   23  TYR23      -0.1976
     13  CA        52.2880  -12.4760   14.4760 C.3    23  TYR23       0.1639
     14  C         52.2270  -10.9300   14.5630 C.2    23  TYR23       0.2290
     15  O         51.4590  -10.2860   13.8020 O.2    23  TYR23      -0.2864
     16  CB        50.9910  -13.2440   14.7800 C.3    23  TYR23       0.0560
     17  CG        49.7350  -12.5660   14.2870 C.ar   23  TYR23      -0.0198
     18  CD1       49.6090  -12.1650   12.9650 C.ar   23  TYR23      -0.0009
     19  CD2       48.6770  -12.3330   15.1570 C.ar   23  TYR23      -0.0009
     20  CE1       48.4590  -11.5440   12.5130 C.ar   23  TYR23       0.0417
     21  CE2       47.5240  -11.7140   14.7130 C.ar   23  TYR23       0.0417
     22  CZ        47.4220  -11.3240   13.3950 C.ar   23  TYR23       0.1957
     23  OH        46.2720  -10.7060   12.9560 O.3    23  TYR23      -0.2866
     24  N         55.2120   -9.3730   14.3950 N.3    25  GLU25      -0.1231
     25  CA        56.3040   -9.2010   13.4450 C.3    25  GLU25       0.1699
     26  C         55.8110   -9.3140   12.0390 C.2    25  GLU25       0.2590
     27  O         56.2280   -8.5810   11.1720 O.2    25  GLU25      -0.2718
     28  CB        57.3450  -10.3000   13.5990 C.3    25  GLU25       0.0402
     29  CG        57.2740  -11.3510   12.4800 C.3    25  GLU25       0.1161
     30  CD        58.3490  -12.4310   12.5890 C.2    25  GLU25       0.3649
     31  OE1       57.9830  -13.6200   12.7620 O.co2  25  GLU25      -0.2457
     32  OE2       59.5620  -12.0920   12.4790 O.co2  25  GLU25      -0.2457
     33  N         54.9300  -10.2580   11.7930 N.am   26  SER26      -0.1993
     34  CA        54.4450  -10.3680   10.4480 C.3    26  SER26       0.1745
     35  C         53.9370   -8.9810   10.3630 C.3    26  SER26       0.2605
     36  O         53.8230   -8.4780    9.2580 O.3    26  SER26      -0.3916
     37  CB        53.2960  -11.3750   10.2940 C.3    26  SER26       0.2075
     38  OG        53.8200  -12.7100   10.3070 O.3    26  SER26      -0.2184
     39  N         56.0740   -4.8900    8.6220 N.3    29  ILE29      -0.1231
     40  CA        56.1450   -4.7490    7.1620 C.3    29  ILE29       0.1692
     41  C         54.8040   -4.5060    6.5360 C.2    29  ILE29       0.2592
     42  O         54.6490   -3.9430    5.4670 O.2    29  ILE29      -0.2718
     43  CB        56.6220   -6.0480    6.5420 C.3    29  ILE29       0.0266
     44  CG1       57.9880   -6.4410    7.1500 C.3    29  ILE29       0.0019
     45  CG2       56.7270   -5.9140    5.0060 C.3    29  ILE29       0.0020
     46  CD1       58.3880   -7.9060    6.9360 C.3    29  ILE29       0.0001
     47  N         53.8630   -5.1630    7.1410 N.am   30  HIS30      -0.1976
     48  CA        52.4600   -5.1240    6.8600 C.3    30  HIS30       0.1656
     49  C         51.8670   -3.7840    7.3660 C.2    30  HIS30       0.2291
     50  O         50.9030   -3.1750    6.7870 O.2    30  HIS30      -0.2864
     51  CB        51.9770   -6.3400    7.6540 C.3    30  HIS30       0.0772
     52  CG        53.1070   -7.3030    7.9500 C.ar   30  HIS30       0.0835
     53  ND1       53.4100   -8.3780    7.1200 N.ar   30  HIS30      -0.2255
     54  CD2       54.0500   -7.3100    8.9860 C.ar   30  HIS30       0.1331
     55  CE1       54.4460   -9.0360    7.6450 C.ar   30  HIS30       0.2156
     56  NE2       54.8590   -8.4060    8.7810 N.ar   30  HIS30      -0.1557
     57  N         52.9650   -1.7250    4.7030 N.3    33  TRP33      -0.1241
     58  CA        52.0570   -1.5640    3.5690 C.3    33  TRP33       0.1605
     59  C         51.3430   -0.2700    3.8490 C.2    33  TRP33       0.2264
     60  O         51.2880    0.6270    2.9830 O.2    33  TRP33      -0.2867
     61  CB        50.9540   -2.6420    3.6490 C.3    33  TRP33       0.0550
     62  CG        50.9950   -3.8300    2.6690 C.ar   33  TRP33       0.0003
     63  CD1       51.8220   -4.9260    2.7230 C.ar   33  TRP33       0.0946
     64  CD2       50.1250   -4.0300    1.5350 C.ar   33  TRP33       0.0152
     65  NE1       51.5260   -5.7760    1.6920 N.ar   33  TRP33      -0.2442
     66  CE2       50.4880   -5.2450    0.9460 C.ar   33  TRP33       0.0810
     67  CE3       49.0780   -3.2850    0.9500 C.ar   33  TRP33       0.0012
     68  CZ2       49.8440   -5.7290   -0.1890 C.ar   33  TRP33       0.0191
     69  CZ3       48.4500   -3.7630   -0.1710 C.ar   33  TRP33       0.0001
     70  CH2       48.8250   -4.9700   -0.7300 C.ar   33  TRP33       0.0015
     71  N         43.1060  -14.1890    2.4270 N.3    84  ILE84      -0.1245
     72  CA        43.9190  -14.1160    3.6360 C.3    84  ILE84       0.1561
     73  C         43.5030  -15.0730    4.7490 C.2    84  ILE84       0.2260
     74  O         44.3230  -15.5250    5.5400 O.2    84  ILE84      -0.2867
     75  CB        44.1970  -12.6990    4.1150 C.3    84  ILE84       0.0252
     76  CG1       43.1380  -11.7080    3.5640 C.3    84  ILE84       0.0019
     77  CG2       45.5270  -12.2710    3.5650 C.3    84  ILE84       0.0019
     78  CD1       41.9330  -11.4360    4.4660 C.3    84  ILE84       0.0001
     79  N         42.5290  -17.8320    4.3050 N.3    86  PHE86      -0.1227
     80  CA        43.1590  -19.0860    3.9430 C.3    86  PHE86       0.1736
     81  C         44.5870  -19.1330    4.4570 C.2    86  PHE86       0.2595
     82  O         45.0440  -20.1640    4.9300 O.2    86  PHE86      -0.2718
     83  CB        43.1630  -19.2210    2.4350 C.3    86  PHE86       0.0547
     84  CG        44.5070  -19.4750    1.8770 C.ar   86  PHE86      -0.0202
     85  CD1       45.2740  -20.5200    2.3730 C.ar   86  PHE86      -0.0042
     86  CD2       45.0190  -18.6700    0.8540 C.ar   86  PHE86      -0.0042
     87  CE1       46.5350  -20.7690    1.8630 C.ar   86  PHE86      -0.0003
     88  CE2       46.2880  -18.9130    0.3300 C.ar   86  PHE86      -0.0003
     89  CZ        47.0460  -19.9710    0.8360 C.ar   86  PHE86      -0.0000
     90  N         45.2970  -18.0230    4.3720 N.am   87  VAL87      -0.1980
     91  CA        46.6900  -17.9680    4.8820 C.3    87  VAL87       0.1595
     92  C         46.8660  -18.0570    6.4100 C.2    87  VAL87       0.2287
     93  O         47.8820  -18.5610    6.8970 O.2    87  VAL87      -0.2864
     94  CB        47.4630  -16.7830    4.4270 C.3    87  VAL87       0.0276
     95  CG1       46.6620  -15.5630    4.6430 C.3    87  VAL87       0.0022
     96  CG2       48.7610  -16.6960    5.2370 C.3    87  VAL87       0.0022
     97  N         47.1130  -21.3680    6.9450 N.3    90  GLN90      -0.1231
     98  CA        48.4510  -21.9950    6.7660 C.3    90  GLN90       0.1698
     99  C         49.3240  -21.7520    7.9920 C.2    90  GLN90       0.2592
    100  O         50.1460  -22.5980    8.3940 O.2    90  GLN90      -0.2718
    101  CB        49.1550  -21.6600    5.4330 C.3    90  GLN90       0.0381
    102  CG        49.1970  -22.8600    4.4330 C.3    90  GLN90       0.0905
    103  CD        47.8880  -23.6470    4.4080 C.2    90  GLN90       0.2608
    104  OE1       47.7960  -24.7590    3.8270 O.2    90  GLN90      -0.2717
    105  NE2       46.8620  -23.0670    5.0480 N.am   90  GLN90      -0.0878
    106  N         49.1470  -20.6160    8.6260 N.am   91  ARG91      -0.1980
    107  CA        49.8570  -20.4330    9.8610 C.3    91  ARG91       0.1597
    108  C         49.3980  -21.4930   10.8120 C.2    91  ARG91       0.2287
    109  O         50.2220  -22.2050   11.3290 O.2    91  ARG91      -0.2864
    110  CB        49.3680  -19.1300   10.4650 C.3    91  ARG91       0.0334
    111  CG        49.8970  -18.8240   11.8350 C.3    91  ARG91       0.0492
    112  CD        49.3670  -17.4830   12.3560 C.3    91  ARG91       0.2205
    113  NE        49.8290  -16.3250   11.5800 N.pl3  91  ARG91      -0.0865
    114  CZ        49.0300  -15.4300   10.9960 C.cat  91  ARG91       0.5346
    115  NH1       47.7180  -15.5370   11.0910 N.pl3  91  ARG91       0.1354
    116  NH2       49.5440  -14.4280   10.3080 N.pl3  91  ARG91       0.1354
    117  N         58.6900  -23.8720   18.2020 N.3   117  LYS117     -0.1245
    118  CA        58.4160  -24.3690   16.8620 C.3   117  LYS117      0.1561
    119  C         59.1980  -23.4700   15.9190 C.2   117  LYS117      0.2260
    120  O         60.0230  -23.9250   15.1510 O.2   117  LYS117     -0.2867
    121  CB        56.9440  -24.2970   16.5570 C.3   117  LYS117      0.0271
    122  CG        56.6510  -23.2610   15.5480 C.3   117  LYS117      0.0035
    123  CD        57.1230  -23.6880   14.1950 C.3   117  LYS117      0.0206
    124  CE        56.6760  -22.6580   13.1730 C.3   117  LYS117      0.1093
    125  NZ        56.5320  -23.3100   11.8620 N.3   117  LYS117     -0.1314
@<TRIPOS>BOND
     1    70    68   ar
     2    70    69   ar
     3    68    66   ar
     4    69    67   ar
     5    88    89   ar
     6    88    86   ar
     7    89    87   ar
     8    86    84   ar
     9    66    64   ar
    10    66    65   ar
    11    67    64   ar
    12    64    62   ar
    13    65    63   ar
    14    87    85   ar
    15    84    85   ar
    16    84    83    1
    17    71    72    1
    18    83    80    1
    19    62    63   ar
    20    62    61    1
    21    60    59    2
    22    76    75    1
    23    76    78    1
    24    77    75    1
    25    58    61    1
    26    58    59    1
    27    58    57    1
    28    72    75    1
    29    72    73    1
    30   104   103    2
    31    80    79    1
    32    80    81    1
    33    90    81   am
    34    90    91    1
    35   103   102    1
    36   103   105   am
    37    94    95    1
    38    94    91    1
    39    94    96    1
    40   102   101    1
    41    81    82    2
    42    73    74    2
    43    91    92    1
    44    45    43    1
    45   101    98    1
    46    42    41    2
    47    92    93    2
    48    41    47   am
    49    41    40    1
    50    43    44    1
    51    43    40    1
    52    98    97    1
    53    98    99    1
    54    50    49    2
    55    48    47    1
    56    48    49    1
    57    48    51    1
    58    46    44    1
    59    53    55   ar
    60    53    52   ar
    61    40    39    1
    62    55    56   ar
    63    51    52    1
    64    52    54   ar
    65    99   100    2
    66    99   106   am
    67   106   107    1
    68    56    54   ar
    69    56    36    1
    70    36    35    1
    71   107   110    1
    72   107   108    1
    73    37    38    1
    74    37    34    1
    75   116   114    1
    76    35    34    1
    77    34    33    1
    78   110   111    1
    79   108   109    2
    80   114   115    1
    81   114   113    2
    82    27    26    2
    83   113   112    1
    84    33    26   am
    85   111   112    1
    86   125   124    1
    87    26    25    1
    88    10     9    1
    89    32    30   ar
    90    29    30    1
    91    29    28    1
    92    20    18   ar
    93    20    22   ar
    94    30    31   ar
    95    23    22    1
    96    18    17   ar
    97     9    11    1
    98     9     8    2
    99   124   123    1
   100     7     8    1
   101     7     6    1
   102    22    21   ar
   103    25    28    1
   104    25    24    1
   105     4     3    2
   106     6     5    1
   107    15    14    2
   108   123   122    1
   109    17    16    1
   110    17    19   ar
   111    13    14    1
   112    13    16    1
   113    13    12    1
   114     3    12   am
   115     3     2    1
   116    21    19   ar
   117     5     2    1
   118   120   119    2
   119     2     1    1
   120   122   121    1
   121   119   118    1
   122   121   118    1
   123   118   117    1
