@<TRIPOS>MOLECULE
tmp/3lw5Q08.pdb
 75 72 0 0 0
SMALL
GASTEIGER

@<TRIPOS>ATOM
      1  N         33.7960   13.3690  109.9460 N.3     3  PRO3       -0.2102
      2  CA        33.2170   13.8810  111.2140 C.3     3  PRO3        0.1504
      3  C         32.3130   13.0510  112.2020 C.2     3  PRO3        0.2576
      4  O         31.6170   12.0910  111.8380 O.2     3  PRO3       -0.2718
      5  CB        32.4560   15.1420  110.7340 C.3     3  PRO3        0.0282
      6  CG        33.3720   15.6780  109.6340 C.3     3  PRO3        0.0208
      7  CD        33.9850   14.4720  108.9580 C.3     3  PRO3        0.0893
      8  N         32.3590   13.4570  113.4720 N.am    4  GLU4       -0.1966
      9  CA        31.6700   12.7540  114.5570 C.3     4  GLU4        0.1733
     10  C         30.7060   13.6310  115.3670 C.2     4  GLU4        0.2616
     11  O         31.0200   14.7540  115.7580 O.2     4  GLU4       -0.2715
     12  CB        32.7260   12.2060  115.5080 C.3     4  GLU4        0.0429
     13  CG        34.0530   12.9670  115.4210 C.3     4  GLU4        0.1163
     14  CD        34.6790   13.1610  116.7700 C.2     4  GLU4        0.3649
     15  OE1       35.8920   12.9270  116.9130 O.co2   4  GLU4       -0.2457
     16  OE2       33.9460   13.5480  117.6840 O.co2   4  GLU4       -0.2457
     17  N         29.5150   13.1140  115.6180 N.am    5  GLY5       -0.1955
     18  CA        28.6090   13.7900  116.5350 C.3     5  GLY5        0.1869
     19  C         27.8280   12.8510  117.4310 C.2     5  GLY5        0.2309
     20  O         26.6020   12.7340  117.2820 O.2     5  GLY5       -0.2863
     21  N         21.3890   18.7810  125.3080 N.3    15  LEU15      -0.1245
     22  CA        21.5190   20.1730  124.8840 C.3    15  LEU15       0.1561
     23  C         20.2990   20.7320  125.5530 C.2    15  LEU15       0.2260
     24  O         20.3720   21.6730  126.3240 O.2    15  LEU15      -0.2867
     25  CB        21.4790   20.3950  123.3450 C.3    15  LEU15       0.0270
     26  CG        21.6230   21.8420  122.7630 C.3    15  LEU15       0.0019
     27  CD1       23.0490   22.4600  122.8250 C.3    15  LEU15       0.0001
     28  CD2       21.0190   22.0650  121.3950 C.3    15  LEU15       0.0001
     29  N         19.9440   24.3150  125.4650 N.3    19  GLU19      -0.1245
     30  CA        19.4760   25.3940  124.5650 C.3    19  GLU19       0.1567
     31  C         18.6380   26.2020  125.5390 C.2    19  GLU19       0.2260
     32  O         18.5810   27.4260  125.4640 O.2    19  GLU19      -0.2867
     33  CB        18.7570   24.9720  123.2370 C.3    19  GLU19       0.0388
     34  CG        19.6370   25.2420  121.9070 C.3    19  GLU19       0.1160
     35  CD        18.8900   25.5220  120.5600 C.2    19  GLU19       0.3649
     36  OE1       18.1340   26.5060  120.4320 O.co2  19  GLU19      -0.2457
     37  OE2       19.1170   24.7730  119.5950 O.co2  19  GLU19      -0.2457
     38  N         26.7960   37.3960  114.8830 N.3    68  MET68      -0.1230
     39  CA        26.4580   36.0310  115.3330 C.3    68  MET68       0.1702
     40  C         27.5450   35.1030  114.8280 C.2    68  MET68       0.2592
     41  O         28.1300   34.3290  115.6020 O.2    68  MET68      -0.2718
     42  CB        25.0990   35.5300  114.8660 C.3    68  MET68       0.0401
     43  CG        24.7730   34.1780  115.4330 C.3    68  MET68       0.0596
     44  SD        23.2950   33.6390  114.6270 S.3    68  MET68      -0.1393
     45  CE        22.3480   35.1420  114.7220 C.3    68  MET68       0.0692
     46  N         27.8870   35.2060  113.5480 N.am   69  ALA69      -0.1980
     47  CA        28.8950   34.2330  113.1780 C.3    69  ALA69       0.1597
     48  C         30.0790   34.3680  114.1030 C.2    69  ALA69       0.2287
     49  O         30.5190   33.3820  114.6520 O.2    69  ALA69      -0.2864
     50  CB        29.3300   34.4070  111.7650 C.3    69  ALA69       0.0319
     51  N         30.3970   32.8100  117.4270 N.3    72  GLY72      -0.1210
     52  CA        29.9910   31.4230  117.2470 C.3    72  GLY72       0.1956
     53  C         31.3000   30.7610  117.5650 C.2    72  GLY72       0.2611
     54  O         31.3270   29.6810  118.1660 O.2    72  GLY72      -0.2717
     55  N         32.3790   31.4030  117.1080 N.am   73  PHE73      -0.1976
     56  CA        33.7310   30.8700  117.2220 C.3    73  PHE73       0.1639
     57  C         34.0320   30.5490  118.6830 C.2    73  PHE73       0.2290
     58  O         34.4430   29.4350  119.0430 O.2    73  PHE73      -0.2864
     59  CB        34.7140   31.9390  116.7270 C.3    73  PHE73       0.0560
     60  CG        35.5680   31.5170  115.5490 C.ar   73  PHE73      -0.0200
     61  CD1       35.0200   30.8470  114.4670 C.ar   73  PHE73      -0.0042
     62  CD2       36.9180   31.8220  115.5180 C.ar   73  PHE73      -0.0042
     63  CE1       35.8010   30.4700  113.3980 C.ar   73  PHE73      -0.0003
     64  CE2       37.6910   31.4580  114.4510 C.ar   73  PHE73      -0.0003
     65  CZ        37.1300   30.7750  113.3890 C.ar   73  PHE73      -0.0000
     66  N         32.2090   27.2210  119.9460 N.3    76  HIS76      -0.1241
     67  CA        32.7990   25.9260  119.5440 C.3    76  HIS76       0.1621
     68  C         34.2920   25.6320  119.9390 C.2    76  HIS76       0.2264
     69  O         34.7420   24.4520  120.0440 O.2    76  HIS76      -0.2867
     70  CB        32.3160   25.4440  118.1710 C.3    76  HIS76       0.0745
     71  CG        30.8080   25.3620  118.0650 C.ar   76  HIS76       0.0817
     72  ND1       30.1410   25.1970  116.8680 N.ar   76  HIS76      -0.2268
     73  CD2       29.8420   25.4410  119.0130 C.ar   76  HIS76       0.1154
     74  CE1       28.8350   25.1660  117.0840 C.ar   76  HIS76       0.1986
     75  NE2       28.6270   25.3090  118.3770 N.ar   76  HIS76      -0.2212
@<TRIPOS>BOND
     1     7     6    1
     2     7     1    1
     3     6     5    1
     4     1     2    1
     5     5     2    1
     6     2     3    1
     7    50    47    1
     8     4     3    2
     9     3     8   am
    10    47    46    1
    11    47    48    1
    12    65    63   ar
    13    65    64   ar
    14    63    61   ar
    15     8     9    1
    16    46    40   am
    17    48    49    2
    18    64    62   ar
    19    61    60   ar
    20     9    10    1
    21     9    12    1
    22    44    45    1
    23    44    43    1
    24    40    39    1
    25    40    41    2
    26    42    39    1
    27    42    43    1
    28    38    39    1
    29    10    17   am
    30    10    11    2
    31    13    12    1
    32    13    14    1
    33    62    60   ar
    34    60    59    1
    35    17    18    1
    36    18    19    1
    37    59    56    1
    38    14    15   ar
    39    14    16   ar
    40    72    74   ar
    41    72    71   ar
    42    74    75   ar
    43    55    56    1
    44    55    53   am
    45    56    57    1
    46    52    51    1
    47    52    53    1
    48    20    19    2
    49    53    54    2
    50    71    70    1
    51    71    73   ar
    52    70    67    1
    53    75    73   ar
    54    57    58    2
    55    67    68    1
    56    67    66    1
    57    37    35   ar
    58    68    69    2
    59    36    35   ar
    60    35    34    1
    61    28    26    1
    62    34    33    1
    63    26    27    1
    64    26    25    1
    65    33    30    1
    66    25    22    1
    67    30    29    1
    68    30    31    1
    69    22    21    1
    70    22    23    1
    71    32    31    2
    72    23    24    2
