@<TRIPOS>MOLECULE
tmp/3lw5B00.pdb
 228 225 0 0 0
SMALL
GASTEIGER

@<TRIPOS>ATOM
      1  N          4.7010  -29.8810   36.0420 N.3    46  PHE46      -0.1241
      2  CA         4.5190  -29.6780   34.6000 C.3    46  PHE46       0.1605
      3  C          3.0390  -29.6250   34.2090 C.2    46  PHE46       0.2264
      4  O          2.5730  -28.6480   33.6400 O.2    46  PHE46      -0.2867
      5  CB         5.3130  -30.7100   33.7740 C.3    46  PHE46       0.0534
      6  CG         5.2440  -30.4830   32.2850 C.ar   46  PHE46      -0.0203
      7  CD1        4.6950  -31.4400   31.4520 C.ar   46  PHE46      -0.0042
      8  CD2        5.7040  -29.2970   31.7250 C.ar   46  PHE46      -0.0042
      9  CE1        4.6050  -31.2260   30.0900 C.ar   46  PHE46      -0.0003
     10  CE2        5.6120  -29.0750   30.3630 C.ar   46  PHE46      -0.0003
     11  CZ         5.0680  -30.0450   29.5440 C.ar   46  PHE46      -0.0000
     12  N          1.4690  -26.2330   36.0410 N.3    49  HIS49      -0.1226
     13  CA         1.4350  -25.0180   35.2300 C.3    49  HIS49       0.1752
     14  C          1.1440  -25.2210   33.7170 C.2    49  HIS49       0.2596
     15  O          1.5770  -24.4300   32.8600 O.2    49  HIS49      -0.2718
     16  CB         2.6950  -24.1900   35.4570 C.3    49  HIS49       0.0759
     17  CG         3.9190  -24.7490   34.7960 C.ar   49  HIS49       0.0818
     18  ND1        4.0340  -26.0760   34.4370 N.ar   49  HIS49      -0.2268
     19  CD2        5.1000  -24.1620   34.4660 C.ar   49  HIS49       0.1154
     20  CE1        5.2280  -26.2770   33.8950 C.ar   49  HIS49       0.1986
     21  NE2        5.8960  -25.1320   33.9040 N.ar   49  HIS49      -0.2212
     22  N          0.4150  -26.2990   33.4280 N.am   50  PHE50      -0.1976
     23  CA        -0.3410  -26.4570   32.2000 C.3    50  PHE50       0.1639
     24  C         -1.7650  -26.1500   32.6760 C.2    50  PHE50       0.2290
     25  O         -2.6300  -25.7060   31.9180 O.2    50  PHE50      -0.2864
     26  CB        -0.2380  -27.9020   31.7100 C.3    50  PHE50       0.0560
     27  CG         0.3840  -28.0720   30.3260 C.ar   50  PHE50      -0.0200
     28  CD1        1.4870  -28.9200   30.1470 C.ar   50  PHE50      -0.0042
     29  CD2       -0.1550  -27.4420   29.2080 C.ar   50  PHE50      -0.0042
     30  CE1        2.0420  -29.1140   28.9010 C.ar   50  PHE50      -0.0003
     31  CE2        0.4060  -27.6350   27.9480 C.ar   50  PHE50      -0.0003
     32  CZ         1.5050  -28.4700   27.8000 C.ar   50  PHE50      -0.0000
     33  N         -1.0370  -21.2310   32.0320 N.3    53  LEU53      -0.1245
     34  CA        -1.4840  -20.7650   30.7190 C.3    53  LEU53       0.1561
     35  C         -3.0050  -20.8110   30.6880 C.2    53  LEU53       0.2260
     36  O         -3.6390  -19.8920   30.1810 O.2    53  LEU53      -0.2867
     37  CB        -0.9220  -21.6260   29.5860 C.3    53  LEU53       0.0270
     38  CG         0.5370  -21.4690   29.1830 C.3    53  LEU53       0.0019
     39  CD1        1.4290  -21.8480   30.3360 C.3    53  LEU53       0.0001
     40  CD2        0.7770  -22.3740   27.9820 C.3    53  LEU53       0.0001
     41  N         -4.8490  -18.2020   32.6680 N.3    56  ILE56      -0.1245
     42  CA        -4.5000  -16.8770   32.1090 C.3    56  ILE56       0.1561
     43  C         -5.3940  -16.5070   30.9170 C.2    56  ILE56       0.2260
     44  O         -5.4850  -15.3260   30.5510 O.2    56  ILE56      -0.2867
     45  CB        -2.9770  -16.7580   31.7430 C.3    56  ILE56       0.0252
     46  CG1       -2.1420  -16.6010   33.0280 C.3    56  ILE56       0.0019
     47  CG2       -2.7000  -15.5070   30.9100 C.3    56  ILE56       0.0019
     48  CD1       -0.6690  -16.5890   32.7990 C.3    56  ILE56       0.0001
     49  N         -5.0000   -0.7730   23.9250 N.3   122  TRP122     -0.1241
     50  CA        -4.5090   -1.8520   23.0540 C.3   122  TRP122      0.1605
     51  C         -5.4370   -2.7190   22.2380 C.2   122  TRP122      0.2264
     52  O         -5.0580   -3.1780   21.1900 O.2   122  TRP122     -0.2867
     53  CB        -3.4200   -2.6660   23.7170 C.3   122  TRP122      0.0550
     54  CG        -3.8930   -3.7040   24.5920 C.ar  122  TRP122      0.0003
     55  CD1       -4.9260   -3.6330   25.4630 C.ar  122  TRP122      0.0946
     56  CD2       -3.3400   -4.9990   24.7140 C.ar  122  TRP122      0.0152
     57  NE1       -5.0570   -4.8160   26.1260 N.ar  122  TRP122     -0.2442
     58  CE2       -4.0860   -5.6750   25.6680 C.ar  122  TRP122      0.0810
     59  CE3       -2.2930   -5.6600   24.0900 C.ar  122  TRP122      0.0012
     60  CZ2       -3.8140   -6.9740   26.0070 C.ar  122  TRP122      0.0191
     61  CZ3       -2.0320   -6.9290   24.4280 C.ar  122  TRP122      0.0001
     62  CH2       -2.7750   -7.5800   25.3710 C.ar  122  TRP122      0.0015
     63  N         13.6670  -36.2630   30.6300 N.3   166  TRP166     -0.1227
     64  CA        13.6520  -35.4240   29.4390 C.3   166  TRP166      0.1737
     65  C         13.8240  -33.9990   29.8810 C.2   166  TRP166      0.2595
     66  O         14.1870  -33.1450   29.1130 O.2   166  TRP166     -0.2718
     67  CB        12.2860  -35.6440   28.8490 C.3   166  TRP166      0.0564
     68  CG        11.8900  -34.7700   27.8360 C.ar  166  TRP166      0.0003
     69  CD1       12.2670  -34.7880   26.5370 C.ar  166  TRP166      0.0946
     70  CD2       10.9150  -33.7590   27.9660 C.ar  166  TRP166      0.0152
     71  NE1       11.6080  -33.8120   25.8430 N.ar  166  TRP166     -0.2442
     72  CE2       10.7640  -33.1670   26.7100 C.ar  166  TRP166      0.0810
     73  CE3       10.1580  -33.2790   29.0330 C.ar  166  TRP166      0.0012
     74  CZ2        9.8970  -32.1170   26.4960 C.ar  166  TRP166      0.0191
     75  CZ3        9.2990  -32.2460   28.8120 C.ar  166  TRP166      0.0001
     76  CH2        9.1730  -31.6730   27.5640 C.ar  166  TRP166      0.0015
     77  N         13.3980  -33.7680   31.1160 N.am  167  PHE167     -0.1976
     78  CA        13.2660  -32.5080   31.8070 C.3   167  PHE167      0.1639
     79  C         14.6010  -31.8870   32.1590 C.2   167  PHE167      0.2290
     80  O         14.6490  -30.7380   32.5670 O.2   167  PHE167     -0.2864
     81  CB        12.4380  -32.7040   33.0510 C.3   167  PHE167      0.0560
     82  CG        10.9560  -32.6170   32.8150 C.ar  167  PHE167     -0.0200
     83  CD1       10.3380  -31.3960   32.6390 C.ar  167  PHE167     -0.0042
     84  CD2       10.1900  -33.7510   32.8020 C.ar  167  PHE167     -0.0042
     85  CE1        9.0260  -31.3200   32.4500 C.ar  167  PHE167     -0.0003
     86  CE2        8.8720  -33.6700   32.6090 C.ar  167  PHE167     -0.0003
     87  CZ         8.2910  -32.4560   32.4290 C.ar  167  PHE167     -0.0000
     88  N         17.6210  -32.0500   29.9620 N.3   169  ASN169     -0.1240
     89  CA        18.4480  -31.5010   28.8780 C.3   169  ASN169      0.1653
     90  C         18.9190  -30.0390   29.0760 C.2   169  ASN169      0.2266
     91  O         19.9600  -29.7920   29.6840 O.2   169  ASN169     -0.2867
     92  CB        17.7200  -31.6100   27.5180 C.3   169  ASN169      0.1155
     93  CG        18.3060  -32.7010   26.5760 C.2   169  ASN169      0.2627
     94  OD1       19.1240  -33.5210   26.9720 O.2   169  ASN169     -0.2716
     95  ND2       17.8590  -32.7000   25.3280 N.am  169  ASN169     -0.0877
     96  N         18.9800  -28.7910   23.6590 N.3   172  SER172     -0.1202
     97  CA        17.7260  -29.0770   22.9060 C.3   172  SER172      0.2020
     98  C         16.6180  -28.0320   23.1410 C.2   172  SER172      0.2618
     99  O         16.2550  -27.3060   22.2080 O.2   172  SER172     -0.2717
    100  CB        17.1960  -30.4880   23.2170 C.3   172  SER172      0.2103
    101  OG        16.1160  -30.8420   22.3600 O.3   172  SER172     -0.2182
    102  N         16.0930  -27.9660   24.3780 N.am  173  ARG173     -0.1979
    103  CA        15.2280  -26.8560   24.8380 C.3   173  ARG173      0.1597
    104  C         16.0670  -25.6480   25.1810 C.2   173  ARG173      0.2287
    105  O         17.1320  -25.7890   25.7850 O.2   173  ARG173     -0.2864
    106  CB        14.4430  -27.2300   26.0900 C.3   173  ARG173      0.0334
    107  CG        13.8880  -26.0130   26.8160 C.3   173  ARG173      0.0492
    108  CD        12.6370  -26.3290   27.6490 C.3   173  ARG173      0.2205
    109  NE        12.8000  -27.5340   28.4610 N.pl3 173  ARG173     -0.0865
    110  CZ        13.5360  -27.5700   29.5980 C.cat 173  ARG173      0.5346
    111  NH1       14.1620  -26.4640   30.0470 N.pl3 173  ARG173      0.1354
    112  NH2       13.6500  -28.7020   30.2800 N.pl3 173  ARG173      0.1354
    113  N         15.7900  -24.7880   21.4590 N.3   176  HIS176     -0.1226
    114  CA        14.5080  -24.7420   20.7680 C.3   176  HIS176      0.1752
    115  C         13.7900  -23.4100   21.0000 C.2   176  HIS176      0.2596
    116  O         13.5620  -22.6340   20.0640 O.2   176  HIS176     -0.2718
    117  CB        13.6040  -25.9010   21.2070 C.3   176  HIS176      0.0759
    118  CG        13.0180  -26.6480   20.0550 C.ar  176  HIS176      0.0818
    119  ND1       12.2100  -26.0290   19.1130 N.ar  176  HIS176     -0.2268
    120  CD2       13.1620  -27.9410   19.6520 C.ar  176  HIS176      0.1154
    121  CE1       11.8650  -26.9130   18.1900 C.ar  176  HIS176      0.1986
    122  NE2       12.4210  -28.0830   18.4980 N.ar  176  HIS176     -0.2212
    123  N         13.4340  -23.1760   22.2630 N.am  177  HIS177     -0.1975
    124  CA        12.8530  -21.9260   22.7570 C.3   177  HIS177      0.1656
    125  C         13.3080  -20.6410   22.0690 C.2   177  HIS177      0.2291
    126  O         12.5930  -20.1110   21.2150 O.2   177  HIS177     -0.2864
    127  CB        13.1250  -21.8380   24.2590 C.3   177  HIS177      0.0771
    128  CG        12.1520  -22.6200   25.0780 C.ar  177  HIS177      0.0820
    129  ND1       11.5650  -23.7840   24.6110 N.ar  177  HIS177     -0.2267
    130  CD2       11.6360  -22.4010   26.3160 C.ar  177  HIS177      0.1154
    131  CE1       10.7310  -24.2510   25.5270 C.ar  177  HIS177      0.1986
    132  NE2       10.7520  -23.4290   26.5690 N.ar  177  HIS177     -0.2212
    133  N         12.4120  -21.2710   18.1370 N.3   180  GLY180     -0.1210
    134  CA        11.0400  -21.7470   18.0130 C.3   180  GLY180      0.1956
    135  C         10.0530  -20.8080   18.6780 C.2   180  GLY180      0.2612
    136  O          9.2010  -20.2300   17.9970 O.2   180  GLY180     -0.2717
    137  N         10.1920  -20.6450   20.0070 N.am  181  LEU181     -0.1965
    138  CA         9.3290  -19.7610   20.8320 C.3   181  LEU181      0.1728
    139  C          9.5230  -18.2810   20.4810 C.2   181  LEU181      0.2616
    140  O          9.0550  -17.8330   19.4260 O.2   181  LEU181     -0.2715
    141  CB         9.5650  -20.0250   22.3350 C.3   181  LEU181      0.0311
    142  CG         8.8450  -19.2040   23.4210 C.3   181  LEU181      0.0022
    143  CD1        7.3360  -19.2260   23.2840 C.3   181  LEU181      0.0001
    144  CD2        9.2290  -19.6750   24.8210 C.3   181  LEU181      0.0001
    145  N         10.2170  -17.5400   21.3560 N.am  182  PHE182     -0.1974
    146  CA        10.5280  -16.1150   21.1670 C.3   182  PHE182      0.1639
    147  C         10.6080  -15.6410   19.7040 C.2   182  PHE182      0.2290
    148  O          9.8430  -14.7650   19.2910 O.2   182  PHE182     -0.2864
    149  CB        11.8790  -15.7940   21.8000 C.3   182  PHE182      0.0560
    150  CG        11.8640  -15.6730   23.2960 C.ar  182  PHE182     -0.0200
    151  CD1       11.2030  -14.6130   23.9190 C.ar  182  PHE182     -0.0042
    152  CD2       12.5860  -16.5780   24.0810 C.ar  182  PHE182     -0.0042
    153  CE1       11.2120  -14.4820   25.3060 C.ar  182  PHE182     -0.0003
    154  CE2       12.6090  -16.4550   25.4700 C.ar  182  PHE182     -0.0003
    155  CZ        11.9140  -15.4030   26.0870 C.ar  182  PHE182     -0.0000
    156  N          7.7970  -16.3060   17.6860 N.3   185  SER185     -0.1217
    157  CA         6.7010  -15.7390   18.4820 C.3   185  SER185      0.1889
    158  C          6.6450  -14.2470   18.2410 C.2   185  SER185      0.2288
    159  O          5.5620  -13.6670   18.0570 O.2   185  SER185     -0.2866
    160  CB         6.8980  -16.0210   19.9650 C.3   185  SER185      0.2089
    161  OG         5.6920  -15.8000   20.6870 O.3   185  SER185     -0.2183
    162  N          4.2590  -12.2200   15.2240 N.3   189  TRP189     -0.1241
    163  CA         3.7310  -10.9180   15.6470 C.3   189  TRP189      0.1605
    164  C          4.0780   -9.8740   14.5950 C.2   189  TRP189      0.2264
    165  O          3.1790   -9.2210   14.0670 O.2   189  TRP189     -0.2867
    166  CB         4.2430  -10.5110   17.0400 C.3   189  TRP189      0.0550
    167  CG         3.5610   -9.3040   17.5960 C.ar  189  TRP189      0.0003
    168  CD1        4.1610   -8.1520   18.0020 C.ar  189  TRP189      0.0946
    169  CD2        2.1390   -9.1200   17.8150 C.ar  189  TRP189      0.0152
    170  NE1        3.2120   -7.2610   18.4680 N.ar  189  TRP189     -0.2442
    171  CE2        1.9630   -7.8250   18.3530 C.ar  189  TRP189      0.0810
    172  CE3        1.0020   -9.9220   17.6140 C.ar  189  TRP189      0.0012
    173  CZ2        0.6940   -7.3120   18.6870 C.ar  189  TRP189      0.0191
    174  CZ3       -0.2520   -9.4100   17.9510 C.ar  189  TRP189      0.0001
    175  CH2       -0.3940   -8.1210   18.4840 C.ar  189  TRP189      0.0015
    176  N         10.2060   -5.8010   15.9240 N.3   276  HIS276     -0.1241
    177  CA         9.7020   -7.1380   16.1910 C.3   276  HIS276      0.1621
    178  C         10.2090   -8.1120   15.1590 C.2   276  HIS276      0.2264
    179  O         10.6100   -9.2370   15.5010 O.2   276  HIS276     -0.2867
    180  CB         8.1810   -7.1500   16.2430 C.3   276  HIS276      0.0745
    181  CG         7.6450   -7.0340   17.6410 C.ar  276  HIS276      0.0817
    182  ND1        7.7830   -8.0500   18.5670 N.ar  276  HIS276     -0.2268
    183  CD2        7.0040   -6.0200   18.2810 C.ar  276  HIS276      0.1154
    184  CE1        7.2430   -7.6700   19.7150 C.ar  276  HIS276      0.1986
    185  NE2        6.7590   -6.4460   19.5650 N.ar  276  HIS276     -0.2212
    186  N         13.0860  -11.8170   34.8850 N.3   340  LEU340     -0.1245
    187  CA        11.6980  -11.3850   34.8980 C.3   340  LEU340      0.1561
    188  C         11.5910  -10.1990   35.8530 C.2   340  LEU340      0.2260
    189  O         11.0680   -9.1650   35.4940 O.2   340  LEU340     -0.2867
    190  CB        10.7590  -12.5400   35.2940 C.3   340  LEU340      0.0270
    191  CG         9.3770  -12.6680   34.5900 C.3   340  LEU340      0.0019
    192  CD1        9.4730  -12.8500   33.0670 C.3   340  LEU340      0.0001
    193  CD2        8.5720  -13.8100   35.1710 C.3   340  LEU340      0.0001
    194  N         13.4960   -7.2070   34.5210 N.3   343  ILE343     -0.1245
    195  CA        12.8160   -6.7340   33.2810 C.3   343  ILE343      0.1561
    196  C         11.3470   -6.3100   33.4440 C.2   343  ILE343      0.2260
    197  O         10.8130   -5.6180   32.5820 O.2   343  ILE343     -0.2867
    198  CB        12.9390   -7.7190   32.0530 C.3   343  ILE343      0.0252
    199  CG1       12.1110   -8.9980   32.2320 C.3   343  ILE343      0.0019
    200  CG2       14.4060   -8.0350   31.6950 C.3   343  ILE343      0.0019
    201  CD1       10.7110   -8.9120   31.6870 C.3   343  ILE343      0.0001
    202  N         10.2310   -3.1890   31.5990 N.3   347  VAL347     -0.1245
    203  CA         8.8870   -3.1330   30.9970 C.3   347  VAL347      0.1561
    204  C          8.1940   -1.8490   31.4140 C.2   347  VAL347      0.2260
    205  O          7.8440   -1.0190   30.5770 O.2   347  VAL347     -0.2867
    206  CB         7.9870   -4.3630   31.4360 C.3   347  VAL347      0.0252
    207  CG1        6.5560   -3.9430   31.7380 C.3   347  VAL347      0.0019
    208  CG2        7.9990   -5.4420   30.3800 C.3   347  VAL347      0.0019
    209  N          7.5570    1.5540   29.5960 N.3   351  MET351     -0.1245
    210  CA         6.1750    1.6880   29.1610 C.3   351  MET351      0.1570
    211  C          5.6300    3.0850   29.4140 C.2   351  MET351      0.2261
    212  O          4.5490    3.4170   28.9260 O.2   351  MET351     -0.2867
    213  CB         5.2990    0.6610   29.8600 C.3   351  MET351      0.0387
    214  CG         3.8830    0.7100   29.4340 C.3   351  MET351      0.0595
    215  SD         3.0320   -0.6100   30.2630 S.3   351  MET351     -0.1393
    216  CE         3.7150   -1.9540   29.3080 C.3   351  MET351      0.0692
    217  N          1.1080    3.3110   22.7370 N.3   357  TYR357     -0.1241
    218  CA        -0.3450    3.3180   22.6330 C.3   357  TYR357      0.1605
    219  C         -1.0550    4.5800   22.2170 C.2   357  TYR357      0.2264
    220  O         -0.7740    5.6690   22.6690 O.2   357  TYR357     -0.2867
    221  CB        -0.9730    2.7410   23.8850 C.3   357  TYR357      0.0534
    222  CG        -0.7040    1.2850   23.9200 C.ar  357  TYR357     -0.0201
    223  CD1       -0.3230    0.6320   22.7550 C.ar  357  TYR357     -0.0009
    224  CD2       -0.8080    0.5710   25.0940 C.ar  357  TYR357     -0.0009
    225  CE1       -0.0710   -0.6800   22.7560 C.ar  357  TYR357      0.0417
    226  CE2       -0.5590   -0.7460   25.1010 C.ar  357  TYR357      0.0417
    227  CZ        -0.1900   -1.3700   23.9350 C.ar  357  TYR357      0.1957
    228  OH         0.0690   -2.7010   23.9460 O.3   357  TYR357     -0.2866
@<TRIPOS>BOND
     1   165   164    2
     2   164   163    1
     3   178   179    2
     4   178   177    1
     5   162   163    1
     6   163   166    1
     7   176   177    1
     8   177   180    1
     9   180   181    1
    10   166   167    1
    11   167   169   ar
    12   167   168   ar
    13   172   169   ar
    14   172   174   ar
    15   181   183   ar
    16   181   182   ar
    17   156   157    1
    18   169   171   ar
    19   174   175   ar
    20   136   135    2
    21   168   170   ar
    22   134   133    1
    23   134   135    1
    24   159   158    2
    25   121   122   ar
    26   121   119   ar
    27   158   157    1
    28   183   185   ar
    29   171   170   ar
    30   171   173   ar
    31   157   160    1
    32   175   173   ar
    33   122   120   ar
    34   182   184   ar
    35   135   137   am
    36   119   118   ar
    37   148   147    2
    38   140   139    2
    39   185   184   ar
    40   120   118   ar
    41   147   146    1
    42   160   161    1
    43   137   138    1
    44   118   117    1
    45   116   115    2
    46   139   138    1
    47   139   145   am
    48   114   115    1
    49   114   117    1
    50   114   113    1
    51   138   141    1
    52   115   123   am
    53   146   145    1
    54   146   149    1
    55    52    51    2
    56   126   125    2
    57   149   150    1
    58   125   124    1
    59    99    98    2
    60   219   218    1
    61   219   220    2
    62    51    50    1
    63   123   124    1
    64   141   142    1
    65   101   100    1
    66   218   217    1
    67   218   221    1
    68   223   225   ar
    69   223   222   ar
    70   225   227   ar
    71   124   127    1
    72    97    98    1
    73    97   100    1
    74    97    96    1
    75    50    53    1
    76    50    49    1
    77    98   102   am
    78   143   142    1
    79   150   151   ar
    80   150   152   ar
    81   142   144    1
    82    53    54    1
    83   221   222    1
    84   151   153   ar
    85   222   224   ar
    86   227   228    1
    87   227   226   ar
    88   152   154   ar
    89    59    61   ar
    90    59    56   ar
    91   127   128    1
    92   102   103    1
    93    61    62   ar
    94    54    56   ar
    95    54    55   ar
    96   129   128   ar
    97   129   131   ar
    98    56    58   ar
    99   103   104    1
   100   103   106    1
   101   128   130   ar
   102   224   226   ar
   103   104   105    2
   104   153   155   ar
   105    95    93   am
   106    62    60   ar
   107    55    57   ar
   108   154   155   ar
   109   131   132   ar
   110    58    60   ar
   111    58    57   ar
   112    71    69   ar
   113    71    72   ar
   114   106   107    1
   115   130   132   ar
   116    74    72   ar
   117    74    76   ar
   118    69    68   ar
   119    93    94    2
   120    93    92    1
   121    72    70   ar
   122   107   108    1
   123    92    89    1
   124    76    75   ar
   125   108   109    1
   126    32    31   ar
   127    32    30   ar
   128    68    70   ar
   129    68    67    1
   130    31    29   ar
   131    70    73   ar
   132    40    38    1
   133   109   110    2
   134    75    73   ar
   135    67    64    1
   136    89    90    1
   137    89    88    1
   138    30    28   ar
   139   212   211    2
   140    90    91    2
   141    66    65    2
   142   210   211    1
   143   210   209    1
   144   210   213    1
   145    38    37    1
   146    38    39    1
   147    29    27   ar
   148   216   215    1
   149   214   213    1
   150   214   215    1
   151    64    65    1
   152    64    63    1
   153    11     9   ar
   154    11    10   ar
   155    37    34    1
   156   110   111    1
   157   110   112    1
   158    65    77   am
   159     9     7   ar
   160    28    27   ar
   161    36    35    2
   162    27    26    1
   163    10     8   ar
   164   208   206    1
   165    44    43    2
   166   205   204    2
   167    35    34    1
   168    34    33    1
   169    47    45    1
   170    43    42    1
   171   203   204    1
   172   203   206    1
   173   203   202    1
   174    77    78    1
   175   206   207    1
   176     7     6   ar
   177   201   199    1
   178   200   198    1
   179    26    23    1
   180     8     6   ar
   181    45    42    1
   182    45    46    1
   183    78    79    1
   184    78    81    1
   185    25    24    2
   186   198   199    1
   187   198   195    1
   188    42    41    1
   189    79    80    2
   190    23    24    1
   191    23    22    1
   192     6     5    1
   193    87    85   ar
   194    87    86   ar
   195    85    83   ar
   196   197   196    2
   197    86    84   ar
   198    83    82   ar
   199    48    46    1
   200    84    82   ar
   201    82    81    1
   202    15    14    2
   203   192   191    1
   204   195   196    1
   205   195   194    1
   206    22    14   am
   207     4     3    2
   208    14    13    1
   209     5     2    1
   210    20    21   ar
   211    20    18   ar
   212    21    19   ar
   213     3     2    1
   214    18    17   ar
   215    19    17   ar
   216   191   193    1
   217   191   190    1
   218     2     1    1
   219    17    16    1
   220   186   187    1
   221   187   190    1
   222   187   188    1
   223    13    16    1
   224    13    12    1
   225   189   188    2
