@<TRIPOS>MOLECULE
tmp/3lw5F02.pdb
 74 72 0 0 0
SMALL
GASTEIGER

@<TRIPOS>ATOM
      1  N         32.7450   20.5260   48.7670 N.3    83  PHE83      -0.1241
      2  CA        32.8180   19.0940   48.9720 C.3    83  PHE83       0.1605
      3  C         34.2220   18.6240   49.3210 C.2    83  PHE83       0.2264
      4  O         34.4070   17.8600   50.2650 O.2    83  PHE83      -0.2867
      5  CB        32.3560   18.3600   47.7210 C.3    83  PHE83       0.0534
      6  CG        31.3850   17.2790   48.0120 C.ar   83  PHE83      -0.0203
      7  CD1       30.0440   17.5910   48.2320 C.ar   83  PHE83      -0.0042
      8  CD2       31.8100   15.9530   48.0980 C.ar   83  PHE83      -0.0042
      9  CE1       29.1440   16.6040   48.5150 C.ar   83  PHE83      -0.0003
     10  CE2       30.9170   14.9550   48.3800 C.ar   83  PHE83      -0.0003
     11  CZ        29.5870   15.2770   48.5970 C.ar   83  PHE83      -0.0000
     12  N         35.5920   20.9410   52.2930 N.3    86  PRO86      -0.2102
     13  CA        35.0140   20.3720   53.4830 C.3    86  PRO86       0.1504
     14  C         34.8750   18.8530   53.3580 C.2    86  PRO86       0.2576
     15  O         34.1630   18.2380   54.1750 O.2    86  PRO86      -0.2718
     16  CB        33.6320   21.0150   53.5150 C.3    86  PRO86       0.0282
     17  CG        33.2520   21.0690   52.1060 C.3    86  PRO86       0.0208
     18  CD        34.5310   21.3000   51.3250 C.3    86  PRO86       0.0893
     19  N         35.5510   18.2620   52.3610 N.am   87  GLY87      -0.1957
     20  CA        35.5080   16.8150   52.1250 C.3    87  GLY87       0.1869
     21  C         36.7000   16.1220   52.7410 C.2    87  GLY87       0.2309
     22  O         36.5290   15.2280   53.5750 O.2    87  GLY87      -0.2863
     23  N         36.3690   16.3480   56.3380 N.3    90  PHE90      -0.1227
     24  CA        35.6180   15.2360   56.9600 C.3    90  PHE90       0.1736
     25  C         36.4550   13.9760   57.0970 C.2    90  PHE90       0.2595
     26  O         36.4220   13.3070   58.1610 O.2    90  PHE90      -0.2718
     27  CB        34.3170   14.8540   56.2440 C.3    90  PHE90       0.0547
     28  CG        33.4930   13.8940   57.0470 C.ar   90  PHE90      -0.0202
     29  CD1       32.4760   14.3530   57.8830 C.ar   90  PHE90      -0.0042
     30  CD2       33.7890   12.5260   57.0380 C.ar   90  PHE90      -0.0042
     31  CE1       31.7430   13.4630   58.6680 C.ar   90  PHE90      -0.0003
     32  CE2       33.0690   11.6220   57.8340 C.ar   90  PHE90      -0.0003
     33  CZ        32.0400   12.0840   58.6440 C.ar   90  PHE90      -0.0000
     34  N         37.1750   13.6330   56.0190 N.am   91  LEU91      -0.1980
     35  CA        38.0430   12.4830   56.0610 C.3    91  LEU91       0.1596
     36  C         39.0490   12.6470   57.1850 C.2    91  LEU91       0.2287
     37  O         39.0100   11.8750   58.1370 O.2    91  LEU91      -0.2864
     38  CB        38.6960   12.2210   54.7030 C.3    91  LEU91       0.0297
     39  CG        37.8520   11.2950   53.8080 C.3    91  LEU91       0.0022
     40  CD1       36.9490   10.3700   54.6700 C.3    91  LEU91       0.0001
     41  CD2       37.0080   12.0500   52.7750 C.3    91  LEU91       0.0001
     42  N         37.4560   12.4160   60.9050 N.3    94  ALA94      -0.1231
     43  CA        37.2250   10.9840   61.0070 C.3    94  ALA94       0.1694
     44  C         38.5550   10.2950   60.6550 C.2    94  ALA94       0.2592
     45  O         39.4660   10.9240   60.1040 O.2    94  ALA94      -0.2718
     46  CB        36.1300   10.5760   60.0600 C.3    94  ALA94       0.0304
     47  N         38.7090    9.0190   60.9810 N.am   95  GLY95      -0.1957
     48  CA        40.0030    8.3930   60.7130 C.3    95  GLY95       0.1869
     49  C         41.0450    8.8390   61.7310 C.2    95  GLY95       0.2309
     50  O         41.9250    8.0660   62.0920 O.2    95  GLY95      -0.2863
     51  N         39.5300    9.8110   64.3050 N.3    97  ILE97      -0.1231
     52  CA        38.5840    9.3530   65.3120 C.3    97  ILE97       0.1692
     53  C         38.8610    7.8770   65.5350 C.2    97  ILE97       0.2592
     54  O         38.8760    7.3960   66.6640 O.2    97  ILE97      -0.2718
     55  CB        37.1210    9.5060   64.8180 C.3    97  ILE97       0.0266
     56  CG1       36.7720   10.9760   64.5150 C.3    97  ILE97       0.0019
     57  CG2       36.1360    8.8790   65.8050 C.3    97  ILE97       0.0020
     58  CD1       37.3280   11.9980   65.5050 C.3    97  ILE97       0.0001
     59  N         39.0900    7.1700   64.4270 N.am   98  GLY98      -0.1957
     60  CA        39.2090    5.7110   64.4250 C.3    98  GLY98       0.1869
     61  C         40.6350    5.2090   64.2890 C.2    98  GLY98       0.2309
     62  O         40.9090    4.0370   64.5440 O.2    98  GLY98      -0.2863
     63  N         48.4090    5.3750   56.0540 N.3   141  TYR141     -0.1241
     64  CA        48.3200    5.4220   54.6220 C.3   141  TYR141      0.1605
     65  C         49.4650    4.6940   53.9350 C.2   141  TYR141      0.2264
     66  O         49.2460    4.1990   52.8480 O.2   141  TYR141     -0.2867
     67  CB        48.3680    6.8860   54.1810 C.3   141  TYR141      0.0534
     68  CG        47.1670    7.4290   53.4120 C.ar  141  TYR141     -0.0201
     69  CD1       47.0360    8.8050   53.2000 C.ar  141  TYR141     -0.0009
     70  CD2       46.1690    6.5840   52.9070 C.ar  141  TYR141     -0.0009
     71  CE1       45.9730    9.3140   52.5060 C.ar  141  TYR141      0.0417
     72  CE2       45.0980    7.1020   52.2050 C.ar  141  TYR141      0.0417
     73  CZ        45.0120    8.4630   52.0160 C.ar  141  TYR141      0.1957
     74  OH        43.9600    8.9970   51.3260 O.3   141  TYR141     -0.2866
@<TRIPOS>BOND
     1     5     6    1
     2     5     2    1
     3     6     8   ar
     4     6     7   ar
     5     8    10   ar
     6     7     9   ar
     7    10    11   ar
     8     9    11   ar
     9     1     2    1
    10     2     3    1
    11     3     4    2
    12    18    17    1
    13    18    12    1
    14    74    73    1
    15    73    72   ar
    16    73    71   ar
    17    17    16    1
    18    20    19    1
    19    20    21    1
    20    72    70   ar
    21    12    13    1
    22    19    14   am
    23    71    69   ar
    24    21    22    2
    25    41    39    1
    26    66    65    2
    27    70    68   ar
    28    69    68   ar
    29    14    13    1
    30    14    15    2
    31    68    67    1
    32    13    16    1
    33    39    40    1
    34    39    38    1
    35    65    64    1
    36    67    64    1
    37    64    63    1
    38    38    35    1
    39    34    35    1
    40    34    25   am
    41    35    36    1
    42    27    24    1
    43    27    28    1
    44    23    24    1
    45    24    25    1
    46    30    28   ar
    47    30    32   ar
    48    28    29   ar
    49    25    26    2
    50    36    37    2
    51    32    33   ar
    52    29    31   ar
    53    33    31   ar
    54    46    43    1
    55    45    44    2
    56    44    47   am
    57    44    43    1
    58    48    47    1
    59    48    49    1
    60    42    43    1
    61    49    50    2
    62    61    60    1
    63    61    62    2
    64    51    52    1
    65    60    59    1
    66    59    53   am
    67    56    55    1
    68    56    58    1
    69    55    52    1
    70    55    57    1
    71    52    53    1
    72    53    54    2
