@<TRIPOS>MOLECULE
tmp/3lw5L07.pdb
 93 91 0 0 0
SMALL
GASTEIGER

@<TRIPOS>ATOM
      1  N        -35.6990  -26.3060   85.2430 N.3    32  TYR32      -0.1227
      2  CA       -36.2040  -25.6240   84.0580 C.3    32  TYR32       0.1736
      3  C        -35.3190  -26.0680   82.9140 C.2    32  TYR32       0.2595
      4  O        -34.7210  -25.2840   82.2340 O.2    32  TYR32      -0.2718
      5  CB       -36.1930  -24.0930   84.2460 C.3    32  TYR32       0.0548
      6  CG       -35.9910  -23.3080   82.9730 C.ar   32  TYR32      -0.0200
      7  CD1      -34.7710  -22.7550   82.6690 C.ar   32  TYR32      -0.0009
      8  CD2      -37.0200  -23.1240   82.0790 C.ar   32  TYR32      -0.0009
      9  CE1      -34.5850  -22.0790   81.5200 C.ar   32  TYR32       0.0417
     10  CE2      -36.8230  -22.4440   80.9180 C.ar   32  TYR32       0.0417
     11  CZ       -35.6090  -21.9290   80.6600 C.ar   32  TYR32       0.1957
     12  OH       -35.4240  -21.2550   79.5200 O.3    32  TYR32      -0.2866
     13  N        -35.2540  -27.3730   82.7170 N.am   33  LEU33      -0.1980
     14  CA       -34.6740  -27.8920   81.4850 C.3    33  LEU33       0.1596
     15  C        -34.4540  -29.4230   81.4290 C.2    33  LEU33       0.2287
     16  O        -33.3290  -29.8320   81.1520 O.2    33  LEU33      -0.2864
     17  CB       -33.3320  -27.1890   81.2930 C.3    33  LEU33       0.0297
     18  CG       -32.3280  -27.3030   82.4520 C.3    33  LEU33       0.0022
     19  CD1      -31.6010  -28.6160   82.4070 C.3    33  LEU33       0.0001
     20  CD2      -31.3080  -26.2600   82.3440 C.3    33  LEU33       0.0001
     21  N        -36.4840  -31.3420   77.4300 N.3    36  LEU36      -0.1231
     22  CA       -35.4620  -30.7920   76.5680 C.3    36  LEU36       0.1678
     23  C        -34.1660  -31.5610   76.7970 C.2    36  LEU36       0.2434
     24  O        -34.0810  -32.3610   77.7000 O.2    36  LEU36      -0.2733
     25  CB       -35.3010  -29.2920   76.8700 C.3    36  LEU36       0.0284
     26  CG       -36.5090  -28.3790   77.1690 C.3    36  LEU36       0.0019
     27  CD1      -37.1040  -28.5470   78.5500 C.3    36  LEU36       0.0001
     28  CD2      -36.1040  -26.9490   77.0100 C.3    36  LEU36       0.0001
     29  N        -33.2280  -31.4850   75.8810 N.am   37  PRO37      -0.2729
     30  CA       -32.0780  -32.3580   75.9410 C.3    37  PRO37       0.1401
     31  C        -31.2770  -32.2290   77.2340 C.2    37  PRO37       0.2269
     32  O        -30.7970  -33.2190   77.7290 O.2    37  PRO37      -0.2865
     33  CB       -31.2850  -31.9120   74.7450 C.3    37  PRO37       0.0296
     34  CG       -32.3320  -31.6410   73.7540 C.3    37  PRO37       0.0237
     35  CD       -33.5120  -31.1070   74.4850 C.3    37  PRO37       0.0939
     36  N        -40.4840  -27.9960   68.6670 N.3    51  GLU51      -0.1231
     37  CA       -40.5700  -27.0350   69.7870 C.3    51  GLU51       0.1699
     38  C        -39.2820  -26.2190   69.7720 C.2    51  GLU51       0.2592
     39  O        -39.2750  -25.0310   70.1270 O.2    51  GLU51      -0.2718
     40  CB       -40.7320  -27.7160   71.1520 C.3    51  GLU51       0.0402
     41  CG       -41.0430  -26.7300   72.3200 C.3    51  GLU51       0.1161
     42  CD       -40.4920  -27.1770   73.7090 C.2    51  GLU51       0.3649
     43  OE1      -39.6410  -28.1090   73.7710 O.co2  51  GLU51      -0.2457
     44  OE2      -40.8960  -26.5670   74.7420 O.co2  51  GLU51      -0.2457
     45  N        -38.1930  -26.8810   69.3520 N.am   52  VAL52      -0.1980
     46  CA       -36.9190  -26.2110   69.0900 C.3    52  VAL52       0.1595
     47  C        -37.0180  -25.3990   67.8040 C.2    52  VAL52       0.2287
     48  O        -36.8000  -24.1940   67.8270 O.2    52  VAL52      -0.2864
     49  CB       -35.7400  -27.2010   69.0190 C.3    52  VAL52       0.0276
     50  CG1      -34.4120  -26.4590   68.7800 C.3    52  VAL52       0.0022
     51  CG2      -35.6830  -28.0410   70.3020 C.3    52  VAL52       0.0022
     52  N        -40.1030  -22.4450   68.3670 N.3    55  ALA55      -0.1231
     53  CA       -39.9120  -21.4310   69.4120 C.3    55  ALA55       0.1694
     54  C        -38.8820  -20.4620   68.9280 C.2    55  ALA55       0.2592
     55  O        -39.0780  -19.2510   68.9990 O.2    55  ALA55      -0.2718
     56  CB       -39.4200  -22.0790   70.6830 C.3    55  ALA55       0.0304
     57  N        -37.7770  -21.0310   68.4360 N.am   56  HIS56      -0.1976
     58  CA       -36.7160  -20.2930   67.7570 C.3    56  HIS56       0.1656
     59  C        -37.2530  -19.7640   66.4380 C.2    56  HIS56       0.2291
     60  O        -36.7230  -18.7990   65.8790 O.2    56  HIS56      -0.2864
     61  CB       -35.5460  -21.2180   67.4670 C.3    56  HIS56       0.0771
     62  CG       -34.4880  -21.2130   68.5250 C.ar   56  HIS56       0.0820
     63  ND1      -33.4420  -20.3110   68.5140 N.ar   56  HIS56      -0.2267
     64  CD2      -34.2910  -22.0150   69.6090 C.ar   56  HIS56       0.1154
     65  CE1      -32.6410  -20.5610   69.5390 C.ar   56  HIS56       0.1986
     66  NE2      -33.1340  -21.5890   70.2220 N.ar   56  HIS56      -0.2212
     67  N        -39.2610  -16.2500   66.3460 N.3    59  LEU59      -0.1231
     68  CA       -38.2840  -15.2490   66.7220 C.3    59  LEU59       0.1693
     69  C        -37.9190  -14.7060   65.3550 C.2    59  LEU59       0.2591
     70  O        -38.6750  -14.8960   64.4150 O.2    59  LEU59      -0.2718
     71  CB       -37.1000  -15.9420   67.3840 C.3    59  LEU59       0.0284
     72  CG       -35.8500  -15.1840   67.8530 C.3    59  LEU59       0.0019
     73  CD1      -36.2140  -14.3060   69.0140 C.3    59  LEU59       0.0001
     74  CD2      -34.7940  -16.1410   68.2960 C.3    59  LEU59       0.0001
     75  N        -36.8340  -13.9430   65.2320 N.am   60  LEU60      -0.1980
     76  CA       -36.3630  -13.5680   63.9030 C.3    60  LEU60       0.1596
     77  C        -37.5350  -13.1410   63.1080 C.2    60  LEU60       0.2287
     78  O        -37.7970  -13.6660   62.0520 O.2    60  LEU60      -0.2864
     79  CB       -35.6990  -14.7180   63.1670 C.3    60  LEU60       0.0297
     80  CG       -34.4490  -15.4090   63.6760 C.3    60  LEU60       0.0022
     81  CD1      -34.4520  -16.8090   63.1670 C.3    60  LEU60       0.0001
     82  CD2      -33.1740  -14.6980   63.3110 C.3    60  LEU60       0.0001
     83  N        -34.1530  -34.7610   64.1210 N.3   135  PHE135     -0.1241
     84  CA       -34.1340  -33.4790   64.8070 C.3   135  PHE135      0.1605
     85  C        -34.0600  -32.3500   63.8030 C.2   135  PHE135      0.2264
     86  O        -34.9580  -31.5240   63.7390 O.2   135  PHE135     -0.2867
     87  CB       -32.9560  -33.3690   65.7830 C.3   135  PHE135      0.0534
     88  CG       -32.9790  -32.1080   66.6150 C.ar  135  PHE135     -0.0203
     89  CD1      -33.8400  -32.0010   67.7260 C.ar  135  PHE135     -0.0042
     90  CD2      -32.1480  -31.0290   66.2840 C.ar  135  PHE135     -0.0042
     91  CE1      -33.8700  -30.8440   68.4950 C.ar  135  PHE135     -0.0003
     92  CE2      -32.1760  -29.8580   67.0460 C.ar  135  PHE135     -0.0003
     93  CZ       -33.0350  -29.7660   68.1570 C.ar  135  PHE135     -0.0000
@<TRIPOS>BOND
     1    78    77    2
     2    77    76    1
     3    79    80    1
     4    79    76    1
     5    81    80    1
     6    82    80    1
     7    86    85    2
     8    85    84    1
     9    76    75    1
    10    83    84    1
    11    70    69    2
    12    84    87    1
    13    75    69   am
    14    69    68    1
    15    87    88    1
    16    60    59    2
    17    90    88   ar
    18    90    92   ar
    19    67    68    1
    20    59    58    1
    21    88    89   ar
    22    68    71    1
    23    92    93   ar
    24    71    72    1
    25    61    58    1
    26    61    62    1
    27    89    91   ar
    28    58    57    1
    29    47    48    2
    30    47    46    1
    31    72    74    1
    32    72    73    1
    33    93    91   ar
    34    52    53    1
    35    57    54   am
    36    63    62   ar
    37    63    65   ar
    38    62    64   ar
    39    36    37    1
    40    50    49    1
    41    54    55    2
    42    54    53    1
    43    49    46    1
    44    49    51    1
    45    46    45    1
    46    45    38   am
    47    53    56    1
    48    65    66   ar
    49    64    66   ar
    50    38    37    1
    51    38    39    2
    52    37    40    1
    53    40    41    1
    54    41    42    1
    55    42    43   ar
    56    42    44   ar
    57    34    35    1
    58    34    33    1
    59    35    29    1
    60    33    30    1
    61    29    30    1
    62    29    23   am
    63    30    31    1
    64    22    23    1
    65    22    25    1
    66    22    21    1
    67    23    24    2
    68    25    26    1
    69    28    26    1
    70    26    27    1
    71    31    32    2
    72    12    11    1
    73    11    10   ar
    74    11     9   ar
    75    10     8   ar
    76    16    15    2
    77    17    14    1
    78    17    18    1
    79    15    14    1
    80    14    13    1
    81     9     7   ar
    82     8     6   ar
    83     4     3    2
    84    20    18    1
    85    19    18    1
    86     7     6   ar
    87    13     3   am
    88     3     2    1
    89     6     5    1
    90     2     5    1
    91     2     1    1
