@<TRIPOS>MOLECULE
tmp/3lw5O04.pdb
 80 77 0 0 0
SMALL
GASTEIGER

@<TRIPOS>ATOM
      1  N         52.9650   -1.7250    4.7030 N.3    33  TRP33      -0.1241
      2  CA        52.0570   -1.5640    3.5690 C.3    33  TRP33       0.1605
      3  C         51.3430   -0.2700    3.8490 C.2    33  TRP33       0.2264
      4  O         51.2880    0.6270    2.9830 O.2    33  TRP33      -0.2867
      5  CB        50.9540   -2.6420    3.6490 C.3    33  TRP33       0.0550
      6  CG        50.9950   -3.8300    2.6690 C.ar   33  TRP33       0.0003
      7  CD1       51.8220   -4.9260    2.7230 C.ar   33  TRP33       0.0946
      8  CD2       50.1250   -4.0300    1.5350 C.ar   33  TRP33       0.0152
      9  NE1       51.5260   -5.7760    1.6920 N.ar   33  TRP33      -0.2442
     10  CE2       50.4880   -5.2450    0.9460 C.ar   33  TRP33       0.0810
     11  CE3       49.0780   -3.2850    0.9500 C.ar   33  TRP33       0.0012
     12  CZ2       49.8440   -5.7290   -0.1890 C.ar   33  TRP33       0.0191
     13  CZ3       48.4500   -3.7630   -0.1710 C.ar   33  TRP33       0.0001
     14  CH2       48.8250   -4.9700   -0.7300 C.ar   33  TRP33       0.0015
     15  N         53.5240    2.5910    4.2140 N.3    36  LEU36      -0.1231
     16  CA        53.8920    2.5950    2.8080 C.3    36  LEU36       0.1693
     17  C         53.0100    3.4530    1.9060 C.2    36  LEU36       0.2592
     18  O         53.5110    4.1730    1.0280 O.2    36  LEU36      -0.2718
     19  CB        53.7580    1.1380    2.3400 C.3    36  LEU36       0.0284
     20  CG        54.2970    0.4850    1.0630 C.3    36  LEU36       0.0019
     21  CD1       53.9670    1.2830   -0.1840 C.3    36  LEU36       0.0001
     22  CD2       55.7940    0.2410    1.1930 C.3    36  LEU36       0.0001
     23  N         51.7070    3.4230    2.1190 N.am   37  ALA37      -0.1966
     24  CA        50.8560    4.3410    1.3630 C.3    37  ALA37       0.1728
     25  C         51.3600    5.7300    1.7510 C.2    37  ALA37       0.2616
     26  O         51.4630    6.7180    0.9380 O.2    37  ALA37      -0.2715
     27  CB        49.4160    4.1520    1.7500 C.3    37  ALA37       0.0334
     28  N         51.7070    5.7820    3.0280 N.am   38  VAL38      -0.1977
     29  CA        52.2150    7.0210    3.5690 C.3    38  VAL38       0.1596
     30  C         53.6400    7.4390    3.1070 C.2    38  VAL38       0.2287
     31  O         53.8750    8.6170    2.8990 O.2    38  VAL38      -0.2864
     32  CB        52.0700    7.0130    5.0570 C.3    38  VAL38       0.0276
     33  CG1       51.7590    8.4110    5.5250 C.3    38  VAL38       0.0022
     34  CG2       50.9630    6.0270    5.4410 C.3    38  VAL38       0.0022
     35  N         54.6420    7.1340    0.5830 N.3    40  GLY40      -0.1210
     36  CA        54.3280    7.5460   -0.7900 C.3    40  GLY40       0.1956
     37  C         54.1730    9.0600   -0.8350 C.2    40  GLY40       0.2611
     38  O         54.6700    9.6940   -1.7610 O.2    40  GLY40      -0.2717
     39  N         53.4680    9.6580    0.1220 N.am   41  ILE41      -0.1979
     40  CA        53.8740   11.0620    0.4550 C.3    41  ILE41       0.1595
     41  C         55.4430   11.3430    0.5550 C.2    41  ILE41       0.2287
     42  O         56.1640   11.1890   -0.4420 O.2    41  ILE41      -0.2864
     43  CB        53.0840   11.5960    1.6990 C.3    41  ILE41       0.0276
     44  CG1       53.9930   12.2430    2.7850 C.3    41  ILE41       0.0022
     45  CG2       52.1930   10.5010    2.2620 C.3    41  ILE41       0.0022
     46  CD1       55.2920   11.4210    3.2190 C.3    41  ILE41       0.0001
     47  N         59.5740   14.9250   -5.1210 N.3    46  ALA46      -0.1245
     48  CA        59.2510   13.7860   -5.9890 C.3    46  ALA46       0.1562
     49  C         58.0950   14.1820   -6.8880 C.2    46  ALA46       0.2260
     50  O         57.4990   15.2330   -6.6730 O.2    46  ALA46      -0.2867
     51  CB        58.9240   12.5320   -5.1740 C.3    46  ALA46       0.0290
     52  N         55.0560   13.1300   -8.5390 N.3    48  GLY48      -0.1210
     53  CA        53.8770   12.3050   -8.6740 C.3    48  GLY48       0.1956
     54  C         53.1960   12.6800   -9.9690 C.2    48  GLY48       0.2612
     55  O         52.6760   11.8270  -10.6910 O.2    48  GLY48      -0.2717
     56  N         53.2050   13.9760  -10.2530 N.am   49  TYR49      -0.1962
     57  CA        52.2650   14.5640  -11.1950 C.3    49  TYR49       0.1771
     58  C         50.8480   14.3920  -10.7000 C.2    49  TYR49       0.2620
     59  O         50.5190   14.8020   -9.5800 O.2    49  TYR49      -0.2715
     60  CB        52.4150   13.8800  -12.5540 C.3    49  TYR49       0.0574
     61  CG        53.6990   14.2150  -13.2730 C.ar   49  TYR49      -0.0198
     62  CD1       54.1420   15.5180  -13.3460 C.ar   49  TYR49      -0.0009
     63  CD2       54.4530   13.2350  -13.8780 C.ar   49  TYR49      -0.0009
     64  CE1       55.2870   15.8390  -13.9880 C.ar   49  TYR49       0.0417
     65  CE2       55.6050   13.5510  -14.5310 C.ar   49  TYR49       0.0417
     66  CZ        56.0170   14.8640  -14.5840 C.ar   49  TYR49       0.1957
     67  OH        57.1760   15.2260  -15.2260 O.3    49  TYR49      -0.2866
     68  N         50.0090   13.7810  -11.5540 N.am   50  GLY50      -0.1954
     69  CA        48.8720   12.9450  -10.9900 C.3    50  GLY50       0.1869
     70  C         49.3430   12.1080   -9.7930 C.2    50  GLY50       0.2309
     71  O         50.5170   12.1330   -9.4110 O.2    50  GLY50      -0.2863
     72  N         45.3870    5.9200   -8.6450 N.3    52  GLU52      -0.1245
     73  CA        45.7010    5.4210   -7.2980 C.3    52  GLU52       0.1567
     74  C         44.3700    5.3360   -6.5480 C.2    52  GLU52       0.2260
     75  O         44.3100    4.9700   -5.3660 O.2    52  GLU52      -0.2867
     76  CB        46.7180    6.3510   -6.6100 C.3    52  GLU52       0.0388
     77  CG        48.1290    6.3680   -7.2610 C.3    52  GLU52       0.1160
     78  CD        48.3210    7.4530   -8.3400 C.2    52  GLU52       0.3649
     79  OE1       49.2340    8.2830   -8.1570 O.co2  52  GLU52      -0.2457
     80  OE2       47.5900    7.4720   -9.3760 O.co2  52  GLU52      -0.2457
@<TRIPOS>BOND
     1    67    66    1
     2    66    65   ar
     3    66    64   ar
     4    65    63   ar
     5    64    62   ar
     6    63    61   ar
     7    62    61   ar
     8    61    60    1
     9    60    57    1
    10    68    69    1
    11    68    58   am
    12    57    58    1
    13    57    56    1
    14    69    70    1
    15    58    59    2
    16    55    54    2
    17    56    54   am
    18    54    53    1
    19    70    71    2
    20    80    78   ar
    21    53    52    1
    22    72    73    1
    23    78    79   ar
    24    78    77    1
    25    73    76    1
    26    73    74    1
    27    77    76    1
    28    49    50    2
    29    49    48    1
    30    74    75    2
    31    48    51    1
    32    48    47    1
    33    38    37    2
    34    37    36    1
    35    37    39   am
    36    36    35    1
    37    14    12   ar
    38    14    13   ar
    39    42    41    2
    40    12    10   ar
    41    21    20    1
    42    13    11   ar
    43    39    40    1
    44    40    41    1
    45    40    43    1
    46    26    25    2
    47    10     8   ar
    48    10     9   ar
    49    11     8   ar
    50    18    17    2
    51    20    22    1
    52    20    19    1
    53    24    27    1
    54    24    25    1
    55    24    23    1
    56     8     6   ar
    57     9     7   ar
    58    43    45    1
    59    43    44    1
    60    25    28   am
    61    17    23   am
    62    17    16    1
    63    19    16    1
    64     6     7   ar
    65     6     5    1
    66    44    46    1
    67    16    15    1
    68    31    30    2
    69     4     3    2
    70    28    29    1
    71    30    29    1
    72    29    32    1
    73     2     5    1
    74     2     3    1
    75     2     1    1
    76    32    34    1
    77    32    33    1
