@<TRIPOS>MOLECULE
tmp/3lw6A01.pdb
 130 128 0 0 0
SMALL
GASTEIGER

@<TRIPOS>ATOM
      1  N         19.4590   32.8890    6.8350 N.3    51  PHE51      -0.1241
      2  CA        18.7420   31.8330    7.5020 C.3    51  PHE51       0.1605
      3  C         18.1490   32.3370    8.8400 C.2    51  PHE51       0.2264
      4  O         18.8770   32.9100    9.6710 O.2    51  PHE51      -0.2867
      5  CB        19.6870   30.6530    7.7510 C.3    51  PHE51       0.0534
      6  CG        18.9610   29.3920    8.1610 C.ar   51  PHE51      -0.0203
      7  CD1       18.1840   28.7050    7.2610 C.ar   51  PHE51      -0.0042
      8  CD2       19.0000   28.9800    9.4810 C.ar   51  PHE51      -0.0042
      9  CE1       17.4700   27.5130    7.6340 C.ar   51  PHE51      -0.0003
     10  CE2       18.3110   27.8250    9.8740 C.ar   51  PHE51      -0.0003
     11  CZ        17.5260   27.0920    8.9490 C.ar   51  PHE51      -0.0000
     12  N         16.3710   30.6790   11.7850 N.3    53  ARG53      -0.1245
     13  CA        15.9280   29.5170   12.5140 C.3    53  ARG53       0.1563
     14  C         14.6560   29.7720   13.3330 C.2    53  ARG53       0.2260
     15  O         13.7090   28.9360   13.3000 O.2    53  ARG53      -0.2867
     16  CB        17.0740   29.1050   13.4980 C.3    53  ARG53       0.0307
     17  CG        16.7380   27.8250   14.3060 C.3    53  ARG53       0.0489
     18  CD        18.0200   27.4000   15.1110 C.3    53  ARG53       0.2205
     19  NE        17.7610   26.1870   15.9250 N.pl3  53  ARG53      -0.0865
     20  CZ        17.4250   26.2190   17.2170 C.cat  53  ARG53       0.5346
     21  NH1       17.3030   27.3800   17.8740 N.pl3  53  ARG53       0.1354
     22  NH2       17.2440   25.0460   17.8620 N.pl3  53  ARG53       0.1354
     23  N         17.7790   20.8370   15.7200 N.3    75  ASP75      -0.1239
     24  CA        18.7740   20.9550   14.6430 C.3    75  ASP75       0.1674
     25  C         18.8890   19.6770   13.8740 C.2    75  ASP75       0.2266
     26  O         18.8830   18.6000   14.4380 O.2    75  ASP75      -0.2867
     27  CB        20.1120   21.4190   15.1900 C.3    75  ASP75       0.1410
     28  CG        20.0340   22.8700   15.7660 C.2    75  ASP75       0.3668
     29  OD1       18.9610   23.5090   15.6910 O.co2  75  ASP75      -0.2456
     30  OD2       21.0370   23.3120   16.3250 O.co2  75  ASP75      -0.2456
     31  N         26.1790   18.9910   25.3470 N.3   104  HIS104     -0.1241
     32  CA        26.4770   19.4920   24.0230 C.3   104  HIS104      0.1621
     33  C         27.9870   19.5170   23.7030 C.2   104  HIS104      0.2264
     34  O         28.8080   19.9640   24.5140 O.2   104  HIS104     -0.2867
     35  CB        25.8760   20.8960   23.8550 C.3   104  HIS104      0.0745
     36  CG        25.8540   21.3570   22.4300 C.ar  104  HIS104      0.0817
     37  ND1       24.6990   21.3850   21.6690 N.ar  104  HIS104     -0.2268
     38  CD2       26.8540   21.7650   21.6130 C.ar  104  HIS104      0.1154
     39  CE1       24.9890   21.8120   20.4460 C.ar  104  HIS104      0.1986
     40  NE2       26.2860   22.0610   20.3920 N.ar  104  HIS104     -0.2212
     41  N         28.7460   23.9030   22.9030 N.3   107  TYR107     -0.1241
     42  CA        28.2940   25.0210   23.7130 C.3   107  TYR107      0.1605
     43  C         28.0350   24.6510   25.1630 C.2   107  TYR107      0.2264
     44  O         27.2580   23.7630   25.4340 O.2   107  TYR107     -0.2867
     45  CB        27.0110   25.6480   23.0890 C.3   107  TYR107      0.0534
     46  CG        27.2380   26.0470   21.6490 C.ar  107  TYR107     -0.0201
     47  CD1       28.2450   26.9560   21.3170 C.ar  107  TYR107     -0.0009
     48  CD2       26.4600   25.5150   20.6140 C.ar  107  TYR107     -0.0009
     49  CE1       28.4840   27.3240   19.9950 C.ar  107  TYR107      0.0417
     50  CE2       26.7040   25.8540   19.2720 C.ar  107  TYR107      0.0417
     51  CZ        27.6870   26.8230   18.9870 C.ar  107  TYR107      0.1957
     52  OH        27.9480   27.1420   17.6630 O.3   107  TYR107     -0.2866
     53  N         27.8000   27.0290   28.0300 N.3   109  TYR109     -0.1241
     54  CA        27.4130   28.0530   28.9540 C.3   109  TYR109      0.1605
     55  C         26.0710   27.7930   29.6270 C.2   109  TYR109      0.2264
     56  O         25.1840   27.1230   29.0920 O.2   109  TYR109     -0.2867
     57  CB        27.5180   29.4330   28.2970 C.3   109  TYR109      0.0534
     58  CG        26.5380   29.6690   27.1180 C.ar  109  TYR109     -0.0201
     59  CD1       25.3000   30.2560   27.3350 C.ar  109  TYR109     -0.0009
     60  CD2       26.9070   29.3350   25.8100 C.ar  109  TYR109     -0.0009
     61  CE1       24.4240   30.5150   26.2210 C.ar  109  TYR109      0.0417
     62  CE2       26.0390   29.5770   24.6970 C.ar  109  TYR109      0.0417
     63  CZ        24.8260   30.1650   24.9310 C.ar  109  TYR109      0.1957
     64  OH        23.9670   30.4180   23.8450 O.3   109  TYR109     -0.2866
     65  N         22.4870   28.1200   27.9900 N.3   112  PHE112     -0.1241
     66  CA        22.3290   27.6860   26.6100 C.3   112  PHE112      0.1605
     67  C         21.0680   26.8100   26.4770 C.2   112  PHE112      0.2264
     68  O         20.9290   25.8220   27.2270 O.2   112  PHE112     -0.2867
     69  CB        23.5500   26.8490   26.2290 C.3   112  PHE112      0.0534
     70  CG        23.4240   26.1550   24.9010 C.ar  112  PHE112     -0.0203
     71  CD1       23.4470   26.9050   23.7270 C.ar  112  PHE112     -0.0042
     72  CD2       23.3090   24.7570   24.7960 C.ar  112  PHE112     -0.0042
     73  CE1       23.3460   26.2740   22.4540 C.ar  112  PHE112     -0.0003
     74  CE2       23.2400   24.1380   23.5250 C.ar  112  PHE112     -0.0003
     75  CZ        23.2510   24.8860   22.3640 C.ar  112  PHE112     -0.0000
     76  N         20.0420   25.9930   23.0360 N.3   114  GLY114     -0.1210
     77  CA        20.0270   25.6150   21.6210 C.3   114  GLY114      0.1956
     78  C         20.0260   24.1190   21.3380 C.2   114  GLY114      0.2612
     79  O         19.9670   23.2690   22.2390 O.2   114  GLY114     -0.2717
     80  N         20.1430   23.7900   20.0520 N.am  115  GLY115     -0.1956
     81  CA        20.2100   22.3970   19.6350 C.3   115  GLY115      0.1869
     82  C         18.8930   21.6750   19.6130 C.2   115  GLY115      0.2309
     83  O         18.3550   21.4820   18.5320 O.2   115  GLY115     -0.2863
     84  N         20.4880   35.1930   10.1990 N.3   136  GLY136     -0.1210
     85  CA        21.8760   34.7650   10.3800 C.3   136  GLY136      0.1956
     86  C         22.0600   34.0860   11.7260 C.2   136  GLY136      0.2612
     87  O         21.1460   34.0900   12.5460 O.2   136  GLY136     -0.2717
     88  N         23.2370   33.4910   11.9050 N.am  137  TRP137     -0.1962
     89  CA        23.5580   32.7190   13.1170 C.3   137  TRP137      0.1771
     90  C         23.5610   33.6010   14.3640 C.2   137  TRP137      0.2620
     91  O         24.0070   34.7900   14.3530 O.2   137  TRP137     -0.2715
     92  CB        24.9370   32.0650   12.9510 C.3   137  TRP137      0.0590
     93  CG        25.3180   31.1500   14.0610 C.ar  137  TRP137      0.0006
     94  CD1       25.1700   29.8020   14.0940 C.ar  137  TRP137      0.0946
     95  CD2       25.9110   31.5300   15.2880 C.ar  137  TRP137      0.0152
     96  NE1       25.6680   29.2920   15.2810 N.ar  137  TRP137     -0.2442
     97  CE2       26.0960   30.3400   16.0500 C.ar  137  TRP137      0.0810
     98  CE3       26.2990   32.7630   15.8390 C.ar  137  TRP137      0.0012
     99  CZ2       26.6630   30.3530   17.3520 C.ar  137  TRP137      0.0191
    100  CZ3       26.8760   32.7900   17.1210 C.ar  137  TRP137      0.0001
    101  CH2       27.0530   31.5690   17.8680 C.ar  137  TRP137      0.0015
    102  N         23.0140   33.0410   15.4560 N.am  138  GLY138     -0.1940
    103  CA        23.2980   33.5270   16.8090 C.3   138  GLY138      0.2014
    104  C         22.1010   34.1560   17.4970 C.2   138  GLY138      0.2639
    105  O         21.1850   34.7230   16.8160 O.2   138  GLY138     -0.2714
    106  N         22.0770   33.9990   18.8350 N.am  139  LEU139     -0.1963
    107  CA        21.2750   34.8360   19.7390 C.3   139  LEU139      0.1728
    108  C         19.7830   34.5430   19.8600 C.2   139  LEU139      0.2616
    109  O         19.1570   34.9660   20.8390 O.2   139  LEU139     -0.2715
    110  CB        21.4450   36.3330   19.4420 C.3   139  LEU139      0.0311
    111  CG        22.8790   36.8740   19.6680 C.3   139  LEU139      0.0022
    112  CD1       22.9120   38.3880   19.2490 C.3   139  LEU139      0.0001
    113  CD2       23.3310   36.6820   21.0970 C.3   139  LEU139      0.0001
    114  N         19.2060   33.8500   18.8870 N.am  140  GLU140     -0.1963
    115  CA        17.7240   33.6720   18.9220 C.3   140  GLU140      0.1733
    116  C         17.3180   32.7770   20.0850 C.2   140  GLU140      0.2616
    117  O         16.2190   32.9120   20.6390 O.2   140  GLU140     -0.2715
    118  CB        17.1800   33.1570   17.5660 C.3   140  GLU140      0.0429
    119  CG        17.1670   31.6860   17.3630 C.3   140  GLU140      0.1163
    120  CD        18.5760   31.0340   17.2740 C.2   140  GLU140      0.3649
    121  OE1       19.5520   31.7830   17.0590 O.co2 140  GLU140     -0.2457
    122  OE2       18.6860   29.7740   17.5020 O.co2 140  GLU140     -0.2457
    123  N         18.1880   31.8370   20.4050 N.am  141  ASP141     -0.1971
    124  CA        17.9430   30.8960   21.4820 C.3   141  ASP141      0.1709
    125  C         18.1480   31.5850   22.8320 C.2   141  ASP141      0.2293
    126  O         17.3770   31.3540   23.7710 O.2   141  ASP141     -0.2864
    127  CB        18.8400   29.6350   21.3100 C.3   141  ASP141      0.1436
    128  CG        20.2980   29.9590   20.9090 C.2   141  ASP141      0.3671
    129  OD1       20.7280   31.1540   20.7420 O.co2 141  ASP141     -0.2456
    130  OD2       21.0690   28.9850   20.7980 O.co2 141  ASP141     -0.2456
@<TRIPOS>BOND
     1     1     2    1
     2     7     9   ar
     3     7     6   ar
     4     2     5    1
     5     2     3    1
     6     9    11   ar
     7     5     6    1
     8     6     8   ar
     9     3     4    2
    10    11    10   ar
    11     8    10   ar
    12    84    85    1
    13    85    86    1
    14    86    88   am
    15    86    87    2
    16    12    13    1
    17    88    89    1
    18    13    14    1
    19    13    16    1
    20    92    89    1
    21    92    93    1
    22    89    90    1
    23    15    14    2
    24    16    17    1
    25    25    26    2
    26    25    24    1
    27    93    94   ar
    28    93    95   ar
    29    94    96   ar
    30    17    18    1
    31    91    90    2
    32    90   102   am
    33    24    27    1
    34    24    23    1
    35    18    19    1
    36    27    28    1
    37    96    97   ar
    38    95    98   ar
    39    95    97   ar
    40   102   103    1
    41    29    28   ar
    42    28    30   ar
    43    98   100   ar
    44    19    20    2
    45    97    99   ar
    46   103   104    1
    47   105   104    2
    48   121   120   ar
    49   100   101   ar
    50    20    22    1
    51    20    21    1
    52   120   119    1
    53   120   122   ar
    54    99   101   ar
    55   119   118    1
    56   104   106   am
    57   118   115    1
    58    52    51    1
    59    83    82    2
    60   106   107    1
    61   114   115    1
    62   114   108   am
    63   115   116    1
    64    51    50   ar
    65    51    49   ar
    66   112   111    1
    67    50    48   ar
    68   110   111    1
    69   110   107    1
    70    82    81    1
    71    81    80    1
    72   111   113    1
    73   107   108    1
    74   108   109    2
    75    49    47   ar
    76    80    78   am
    77   116   123   am
    78   116   117    2
    79    40    39   ar
    80    40    38   ar
    81   123   124    1
    82    39    37   ar
    83    48    46   ar
    84   129   128   ar
    85   130   128   ar
    86   128   127    1
    87   127   124    1
    88    47    46   ar
    89    78    77    1
    90    78    79    2
    91   124   125    1
    92    38    36   ar
    93    77    76    1
    94    46    45    1
    95    37    36   ar
    96    75    73   ar
    97    75    74   ar
    98    36    35    1
    99    73    71   ar
   100   125   126    2
   101    41    42    1
   102    45    42    1
   103    74    72   ar
   104    33    32    1
   105    33    34    2
   106    42    43    1
   107    71    70   ar
   108    64    63    1
   109    35    32    1
   110    32    31    1
   111    62    63   ar
   112    62    60   ar
   113    72    70   ar
   114    70    69    1
   115    63    61   ar
   116    43    44    2
   117    60    58   ar
   118    61    59   ar
   119    69    66    1
   120    67    66    1
   121    67    68    2
   122    66    65    1
   123    58    59   ar
   124    58    57    1
   125    53    54    1
   126    57    54    1
   127    54    55    1
   128    56    55    2
