@<TRIPOS>MOLECULE
tmp/3lw6A00.pdb
 184 182 0 0 0
SMALL
GASTEIGER

@<TRIPOS>ATOM
      1  N         14.5010   23.1440   11.4320 N.3    12  PRO12      -0.2102
      2  CA        14.9060   24.2860   10.5940 C.3    12  PRO12       0.1504
      3  C         15.8600   23.7810    9.5250 C.2    12  PRO12       0.2576
      4  O         16.6990   22.9030    9.8090 O.2    12  PRO12      -0.2718
      5  CB        15.5640   25.2560   11.5670 C.3    12  PRO12       0.0282
      6  CG        15.7480   24.4740   12.8060 C.3    12  PRO12       0.0208
      7  CD        15.0010   23.2180   12.8160 C.3    12  PRO12       0.0893
      8  N         15.6550   24.2260    8.2710 N.am   13  PHE13      -0.1963
      9  CA        16.3270   23.5540    7.1530 C.3    13  PHE13       0.1771
     10  C         16.5840   24.4750    5.9890 C.2    13  PHE13       0.2619
     11  O         15.6490   25.1380    5.4990 O.2    13  PHE13      -0.2715
     12  CB        15.4810   22.3600    6.6560 C.3    13  PHE13       0.0574
     13  CG        16.1680   21.5400    5.5520 C.ar   13  PHE13      -0.0200
     14  CD1       16.8510   20.3720    5.8660 C.ar   13  PHE13      -0.0042
     15  CD2       16.0710   21.9410    4.2160 C.ar   13  PHE13      -0.0042
     16  CE1       17.4230   19.6090    4.8370 C.ar   13  PHE13      -0.0003
     17  CE2       16.7150   21.2180    3.1700 C.ar   13  PHE13      -0.0003
     18  CZ        17.3760   20.0600    3.5080 C.ar   13  PHE13      -0.0000
     19  N         17.8350   24.4600    5.5140 N.am   14  ARG14      -0.1963
     20  CA        18.1410   24.9910    4.1870 C.3    14  ARG14       0.1729
     21  C         19.4930   24.3750    3.8000 C.2    14  ARG14       0.2616
     22  O         20.4990   24.4960    4.5760 O.2    14  ARG14      -0.2715
     23  CB        18.3170   26.4810    4.2380 C.3    14  ARG14       0.0348
     24  CG        18.7620   27.0260    2.8660 C.3    14  ARG14       0.0492
     25  CD        19.2920   28.4340    3.1180 C.3    14  ARG14       0.2205
     26  NE        18.1610   29.2950    2.9160 N.pl3  14  ARG14      -0.0865
     27  CZ        18.1170   30.5920    3.1930 C.cat  14  ARG14       0.5346
     28  NH1       19.1390   31.2510    3.7810 N.pl3  14  ARG14       0.1354
     29  NH2       17.0010   31.2260    2.8520 N.pl3  14  ARG14       0.1354
     30  N         19.4900   23.7700    2.6180 N.am   15  ASP15      -0.1957
     31  CA        20.7160   23.1090    2.0770 C.3    15  ASP15       0.1840
     32  C         21.3850   22.0930    3.0690 C.2    15  ASP15       0.2621
     33  O         22.5900   22.1830    3.3100 O.2    15  ASP15      -0.2715
     34  CB        21.7940   24.2410    1.8520 C.3    15  ASP15       0.1450
     35  CG        21.3640   25.2530    0.7350 C.2    15  ASP15       0.3671
     36  OD1       20.4240   24.9370   -0.0250 O.co2  15  ASP15      -0.2456
     37  OD2       21.9290   26.3630    0.6920 O.co2  15  ASP15      -0.2456
     38  N         20.6240   21.1470    3.6110 N.am   16  ARG16      -0.1977
     39  CA        21.1560   20.1790    4.5790 C.3    16  ARG16       0.1597
     40  C         20.6260   18.8130    4.2100 C.2    16  ARG16       0.2287
     41  O         20.3660   17.9650    5.0670 O.2    16  ARG16      -0.2864
     42  CB        20.7750   20.5500    6.0390 C.3    16  ARG16       0.0334
     43  CG        21.3940   21.8560    6.4890 C.3    16  ARG16       0.0492
     44  CD        22.9380   21.8060    6.6860 C.3    16  ARG16       0.2205
     45  NE        23.4950   23.0490    7.2770 N.pl3  16  ARG16      -0.0865
     46  CZ        23.8070   24.1320    6.5660 C.cat  16  ARG16       0.5346
     47  NH1       23.6490   24.1560    5.2160 N.pl3  16  ARG16       0.1354
     48  NH2       24.2880   25.1990    7.1830 N.pl3  16  ARG16       0.1354
     49  N         19.4590   32.8890    6.8350 N.3    51  PHE51      -0.1241
     50  CA        18.7420   31.8330    7.5020 C.3    51  PHE51       0.1605
     51  C         18.1490   32.3370    8.8400 C.2    51  PHE51       0.2264
     52  O         18.8770   32.9100    9.6710 O.2    51  PHE51      -0.2867
     53  CB        19.6870   30.6530    7.7510 C.3    51  PHE51       0.0534
     54  CG        18.9610   29.3920    8.1610 C.ar   51  PHE51      -0.0203
     55  CD1       18.1840   28.7050    7.2610 C.ar   51  PHE51      -0.0042
     56  CD2       19.0000   28.9800    9.4810 C.ar   51  PHE51      -0.0042
     57  CE1       17.4700   27.5130    7.6340 C.ar   51  PHE51      -0.0003
     58  CE2       18.3110   27.8250    9.8740 C.ar   51  PHE51      -0.0003
     59  CZ        17.5260   27.0920    8.9490 C.ar   51  PHE51      -0.0000
     60  N         16.3710   30.6790   11.7850 N.3    53  ARG53      -0.1245
     61  CA        15.9280   29.5170   12.5140 C.3    53  ARG53       0.1563
     62  C         14.6560   29.7720   13.3330 C.2    53  ARG53       0.2260
     63  O         13.7090   28.9360   13.3000 O.2    53  ARG53      -0.2867
     64  CB        17.0740   29.1050   13.4980 C.3    53  ARG53       0.0307
     65  CG        16.7380   27.8250   14.3060 C.3    53  ARG53       0.0489
     66  CD        18.0200   27.4000   15.1110 C.3    53  ARG53       0.2205
     67  NE        17.7610   26.1870   15.9250 N.pl3  53  ARG53      -0.0865
     68  CZ        17.4250   26.2190   17.2170 C.cat  53  ARG53       0.5346
     69  NH1       17.3030   27.3800   17.8740 N.pl3  53  ARG53       0.1354
     70  NH2       17.2440   25.0460   17.8620 N.pl3  53  ARG53       0.1354
     71  N         17.7790   20.8370   15.7200 N.3    75  ASP75      -0.1225
     72  CA        18.7740   20.9550   14.6430 C.3    75  ASP75       0.1805
     73  C         18.8890   19.6770   13.8740 C.2    75  ASP75       0.2598
     74  O         18.8830   18.6000   14.4380 O.2    75  ASP75      -0.2718
     75  CB        20.1120   21.4190   15.1900 C.3    75  ASP75       0.1424
     76  CG        20.0340   22.8700   15.7660 C.2    75  ASP75       0.3668
     77  OD1       18.9610   23.5090   15.6910 O.co2  75  ASP75      -0.2456
     78  OD2       21.0370   23.3120   16.3250 O.co2  75  ASP75      -0.2456
     79  N         19.1300   19.7950   12.5610 N.am   76  VAL76      -0.1966
     80  CA        19.1090   18.5750   11.7090 C.3    76  VAL76       0.1727
     81  C         20.4310   17.7820   11.8640 C.2    76  VAL76       0.2616
     82  O         20.5020   16.6500   11.4020 O.2    76  VAL76      -0.2715
     83  CB        18.9210   18.9930   10.2410 C.3    76  VAL76       0.0290
     84  CG1       20.1900   19.7170    9.7460 C.3    76  VAL76       0.0023
     85  CG2       18.5250   17.8340    9.3660 C.3    76  VAL76       0.0023
     86  N         21.4490   18.3910   12.4810 N.am   77  ASP77      -0.1971
     87  CA        22.8120   17.8120   12.4610 C.3    77  ASP77       0.1709
     88  C         23.2100   17.2880   13.8490 C.2    77  ASP77       0.2293
     89  O         24.3590   16.9710   14.0870 O.2    77  ASP77      -0.2864
     90  CB        23.8850   18.8370   11.9610 C.3    77  ASP77       0.1436
     91  CG        23.9820   20.0540   12.8640 C.2    77  ASP77       0.3671
     92  OD1       23.2330   20.0490   13.8800 O.co2  77  ASP77      -0.2456
     93  OD2       24.7180   21.0530   12.6090 O.co2  77  ASP77      -0.2456
     94  N         26.1790   18.9910   25.3470 N.3   104  HIS104     -0.1241
     95  CA        26.4770   19.4920   24.0230 C.3   104  HIS104      0.1621
     96  C         27.9870   19.5170   23.7030 C.2   104  HIS104      0.2264
     97  O         28.8080   19.9640   24.5140 O.2   104  HIS104     -0.2867
     98  CB        25.8760   20.8960   23.8550 C.3   104  HIS104      0.0745
     99  CG        25.8540   21.3570   22.4300 C.ar  104  HIS104      0.0817
    100  ND1       24.6990   21.3850   21.6690 N.ar  104  HIS104     -0.2268
    101  CD2       26.8540   21.7650   21.6130 C.ar  104  HIS104      0.1154
    102  CE1       24.9890   21.8120   20.4460 C.ar  104  HIS104      0.1986
    103  NE2       26.2860   22.0610   20.3920 N.ar  104  HIS104     -0.2212
    104  N         28.7460   23.9030   22.9030 N.3   107  TYR107     -0.1241
    105  CA        28.2940   25.0210   23.7130 C.3   107  TYR107      0.1605
    106  C         28.0350   24.6510   25.1630 C.2   107  TYR107      0.2264
    107  O         27.2580   23.7630   25.4340 O.2   107  TYR107     -0.2867
    108  CB        27.0110   25.6480   23.0890 C.3   107  TYR107      0.0534
    109  CG        27.2380   26.0470   21.6490 C.ar  107  TYR107     -0.0201
    110  CD1       28.2450   26.9560   21.3170 C.ar  107  TYR107     -0.0009
    111  CD2       26.4600   25.5150   20.6140 C.ar  107  TYR107     -0.0009
    112  CE1       28.4840   27.3240   19.9950 C.ar  107  TYR107      0.0417
    113  CE2       26.7040   25.8540   19.2720 C.ar  107  TYR107      0.0417
    114  CZ        27.6870   26.8230   18.9870 C.ar  107  TYR107      0.1957
    115  OH        27.9480   27.1420   17.6630 O.3   107  TYR107     -0.2866
    116  N         22.4870   28.1200   27.9900 N.3   112  PHE112     -0.1241
    117  CA        22.3290   27.6860   26.6100 C.3   112  PHE112      0.1605
    118  C         21.0680   26.8100   26.4770 C.2   112  PHE112      0.2264
    119  O         20.9290   25.8220   27.2270 O.2   112  PHE112     -0.2867
    120  CB        23.5500   26.8490   26.2290 C.3   112  PHE112      0.0534
    121  CG        23.4240   26.1550   24.9010 C.ar  112  PHE112     -0.0203
    122  CD1       23.4470   26.9050   23.7270 C.ar  112  PHE112     -0.0042
    123  CD2       23.3090   24.7570   24.7960 C.ar  112  PHE112     -0.0042
    124  CE1       23.3460   26.2740   22.4540 C.ar  112  PHE112     -0.0003
    125  CE2       23.2400   24.1380   23.5250 C.ar  112  PHE112     -0.0003
    126  CZ        23.2510   24.8860   22.3640 C.ar  112  PHE112     -0.0000
    127  N         20.1430   23.7900   20.0520 N.3   115  GLY115     -0.1225
    128  CA        20.2100   22.3970   19.6350 C.3   115  GLY115      0.1811
    129  C         18.8930   21.6750   19.6130 C.2   115  GLY115      0.2280
    130  O         18.3550   21.4820   18.5320 O.2   115  GLY115     -0.2866
    131  N         23.2370   33.4910   11.9050 N.3   137  TRP137     -0.1241
    132  CA        23.5580   32.7190   13.1170 C.3   137  TRP137      0.1605
    133  C         23.5610   33.6010   14.3640 C.2   137  TRP137      0.2264
    134  O         24.0070   34.7900   14.3530 O.2   137  TRP137     -0.2867
    135  CB        24.9370   32.0650   12.9510 C.3   137  TRP137      0.0550
    136  CG        25.3180   31.1500   14.0610 C.ar  137  TRP137      0.0003
    137  CD1       25.1700   29.8020   14.0940 C.ar  137  TRP137      0.0946
    138  CD2       25.9110   31.5300   15.2880 C.ar  137  TRP137      0.0152
    139  NE1       25.6680   29.2920   15.2810 N.ar  137  TRP137     -0.2442
    140  CE2       26.0960   30.3400   16.0500 C.ar  137  TRP137      0.0810
    141  CE3       26.2990   32.7630   15.8390 C.ar  137  TRP137      0.0012
    142  CZ2       26.6630   30.3530   17.3520 C.ar  137  TRP137      0.0191
    143  CZ3       26.8760   32.7900   17.1210 C.ar  137  TRP137      0.0001
    144  CH2       27.0530   31.5690   17.8680 C.ar  137  TRP137      0.0015
    145  N         27.5320   15.4960   16.4610 N.3   171  HIS171     -0.1241
    146  CA        27.2450   16.7910   15.8100 C.3   171  HIS171      0.1621
    147  C         28.0620   16.7790   14.5880 C.2   171  HIS171      0.2264
    148  O         29.1880   17.2240   14.6150 O.2   171  HIS171     -0.2867
    149  CB        27.6280   17.9550   16.7310 C.3   171  HIS171      0.0745
    150  CG        27.3100   19.3390   16.1850 C.ar  171  HIS171      0.0817
    151  ND1       28.0580   20.4440   16.5260 N.ar  171  HIS171     -0.2268
    152  CD2       26.3530   19.7880   15.3310 C.ar  171  HIS171      0.1154
    153  CE1       27.5480   21.5310   15.9530 C.ar  171  HIS171      0.1986
    154  NE2       26.5300   21.1550   15.2090 N.ar  171  HIS171     -0.2212
    155  N         29.1320   18.3880   11.8540 N.3   173  HIS173     -0.1241
    156  CA        28.9840   19.7350   11.2930 C.3   173  HIS173      0.1621
    157  C         30.3670   20.2830   11.2450 C.2   173  HIS173      0.2264
    158  O         30.9560   20.6890   12.2880 O.2   173  HIS173     -0.2867
    159  CB        28.1100   20.6060   12.2330 C.3   173  HIS173      0.0745
    160  CG        27.9770   22.0650   11.8200 C.ar  173  HIS173      0.0817
    161  ND1       27.0320   22.9070   12.3900 N.ar  173  HIS173     -0.2268
    162  CD2       28.6370   22.8170   10.8940 C.ar  173  HIS173      0.1154
    163  CE1       27.1310   24.1190   11.8510 C.ar  173  HIS173      0.1986
    164  NE2       28.0970   24.0950   10.9360 N.ar  173  HIS173     -0.2212
    165  N         29.1040   26.6180    6.7090 N.3   179  LYS179     -0.1231
    166  CA        29.6090   27.8350    7.3180 C.3   179  LYS179      0.1693
    167  C         28.5090   28.5330    8.1030 C.2   179  LYS179      0.2591
    168  O         27.3600   28.6070    7.6390 O.2   179  LYS179     -0.2718
    169  CB        30.0870   28.7970    6.1960 C.3   179  LYS179      0.0285
    170  CG        31.3920   28.2650    5.5860 C.3   179  LYS179      0.0035
    171  CD        32.1440   29.2680    4.6660 C.3   179  LYS179      0.0206
    172  CE        33.4100   28.5160    4.0910 C.3   179  LYS179      0.1093
    173  NZ        34.1450   29.3360    3.0950 N.3   179  LYS179     -0.1314
    174  N         28.8460   29.0290    9.2740 N.am  180  ARG180     -0.1980
    175  CA        27.8850   29.7430   10.1110 C.3   180  ARG180      0.1597
    176  C         27.8720   31.1730    9.6540 C.2   180  ARG180      0.2287
    177  O         28.9380   31.8230    9.5160 O.2   180  ARG180     -0.2864
    178  CB        28.2900   29.6880   11.5900 C.3   180  ARG180      0.0334
    179  CG        28.1650   28.2810   12.1460 C.3   180  ARG180      0.0492
    180  CD        28.5730   28.2380   13.6360 C.3   180  ARG180      0.2205
    181  NE        28.3920   26.8480   14.1640 N.pl3 180  ARG180     -0.0865
    182  CZ        29.2560   25.8470   14.0650 C.cat 180  ARG180      0.5346
    183  NH1       30.4530   25.9860   13.4310 N.pl3 180  ARG180      0.1354
    184  NH2       28.9130   24.6530   14.5640 N.pl3 180  ARG180      0.1354
@<TRIPOS>BOND
     1    36    35   ar
     2    37    35   ar
     3    35    34    1
     4    34    31    1
     5    31    30    1
     6    31    32    1
     7    30    21   am
     8    29    27    1
     9    24    25    1
    10    24    23    1
    11    26    25    1
    12    26    27    2
    13    32    33    2
    14    32    38   am
    15   173   172    1
    16    17    18   ar
    17    17    15   ar
    18    27    28    1
    19    18    16   ar
    20    38    39    1
    21    21    20    1
    22    21    22    2
    23   172   171    1
    24    20    23    1
    25    20    19    1
    26    40    39    1
    27    40    41    2
    28    15    13   ar
    29    39    42    1
    30   171   170    1
    31    16    14   ar
    32    47    46    1
    33    11    10    2
    34    19    10   am
    35    13    14   ar
    36    13    12    1
    37   170   169    1
    38    10     9    1
    39    42    43    1
    40   169   166    1
    41    43    44    1
    42    46    48    1
    43    46    45    2
    44    12     9    1
    45    44    45    1
    46   165   166    1
    47    49    50    1
    48     9     8    1
    49    55    57   ar
    50    55    54   ar
    51   166   167    1
    52    50    53    1
    53    50    51    1
    54    57    59   ar
    55   168   167    2
    56    53    54    1
    57   167   174   am
    58    54    56   ar
    59     8     3   am
    60    51    52    2
    61    59    58   ar
    62   174   175    1
    63    85    83    1
    64    56    58   ar
    65   177   176    2
    66     3     4    2
    67     3     2    1
    68   176   175    1
    69    84    83    1
    70   175   178    1
    71    83    80    1
    72     2     1    1
    73     2     5    1
    74   162   164   ar
    75   162   160   ar
    76   164   163   ar
    77   157   156    1
    78   157   158    2
    79   156   155    1
    80   156   159    1
    81    82    81    2
    82     1     7    1
    83     5     6    1
    84   178   179    1
    85    80    81    1
    86    80    79    1
    87    60    61    1
    88   160   159    1
    89   160   161   ar
    90   163   161   ar
    91    81    86   am
    92   131   132    1
    93    90    87    1
    94    90    91    1
    95   179   180    1
    96    87    86    1
    97    87    88    1
    98    61    62    1
    99    61    64    1
   100    79    73   am
   101    93    91   ar
   102     6     7    1
   103    91    92   ar
   104   135   132    1
   105   135   136    1
   106   132   133    1
   107    63    62    2
   108   183   182    1
   109    64    65    1
   110   180   181    1
   111    88    89    2
   112    73    74    2
   113    73    72    1
   114   136   137   ar
   115   136   138   ar
   116   182   181    2
   117   182   184    1
   118   137   139   ar
   119    65    66    1
   120   134   133    2
   121   147   148    2
   122   147   146    1
   123    72    75    1
   124    72    71    1
   125    66    67    1
   126    75    76    1
   127   154   152   ar
   128   154   153   ar
   129   139   140   ar
   130   138   141   ar
   131   138   140   ar
   132   152   150   ar
   133    77    76   ar
   134    76    78   ar
   135   146   145    1
   136   146   149    1
   137   141   143   ar
   138    67    68    2
   139   153   151   ar
   140   140   142   ar
   141   150   151   ar
   142   150   149    1
   143   143   144   ar
   144    68    70    1
   145    68    69    1
   146   142   144   ar
   147   115   114    1
   148   130   129    2
   149   114   113   ar
   150   114   112   ar
   151   113   111   ar
   152   129   128    1
   153   128   127    1
   154   112   110   ar
   155   103   102   ar
   156   103   101   ar
   157   102   100   ar
   158   111   109   ar
   159   110   109   ar
   160   101    99   ar
   161   109   108    1
   162   100    99   ar
   163   126   124   ar
   164   126   125   ar
   165    99    98    1
   166   124   122   ar
   167   104   105    1
   168   108   105    1
   169   125   123   ar
   170    96    95    1
   171    96    97    2
   172   105   106    1
   173   122   121   ar
   174    98    95    1
   175    95    94    1
   176   123   121   ar
   177   121   120    1
   178   106   107    2
   179   120   117    1
   180   118   117    1
   181   118   119    2
   182   117   116    1
