@<TRIPOS>MOLECULE
tmp/3lw7B00.pdb
 154 141 0 0 0
SMALL
GASTEIGER

@<TRIPOS>ATOM
      1  N         -6.4140  -24.8490  -19.1430 N.3    10  PRO10      -0.2116
      2  CA        -7.8630  -24.7480  -19.3980 C.3    10  PRO10       0.1372
      3  C         -8.4130  -23.3580  -19.0790 C.2    10  PRO10       0.2244
      4  O         -8.1130  -22.7880  -18.0230 O.2    10  PRO10      -0.2868
      5  CB        -8.4680  -25.7770  -18.4290 C.3    10  PRO10       0.0268
      6  CG        -7.3680  -26.7270  -18.1280 C.3    10  PRO10       0.0207
      7  CD        -6.0860  -25.9620  -18.2170 C.3    10  PRO10       0.0892
      8  N         -6.2690  -20.1930  -25.3100 N.3    14  LYS14      -0.1245
      9  CA        -5.4320  -20.7830  -26.3610 C.3    14  LYS14       0.1561
     10  C         -6.2440  -21.0510  -27.6350 C.2    14  LYS14       0.2260
     11  O         -5.7160  -20.9160  -28.7350 O.2    14  LYS14      -0.2867
     12  CB        -4.7110  -22.0550  -25.8950 C.3    14  LYS14       0.0271
     13  CG        -5.5820  -23.3110  -25.8390 C.3    14  LYS14       0.0035
     14  CD        -4.8030  -24.5020  -25.3070 C.3    14  LYS14       0.0206
     15  CE        -5.7020  -25.6830  -25.0170 C.3    14  LYS14       0.1093
     16  NZ        -6.4540  -26.1360  -26.2520 N.3    14  LYS14      -0.1314
     17  N         -6.9120  -29.6620  -34.1720 N.3    30  VAL30      -0.1231
     18  CA        -7.1840  -29.6010  -32.7300 C.3    30  VAL30       0.1692
     19  C         -6.8340  -30.9450  -32.1040 C.2    30  VAL30       0.2592
     20  O         -7.3990  -31.9740  -32.4740 O.2    30  VAL30      -0.2718
     21  CB        -8.6270  -29.2160  -32.4090 C.3    30  VAL30       0.0266
     22  CG1       -8.7860  -28.9860  -30.8980 C.3    30  VAL30       0.0020
     23  CG2       -9.0520  -27.9360  -33.1920 C.3    30  VAL30       0.0020
     24  N         -5.8840  -30.9370  -31.1790 N.am   31  MET31      -0.1965
     25  CA        -5.3540  -32.1780  -30.6290 C.3    31  MET31       0.1736
     26  C         -6.4200  -33.0040  -29.8930 C.2    31  MET31       0.2617
     27  O         -6.4770  -34.2050  -30.0560 O.2    31  MET31      -0.2715
     28  CB        -4.0900  -31.9190  -29.7780 C.3    31  MET31       0.0427
     29  CG        -2.8860  -31.3320  -30.6070 C.3    31  MET31       0.0599
     30  SD        -1.2810  -31.1730  -29.7680 S.3    31  MET31      -0.1393
     31  CE        -0.7420  -32.8420  -29.5940 C.3    31  MET31       0.0692
     32  N         -7.3000  -32.3730  -29.1260 N.am   32  SER32      -0.1950
     33  CA        -8.4040  -33.1350  -28.5240 C.3    32  SER32       0.1924
     34  C         -9.4190  -33.7230  -29.5230 C.2    32  SER32       0.2314
     35  O         -9.9960  -34.7700  -29.2480 O.2    32  SER32      -0.2863
     36  CB        -9.1200  -32.3250  -27.4530 C.3    32  SER32       0.2116
     37  OG        -9.6420  -31.1440  -27.9980 O.3    32  SER32      -0.2180
     38  N         -7.8960  -36.9040  -30.4950 N.3    35  VAL35      -0.1231
     39  CA        -8.0910  -37.8460  -29.4060 C.3    35  VAL35       0.1692
     40  C         -9.4990  -38.4450  -29.4380 C.2    35  VAL35       0.2591
     41  O         -9.6530  -39.6620  -29.2750 O.2    35  VAL35      -0.2718
     42  CB        -7.7570  -37.1990  -28.0380 C.3    35  VAL35       0.0266
     43  CG1       -8.1030  -38.1280  -26.8840 C.3    35  VAL35       0.0020
     44  CG2       -6.2670  -36.8300  -27.9880 C.3    35  VAL35       0.0020
     45  N        -10.5110  -37.6100  -29.6820 N.am   36  ARG36      -0.1980
     46  CA       -11.9030  -38.0910  -29.7910 C.3    36  ARG36       0.1597
     47  C        -12.1280  -39.0940  -30.9330 C.2    36  ARG36       0.2287
     48  O        -12.9160  -40.0350  -30.7780 O.2    36  ARG36      -0.2864
     49  CB       -12.8910  -36.9250  -29.8870 C.3    36  ARG36       0.0334
     50  CG       -12.9110  -36.0430  -28.6440 C.3    36  ARG36       0.0492
     51  CD       -13.8260  -34.8320  -28.7690 C.3    36  ARG36       0.2205
     52  NE       -13.6480  -33.9560  -27.6090 N.pl3  36  ARG36      -0.0865
     53  CZ       -13.0240  -32.7710  -27.6160 C.cat  36  ARG36       0.5346
     54  NH1      -12.9190  -32.0810  -26.4780 N.pl3  36  ARG36       0.1354
     55  NH2      -12.5260  -32.2490  -28.7450 N.pl3  36  ARG36       0.1354
     56  N        -12.8660  -38.8290  -20.8040 N.3    49  LEU49      -0.1231
     57  CA       -11.9420  -38.4270  -21.8570 C.3    49  LEU49       0.1693
     58  C        -10.5040  -38.3380  -21.3360 C.2    49  LEU49       0.2591
     59  O         -9.5780  -38.8670  -21.9620 O.2    49  LEU49      -0.2718
     60  CB       -12.4030  -37.1040  -22.4870 C.3    49  LEU49       0.0284
     61  CG       -11.9850  -36.6750  -23.9150 C.3    49  LEU49       0.0019
     62  CD1      -11.2730  -35.3440  -23.9330 C.3    49  LEU49       0.0001
     63  CD2      -11.2040  -37.7470  -24.7020 C.3    49  LEU49       0.0001
     64  N        -10.3230  -37.6810  -20.1890 N.am   50  MET50      -0.1979
     65  CA        -9.0080  -37.5850  -19.5580 C.3    50  MET50       0.1605
     66  C         -8.4740  -38.9720  -19.1690 C.2    50  MET50       0.2287
     67  O         -7.2850  -39.2190  -19.2920 O.2    50  MET50      -0.2864
     68  CB        -9.0180  -36.6340  -18.3500 C.3    50  MET50       0.0413
     69  CG        -7.6370  -36.4460  -17.6600 C.3    50  MET50       0.0598
     70  SD        -6.2920  -35.7510  -18.7000 S.3    50  MET50      -0.1393
     71  CE        -6.6660  -34.0250  -18.4530 C.3    50  MET50       0.0692
     72  N         -7.2550  -40.5380  -22.3410 N.3    53  ALA53      -0.1245
     73  CA        -6.0450  -39.8560  -22.7400 C.3    53  ALA53       0.1562
     74  C         -4.8280  -40.3900  -21.9770 C.2    53  ALA53       0.2260
     75  O         -3.7360  -40.5290  -22.5350 O.2    53  ALA53      -0.2867
     76  CB        -6.2110  -38.3630  -22.5220 C.3    53  ALA53       0.0290
     77  N         -1.5540  -42.9800  -23.5120 N.3    57  ARG57      -0.1245
     78  CA        -0.1550  -42.7380  -23.1760 C.3    57  ARG57       0.1563
     79  C          0.5170  -43.9630  -22.5310 C.2    57  ARG57       0.2260
     80  O          1.6620  -44.2390  -22.8270 O.2    57  ARG57      -0.2867
     81  CB         0.0030  -41.4650  -22.3330 C.3    57  ARG57       0.0307
     82  CG        -0.4010  -40.1800  -23.0970 C.3    57  ARG57       0.0489
     83  CD        -0.4330  -38.9390  -22.2190 C.3    57  ARG57       0.2205
     84  NE        -0.4610  -37.6970  -23.0150 N.pl3  57  ARG57      -0.0865
     85  CZ        -1.5760  -37.1070  -23.4660 C.cat  57  ARG57       0.5346
     86  NH1       -2.7830  -37.6250  -23.2150 N.pl3  57  ARG57       0.1354
     87  NH2       -1.4940  -35.9940  -24.1660 N.pl3  57  ARG57       0.1354
     88  N         -0.3320  -38.7200  -28.9490 N.3    65  VAL65      -0.1245
     89  CA        -1.2620  -37.8280  -29.5390 C.3    65  VAL65       0.1561
     90  C         -0.6390  -37.0790  -30.6690 C.2    65  VAL65       0.2260
     91  O         -1.2730  -36.8450  -31.6190 O.2    65  VAL65      -0.2867
     92  CB        -1.9430  -36.9110  -28.5290 C.3    65  VAL65       0.0252
     93  CG1       -2.8980  -36.0360  -29.1970 C.3    65  VAL65       0.0019
     94  CG2       -2.5970  -37.7010  -27.5040 C.3    65  VAL65       0.0019
     95  N         -3.2800  -27.3110  -32.0860 N.3    84  ASP84      -0.1225
     96  CA        -3.8710  -26.6610  -30.9230 C.3    84  ASP84       0.1805
     97  C         -3.9500  -27.6480  -29.7430 C.2    84  ASP84       0.2598
     98  O         -4.7070  -28.6160  -29.8020 O.2    84  ASP84      -0.2718
     99  CB        -5.2560  -26.1160  -31.3080 C.3    84  ASP84       0.1424
    100  CG        -6.0430  -25.5640  -30.1150 C.2    84  ASP84       0.3668
    101  OD1       -5.5090  -25.5310  -28.9930 O.co2  84  ASP84      -0.2456
    102  OD2       -7.2200  -25.1670  -30.3120 O.co2  84  ASP84      -0.2456
    103  N         -3.1560  -27.4020  -28.6960 N.am   85  GLY85      -0.1957
    104  CA        -3.3140  -28.0970  -27.4120 C.3    85  GLY85       0.1869
    105  C         -2.2020  -29.0600  -26.9780 C.2    85  GLY85       0.2309
    106  O         -2.4850  -30.1270  -26.4130 O.2    85  GLY85      -0.2863
    107  N          0.4370  -30.9160  -24.7720 N.3    87  ARG87      -0.1245
    108  CA         0.3840  -31.2350  -23.3540 C.3    87  ARG87       0.1563
    109  C          1.7430  -31.5690  -22.7320 C.2    87  ARG87       0.2260
    110  O          1.8640  -31.5630  -21.5090 O.2    87  ARG87      -0.2867
    111  CB        -0.5960  -32.3910  -23.0730 C.3    87  ARG87       0.0307
    112  CG        -1.8950  -31.9840  -22.3780 C.3    87  ARG87       0.0489
    113  CD        -2.7250  -31.0000  -23.1970 C.3    87  ARG87       0.2205
    114  NE        -4.0030  -30.6780  -22.5500 N.pl3  87  ARG87      -0.0865
    115  CZ        -4.9860  -29.9690  -23.1120 C.cat  87  ARG87       0.5346
    116  NH1       -6.1150  -29.7460  -22.4430 N.pl3  87  ARG87       0.1354
    117  NH2       -4.8600  -29.5020  -24.3480 N.pl3  87  ARG87       0.1354
    118  N          5.4290  -34.7710  -26.5620 N.3    91  GLU91      -0.1245
    119  CA         4.6920  -34.4420  -27.7800 C.3    91  GLU91       0.1567
    120  C          5.5180  -33.5550  -28.6800 C.2    91  GLU91       0.2260
    121  O          5.5820  -33.8100  -29.8880 O.2    91  GLU91      -0.2867
    122  CB         3.3220  -33.7960  -27.4970 C.3    91  GLU91       0.0388
    123  CG         2.2290  -34.8060  -27.2520 C.3    91  GLU91       0.1160
    124  CD         0.9910  -34.2120  -26.5530 C.2    91  GLU91       0.3649
    125  OE1        0.8510  -32.9620  -26.4850 O.co2  91  GLU91      -0.2457
    126  OE2        0.1800  -35.0180  -26.0510 O.co2  91  GLU91      -0.2457
    127  N         -8.6980  -30.4530  -12.2770 N.3   129  ARG129     -0.1245
    128  CA        -8.4010  -30.5790  -13.7060 C.3   129  ARG129      0.1563
    129  C         -7.0420  -29.9610  -14.0590 C.2   129  ARG129      0.2260
    130  O         -6.2810  -30.5560  -14.8090 O.2   129  ARG129     -0.2867
    131  CB        -9.5350  -30.0060  -14.5780 C.3   129  ARG129      0.0307
    132  CG        -9.1410  -29.5810  -16.0210 C.3   129  ARG129      0.0489
    133  CD        -9.0250  -30.7610  -17.0180 C.3   129  ARG129      0.2205
    134  NE        -8.7430  -30.3680  -18.4120 N.pl3 129  ARG129     -0.0865
    135  CZ        -9.5710  -29.6670  -19.1960 C.cat 129  ARG129      0.5346
    136  NH1      -10.7320  -29.2210  -18.7290 N.pl3 129  ARG129      0.1354
    137  NH2       -9.2320  -29.3750  -20.4510 N.pl3 129  ARG129      0.1354
    138  N         -3.6860  -31.6550  -15.7290 N.3   133  GLU133     -0.1245
    139  CA        -3.0040  -31.0960  -16.9090 C.3   133  GLU133      0.1567
    140  C         -1.4980  -30.8940  -16.6440 C.2   133  GLU133      0.2260
    141  O         -0.6370  -31.2240  -17.4920 O.2   133  GLU133     -0.2867
    142  CB        -3.6760  -29.7950  -17.3760 C.3   133  GLU133      0.0388
    143  CG        -5.1350  -29.9730  -17.8790 C.3   133  GLU133      0.1160
    144  CD        -5.2390  -30.5480  -19.3060 C.2   133  GLU133      0.3649
    145  OE1       -4.1790  -30.8980  -19.8960 O.co2 133  GLU133     -0.2457
    146  OE2       -6.3840  -30.6490  -19.8440 O.co2 133  GLU133     -0.2457
    147  N          0.3880  -34.1800  -16.8360 N.3   136  LEU136     -0.1245
    148  CA         0.6620  -34.5630  -18.2280 C.3   136  LEU136      0.1561
    149  C          1.9580  -33.9210  -18.7550 C.2   136  LEU136      0.2260
    150  O          2.6510  -34.5150  -19.5820 O.2   136  LEU136     -0.2867
    151  CB        -0.5210  -34.2240  -19.1430 C.3   136  LEU136      0.0270
    152  CG        -1.7970  -35.0620  -18.9510 C.3   136  LEU136      0.0019
    153  CD1       -2.8330  -34.7110  -20.0180 C.3   136  LEU136      0.0001
    154  CD2       -1.4950  -36.5620  -18.9950 C.3   136  LEU136      0.0001
@<TRIPOS>BOND
     1    17    18    1
     2    23    21    1
     3    18    21    1
     4    18    19    1
     5    20    19    2
     6    21    22    1
     7    19    24   am
     8    95    96    1
     9    91    90    2
    10    99    96    1
    11    99   100    1
    12    24    25    1
    13    47    48    2
    14    47    46    1
    15    96    97    1
    16    90    89    1
    17    25    26    1
    18    25    28    1
    19    29    28    1
    20    29    30    1
    21    38    39    1
    22   102   100   ar
    23   100   101   ar
    24    27    26    2
    25    26    32   am
    26   121   120    2
    27    49    46    1
    28    49    50    1
    29    98    97    2
    30    46    45    1
    31    30    31    1
    32    97   103   am
    33    45    40   am
    34    89    88    1
    35    89    92    1
    36    34    35    2
    37    34    33    1
    38    40    39    1
    39    40    41    2
    40    39    42    1
    41    93    92    1
    42    32    33    1
    43    51    50    1
    44    51    52    1
    45    55    53    1
    46    11    10    2
    47   103   104    1
    48   120   119    1
    49    92    94    1
    50    33    36    1
    51    42    44    1
    52    42    43    1
    53    37    36    1
    54   119   122    1
    55   119   118    1
    56    10     9    1
    57    53    52    2
    58    53    54    1
    59   122   123    1
    60   104   105    1
    61   123   124    1
    62   105   106    2
    63   124   125   ar
    64   124   126   ar
    65     9    12    1
    66     9     8    1
    67    16    15    1
    68    12    13    1
    69    13    14    1
    70    14    15    1
    71   107   108    1
    72    63    61    1
    73   117   115    1
    74    87    85    1
    75    62    61    1
    76    61    60    1
    77    77    78    1
    78    85    86    1
    79    85    84    2
    80   108   111    1
    81   108   109    1
    82   113   114    1
    83   113   112    1
    84    78    79    1
    85    78    81    1
    86   115   114    2
    87   115   116    1
    88    82    81    1
    89    82    83    1
    90   111   112    1
    91    84    83    1
    92    80    79    2
    93    73    76    1
    94    73    72    1
    95    73    74    1
    96   109   110    2
    97    75    74    2
    98    60    57    1
    99    59    58    2
   100    57    58    1
   101    57    56    1
   102    58    64   am
   103   137   135    1
   104    64    65    1
   105   153   152    1
   106   145   144   ar
   107   146   144   ar
   108   150   149    2
   109    65    66    1
   110    65    68    1
   111     2     1    1
   112     2     3    1
   113     2     5    1
   114   144   143    1
   115    67    66    2
   116   135   136    1
   117   135   134    2
   118   151   152    1
   119   151   148    1
   120     1     7    1
   121     3     4    2
   122   154   152    1
   123   149   148    1
   124    70    71    1
   125    70    69    1
   126     5     6    1
   127   134   133    1
   128    68    69    1
   129   148   147    1
   130     7     6    1
   131   143   142    1
   132   141   140    2
   133   142   139    1
   134   133   132    1
   135   139   140    1
   136   139   138    1
   137   132   131    1
   138   130   129    2
   139   131   128    1
   140   129   128    1
   141   128   127    1
