@<TRIPOS>MOLECULE
tmp/3lwmA00.pdb
 171 163 0 0 0
SMALL
GASTEIGER

@<TRIPOS>ATOM
      1  N         24.5120  -30.6510  -11.0880 N.3   279  ARG279     -0.1245
      2  CA        25.2380  -29.4370  -11.4500 C.3   279  ARG279      0.1563
      3  C         26.7180  -29.7410  -11.6280 C.2   279  ARG279      0.2260
      4  O         27.2380  -30.6890  -11.0360 O.2   279  ARG279     -0.2867
      5  CB        25.0940  -28.3770  -10.3590 C.3   279  ARG279      0.0307
      6  CG        23.8720  -27.4730  -10.4680 C.3   279  ARG279      0.0489
      7  CD        23.9820  -26.3440   -9.4380 C.3   279  ARG279      0.2205
      8  NE        22.8760  -25.3970   -9.5150 N.pl3 279  ARG279     -0.0865
      9  CZ        22.7900  -24.2880   -8.7870 C.cat 279  ARG279      0.5346
     10  NH1       23.7520  -23.9760   -7.9300 N.pl3 279  ARG279      0.1354
     11  NH2       21.7450  -23.4850   -8.9270 N.pl3 279  ARG279      0.1354
     12  N         27.5690   -8.9710   -6.9920 N.3   293  ARG293     -0.1245
     13  CA        26.4230   -8.3950   -6.2830 C.3   293  ARG293      0.1563
     14  C         26.7100   -7.0720   -5.5570 C.2   293  ARG293      0.2260
     15  O         25.7810   -6.3550   -5.1850 O.2   293  ARG293     -0.2867
     16  CB        25.8180   -9.4150   -5.3120 C.3   293  ARG293      0.0307
     17  CG        25.2650  -10.6600   -5.9930 C.3   293  ARG293      0.0489
     18  CD        24.8630  -11.7250   -4.9740 C.3   293  ARG293      0.2205
     19  NE        24.5000  -12.9850   -5.6190 N.pl3 293  ARG293     -0.0865
     20  CZ        24.1800  -14.1010   -4.9680 C.cat 293  ARG293      0.5346
     21  NH1       24.1760  -14.1220   -3.6410 N.pl3 293  ARG293      0.1354
     22  NH2       23.8630  -15.1970   -5.6460 N.pl3 293  ARG293      0.1354
     23  N         22.1570  -15.9640  -20.3680 N.3   316  ASP316     -0.1225
     24  CA        21.5890  -16.2760  -19.0660 C.3   316  ASP316      0.1805
     25  C         20.1420  -16.7570  -19.1940 C.2   316  ASP316      0.2598
     26  O         19.3050  -16.0700  -19.7800 O.2   316  ASP316     -0.2718
     27  CB        21.6610  -15.0190  -18.1900 C.3   316  ASP316      0.1424
     28  CG        21.1140  -15.2340  -16.7930 C.2   316  ASP316      0.3668
     29  OD1       21.8780  -15.0390  -15.8250 O.co2 316  ASP316     -0.2456
     30  OD2       19.9230  -15.5850  -16.6600 O.co2 316  ASP316     -0.2456
     31  N         19.8520  -17.9400  -18.6540 N.am  317  TYR317     -0.1962
     32  CA        18.4830  -18.4370  -18.5910 C.3   317  TYR317      0.1771
     33  C         17.7050  -17.6830  -17.5170 C.2   317  TYR317      0.2620
     34  O         18.0060  -17.8100  -16.3370 O.2   317  TYR317     -0.2715
     35  CB        18.4610  -19.9280  -18.2440 C.3   317  TYR317      0.0574
     36  CG        18.6720  -20.8710  -19.4050 C.ar  317  TYR317     -0.0198
     37  CD1       17.6720  -21.0760  -20.3500 C.ar  317  TYR317     -0.0009
     38  CD2       19.8550  -21.5870  -19.5360 C.ar  317  TYR317     -0.0009
     39  CE1       17.8560  -21.9500  -21.4040 C.ar  317  TYR317      0.0417
     40  CE2       20.0450  -22.4630  -20.5810 C.ar  317  TYR317      0.0417
     41  CZ        19.0430  -22.6400  -21.5130 C.ar  317  TYR317      0.1957
     42  OH        19.2330  -23.5140  -22.5510 O.3   317  TYR317     -0.2866
     43  N         16.7040  -16.9090  -17.9210 N.am  318  SER318     -0.1936
     44  CA        15.8950  -16.1470  -16.9710 C.3   318  SER318      0.2055
     45  C         15.0460  -17.0590  -16.0840 C.2   318  SER318      0.2642
     46  O         14.2180  -17.8250  -16.5830 O.2   318  SER318     -0.2714
     47  CB        14.9830  -15.1620  -17.7120 C.3   318  SER318      0.2130
     48  OG        15.7170  -14.3210  -18.5910 O.3   318  SER318     -0.2179
     49  N         15.2520  -16.9670  -14.7720 N.am  319  GLN319     -0.1976
     50  CA        14.4330  -17.6880  -13.7970 C.3   319  GLN319      0.1601
     51  C         14.2320  -19.1540  -14.1640 C.2   319  GLN319      0.2287
     52  O         13.1260  -19.6790  -14.0320 O.2   319  GLN319     -0.2864
     53  CB        13.0550  -17.0300  -13.6590 C.3   319  GLN319      0.0394
     54  CG        13.0810  -15.5270  -13.4460 C.3   319  GLN319      0.0908
     55  CD        12.6490  -14.7520  -14.6760 C.2   319  GLN319      0.2608
     56  OE1       12.0230  -15.2990  -15.5850 O.2   319  GLN319     -0.2717
     57  NE2       12.9770  -13.4660  -14.7070 N.am  319  GLN319     -0.0878
     58  N         15.0510  -22.1260  -12.8970 N.3   321  GLU321     -0.1231
     59  CA        14.5820  -23.0580  -11.8780 C.3   321  GLU321      0.1699
     60  C         13.0920  -22.8830  -11.5780 C.2   321  GLU321      0.2592
     61  O         12.3860  -23.8630  -11.3400 O.2   321  GLU321     -0.2718
     62  CB        15.4570  -22.9740  -10.6230 C.3   321  GLU321      0.0402
     63  CG        16.8720  -23.4710  -10.8920 C.3   321  GLU321      0.1161
     64  CD        17.8110  -23.2830   -9.7200 C.2   321  GLU321      0.3649
     65  OE1       18.9260  -23.8500   -9.7530 O.co2 321  GLU321     -0.2457
     66  OE2       17.4400  -22.5680   -8.7690 O.co2 321  GLU321     -0.2457
     67  N         12.6060  -21.6460  -11.6360 N.am  322  LEU322     -0.1980
     68  CA        11.1770  -21.3830  -11.4740 C.3   322  LEU322      0.1596
     69  C         10.3640  -21.9130  -12.6520 C.2   322  LEU322      0.2287
     70  O          9.2690  -22.4520  -12.4680 O.2   322  LEU322     -0.2864
     71  CB        10.9100  -19.8870  -11.2980 C.3   322  LEU322      0.0297
     72  CG        11.4040  -19.2450  -10.0030 C.3   322  LEU322      0.0022
     73  CD1       11.0010  -17.7800   -9.9550 C.3   322  LEU322      0.0001
     74  CD2       10.8510  -19.9890   -8.8070 C.3   322  LEU322      0.0001
     75  N          8.3730  -12.5310  -10.9650 N.3   345  HIS345     -0.1241
     76  CA         8.5890  -11.9100   -9.6640 C.3   345  HIS345      0.1621
     77  C          7.6530  -10.7220   -9.4750 C.2   345  HIS345      0.2264
     78  O          7.1640  -10.4720   -8.3740 O.2   345  HIS345     -0.2867
     79  CB        10.0510  -11.5030   -9.4830 C.3   345  HIS345      0.0745
     80  CG        11.0020  -12.6560   -9.5390 C.ar  345  HIS345      0.0817
     81  ND1       10.8950  -13.7470   -8.7030 N.ar  345  HIS345     -0.2268
     82  CD2       12.0730  -12.8950  -10.3310 C.ar  345  HIS345      0.1154
     83  CE1       11.8570  -14.6070   -8.9780 C.ar  345  HIS345      0.1986
     84  NE2       12.5880  -14.1140   -9.9620 N.ar  345  HIS345     -0.2212
     85  N          9.5830   -6.1270   -5.6100 N.3   365  ARG365     -0.1231
     86  CA         9.8840   -7.2490   -6.4930 C.3   365  ARG365      0.1694
     87  C         10.8780   -8.2120   -5.8550 C.2   365  ARG365      0.2591
     88  O         10.7040   -9.4270   -5.9280 O.2   365  ARG365     -0.2718
     89  CB        10.4080   -6.7710   -7.8510 C.3   365  ARG365      0.0321
     90  CG        10.2530   -7.8090   -8.9600 C.3   365  ARG365      0.0489
     91  CD        10.9400   -7.3820  -10.2490 C.3   365  ARG365      0.2205
     92  NE        12.3340   -7.8120  -10.2940 N.pl3 365  ARG365     -0.0865
     93  CZ        12.7850   -8.8160  -11.0410 C.cat 365  ARG365      0.5346
     94  NH1       11.9540   -9.4950  -11.8200 N.pl3 365  ARG365      0.1354
     95  NH2       14.0700   -9.1360  -11.0150 N.pl3 365  ARG365      0.1354
     96  N         11.9230   -7.6700   -5.2360 N.am  366  ARG366     -0.1980
     97  CA        12.8950   -8.5020   -4.5360 C.3   366  ARG366      0.1597
     98  C         12.2190   -9.2510   -3.3900 C.2   366  ARG366      0.2287
     99  O         12.6080  -10.3680   -3.0500 O.2   366  ARG366     -0.2864
    100  CB        14.0810   -7.6660   -4.0420 C.3   366  ARG366      0.0334
    101  CG        14.8980   -8.3070   -2.9200 C.3   366  ARG366      0.0492
    102  CD        15.3290   -9.7430   -3.2270 C.3   366  ARG366      0.2205
    103  NE        16.4760   -9.8340   -4.1260 N.pl3 366  ARG366     -0.0865
    104  CZ        17.1110  -10.9690   -4.4050 C.cat 366  ARG366      0.5346
    105  NH1       16.7100  -12.1070   -3.8520 N.pl3 366  ARG366      0.1354
    106  NH2       18.1480  -10.9700   -5.2330 N.pl3 366  ARG366      0.1354
    107  N         11.0160  -12.2630   -5.0420 N.3   369  LYS369     -0.1245
    108  CA        12.1370  -13.1490   -5.3500 C.3   369  LYS369      0.1561
    109  C         12.5420  -13.9380   -4.1170 C.2   369  LYS369      0.2260
    110  O         12.7770  -15.1460   -4.1850 O.2   369  LYS369     -0.2867
    111  CB        13.3510  -12.3600   -5.8550 C.3   369  LYS369      0.0271
    112  CG        13.2440  -11.8540   -7.2810 C.3   369  LYS369      0.0035
    113  CD        14.5530  -11.2090   -7.7420 C.3   369  LYS369      0.0206
    114  CE        15.7030  -12.2100   -7.7540 C.3   369  LYS369      0.1093
    115  NZ        16.9530  -11.6340   -8.3250 N.3   369  LYS369     -0.1314
    116  N         12.6480  -17.9250   -4.1210 N.3   373  PHE373     -0.1241
    117  CA        13.8630  -18.6220   -3.7140 C.3   373  PHE373      0.1605
    118  C         13.6070  -19.4300   -2.4470 C.2   373  PHE373      0.2264
    119  O         14.0530  -20.5720   -2.3230 O.2   373  PHE373     -0.2867
    120  CB        15.0080  -17.6340   -3.4670 C.3   373  PHE373      0.0534
    121  CG        15.4300  -16.8660   -4.6920 C.ar  373  PHE373     -0.0203
    122  CD1       15.0060  -17.2540   -5.9530 C.ar  373  PHE373     -0.0042
    123  CD2       16.2590  -15.7590   -4.5780 C.ar  373  PHE373     -0.0042
    124  CE1       15.3940  -16.5490   -7.0770 C.ar  373  PHE373     -0.0003
    125  CE2       16.6520  -15.0510   -5.6980 C.ar  373  PHE373     -0.0003
    126  CZ        16.2190  -15.4470   -6.9500 C.ar  373  PHE373     -0.0000
    127  N         11.8860  -22.5240   -3.1990 N.3   376  LEU376     -0.1231
    128  CA        12.8580  -23.3740   -3.8750 C.3   376  LEU376      0.1693
    129  C         13.7140  -24.1580   -2.8840 C.2   376  LEU376      0.2592
    130  O         14.0250  -25.3250   -3.1140 O.2   376  LEU376     -0.2718
    131  CB        13.7680  -22.5160   -4.7560 C.3   376  LEU376      0.0284
    132  CG        13.9660  -22.9120   -6.2200 C.3   376  LEU376      0.0019
    133  CD1       12.6780  -22.7230   -7.0010 C.3   376  LEU376      0.0001
    134  CD2       15.0960  -22.0990   -6.8450 C.3   376  LEU376      0.0001
    135  N         14.1000  -23.5060   -1.7890 N.am  377  TYR377     -0.1976
    136  CA        15.0440  -24.0890   -0.8320 C.3   377  TYR377      0.1639
    137  C         14.3840  -24.5900    0.4540 C.2   377  TYR377      0.2290
    138  O         15.0690  -25.0570    1.3690 O.2   377  TYR377     -0.2864
    139  CB        16.1150  -23.0670   -0.4510 C.3   377  TYR377      0.0560
    140  CG        16.8040  -22.3960   -1.6150 C.ar  377  TYR377     -0.0198
    141  CD1       17.1050  -23.0970   -2.7720 C.ar  377  TYR377     -0.0009
    142  CD2       17.1820  -21.0610   -1.5400 C.ar  377  TYR377     -0.0009
    143  CE1       17.7500  -22.4810   -3.8330 C.ar  377  TYR377      0.0417
    144  CE2       17.8280  -20.4380   -2.5900 C.ar  377  TYR377      0.0417
    145  CZ        18.1110  -21.1520   -3.7370 C.ar  377  TYR377      0.1957
    146  OH        18.7570  -20.5330   -4.7840 O.3   377  TYR377     -0.2866
    147  N         12.8920  -22.7400    2.7450 N.3   379  MET379     -0.1245
    148  CA        13.3160  -21.8480    3.8190 C.3   379  MET379      0.1570
    149  C         12.1580  -21.5480    4.7680 C.2   379  MET379      0.2261
    150  O         11.0710  -21.1750    4.3310 O.2   379  MET379     -0.2867
    151  CB        13.8790  -20.5520    3.2340 C.3   379  MET379      0.0387
    152  CG        14.7130  -19.7380    4.2040 C.3   379  MET379      0.0595
    153  SD        15.6970  -18.4960    3.3490 S.3   379  MET379     -0.1393
    154  CE        16.5400  -19.5230    2.1470 C.3   379  MET379      0.0692
    155  N         23.3460  -21.3590  -14.6460 N.3   491  ASP491     -0.1239
    156  CA        22.2550  -20.9380  -15.5200 C.3   491  ASP491      0.1674
    157  C         22.7530  -19.9600  -16.5780 C.2   491  ASP491      0.2266
    158  O         21.9690  -19.3570  -17.3050 O.2   491  ASP491     -0.2867
    159  CB        21.1160  -20.3100  -14.7110 C.3   491  ASP491      0.1410
    160  CG        21.5370  -19.0410  -13.9860 C.2   491  ASP491      0.3668
    161  OD1       22.7390  -18.6950  -14.0040 O.co2 491  ASP491     -0.2456
    162  OD2       20.6580  -18.3830  -13.3920 O.co2 491  ASP491     -0.2456
    163  N         18.4570  -14.2790  -21.7150 N.3   526  GLU526     -0.1245
    164  CA        18.9060  -12.8960  -21.7860 C.3   526  GLU526      0.1567
    165  C         20.3680  -12.8790  -22.2110 C.2   526  GLU526      0.2260
    166  O         21.1910  -13.6040  -21.6560 O.2   526  GLU526     -0.2867
    167  CB        18.7060  -12.2170  -20.4270 C.3   526  GLU526      0.0388
    168  CG        19.8190  -11.2850  -19.9920 C.3   526  GLU526      0.1160
    169  CD        19.7360  -10.9510  -18.5090 C.2   526  GLU526      0.3649
    170  OE1       20.7970  -10.7180  -17.8880 O.co2 526  GLU526     -0.2457
    171  OE2       18.6100  -10.9350  -17.9620 O.co2 526  GLU526     -0.2457
@<TRIPOS>BOND
     1    42    41    1
     2   165   164    1
     3   165   166    2
     4   164   163    1
     5   164   167    1
     6    41    39   ar
     7    41    40   ar
     8    39    37   ar
     9    40    38   ar
    10   167   168    1
    11    23    24    1
    12    37    36   ar
    13   168   169    1
    14    26    25    2
    15    38    36   ar
    16    36    35    1
    17    25    24    1
    18    25    31   am
    19    24    27    1
    20    31    32    1
    21    32    35    1
    22    32    33    1
    23    48    47    1
    24   169   171   ar
    25   169   170   ar
    26    27    28    1
    27    43    33   am
    28    43    44    1
    29    47    44    1
    30    33    34    2
    31   158   157    2
    32    44    45    1
    33    28    30   ar
    34    28    29   ar
    35    46    45    2
    36   157   156    1
    37    45    49   am
    38    56    55    2
    39   156   159    1
    40   156   155    1
    41    49    50    1
    42   159   160    1
    43    57    55   am
    44    55    54    1
    45    51    52    2
    46    51    50    1
    47   161   160   ar
    48   160   162   ar
    49    50    53    1
    50    53    54    1
    51    58    59    1
    52    69    70    2
    53    69    68    1
    54    59    60    1
    55    59    62    1
    56    94    93    1
    57    67    60   am
    58    67    68    1
    59     3     2    1
    60     3     4    2
    61    60    61    2
    62    68    71    1
    63     2     1    1
    64     2     5    1
    65    71    72    1
    66    93    95    1
    67    93    92    2
    68    75    76    1
    69    63    62    1
    70    63    64    1
    71     6     5    1
    72     6     7    1
    73    82    84   ar
    74    82    80   ar
    75    92    91    1
    76    91    90    1
    77    72    73    1
    78    72    74    1
    79    84    83   ar
    80    65    64   ar
    81    64    66   ar
    82    76    79    1
    83    76    77    1
    84    80    79    1
    85    80    81   ar
    86     8     7    1
    87     8     9    2
    88    77    78    2
    89    83    81   ar
    90    90    89    1
    91    11     9    1
    92     9    10    1
    93   115   114    1
    94    89    86    1
    95   114   113    1
    96   113   112    1
    97   112   111    1
    98   124   126   ar
    99   124   122   ar
   100   133   132    1
   101    12    13    1
   102   126   125   ar
   103   134   132    1
   104    86    87    1
   105    86    85    1
   106    13    14    1
   107    13    16    1
   108   132   131    1
   109    17    16    1
   110    17    18    1
   111   122   121   ar
   112    88    87    2
   113    87    96   am
   114   111   108    1
   115   125   123   ar
   116    22    20    1
   117    19    18    1
   118    19    20    2
   119    14    15    2
   120   108   107    1
   121   108   109    1
   122    96    97    1
   123   106   104    1
   124    20    21    1
   125   146   145    1
   126   131   128    1
   127   121   123   ar
   128   121   120    1
   129    97   100    1
   130    97    98    1
   131   104   103    2
   132   104   105    1
   133   110   109    2
   134   103   102    1
   135   116   117    1
   136   100   101    1
   137   128   127    1
   138   128   129    1
   139   143   145   ar
   140   143   141   ar
   141   145   144   ar
   142   117   120    1
   143   117   118    1
   144    98    99    2
   145   102   101    1
   146   130   129    2
   147   129   135   am
   148   141   140   ar
   149   144   142   ar
   150   118   119    2
   151   135   136    1
   152   140   142   ar
   153   140   139    1
   154   136   139    1
   155   136   137    1
   156   137   138    2
   157   154   153    1
   158   147   148    1
   159   151   148    1
   160   151   152    1
   161   153   152    1
   162   148   149    1
   163   150   149    2
