@<TRIPOS>MOLECULE
tmp/3lx5A00.pdb
 178 175 0 0 0
SMALL
GASTEIGER

@<TRIPOS>ATOM
      1  N         10.9000   16.7950   29.0870 N.3     9  PRO9       -0.2102
      2  CA         9.7380   16.8450   29.9770 C.3     9  PRO9        0.1504
      3  C          9.7960   18.0660   30.9080 C.2     9  PRO9        0.2576
      4  O         10.8940   18.5430   31.2450 O.2     9  PRO9       -0.2718
      5  CB         9.8540   15.5580   30.8170 C.3     9  PRO9        0.0282
      6  CG        10.9090   14.7050   30.1630 C.3     9  PRO9        0.0208
      7  CD        11.7450   15.5970   29.2880 C.3     9  PRO9        0.0893
      8  N          8.6150   18.5510   31.3000 N.am   10  ASN10      -0.1961
      9  CA         8.4420   19.6330   32.2750 C.3    10  ASN10       0.1819
     10  C          8.9530   20.9500   31.6600 C.2    10  ASN10       0.2622
     11  O          9.5220   21.7700   32.3760 O.2    10  ASN10      -0.2715
     12  CB         9.1850   19.2630   33.5940 C.3    10  ASN10       0.1195
     13  CG         8.7060   20.0300   34.8360 C.2    10  ASN10       0.2630
     14  OD1        7.6430   20.6610   34.8660 O.2    10  ASN10      -0.2716
     15  ND2        9.5150   19.9390   35.9020 N.am   10  ASN10      -0.0877
     16  N          8.7630   21.1380   30.3460 N.am   11  SER11      -0.1936
     17  CA         9.2010   22.3720   29.6610 C.3    11  SER11       0.2055
     18  C          8.0300   23.2910   29.2440 C.2    11  SER11       0.2644
     19  O          8.2470   24.4310   28.7970 O.2    11  SER11      -0.2714
     20  CB        10.1060   22.0380   28.4560 C.3    11  SER11       0.2130
     21  OG         9.4730   21.2020   27.4860 O.3    11  SER11      -0.2179
     22  N          6.8070   22.7830   29.4260 N.am   12  GLY12      -0.1939
     23  CA         5.5580   23.4750   29.1170 C.3    12  GLY12       0.2014
     24  C          4.9180   23.0650   27.7960 C.2    12  GLY12       0.2639
     25  O          4.1540   23.8420   27.2470 O.2    12  GLY12      -0.2714
     26  N          5.2420   21.8850   27.2490 N.am   13  LYS13      -0.1963
     27  CA         4.6010   21.4400   25.9950 C.3    13  LYS13       0.1728
     28  C          3.0680   21.3930   26.0460 C.2    13  LYS13       0.2617
     29  O          2.3830   22.0090   25.2300 O.2    13  LYS13      -0.2715
     30  CB         5.1820   20.1180   25.4440 C.3    13  LYS13       0.0311
     31  CG         6.7130   20.1950   25.1620 C.3    13  LYS13       0.0038
     32  CD         7.2500   18.8530   24.5920 C.3    13  LYS13       0.0206
     33  CE         7.0120   17.7080   25.6010 C.3    13  LYS13       0.1093
     34  NZ         7.6400   17.9440   26.9470 N.3    13  LYS13      -0.1314
     35  N          2.5240   20.6540   27.0050 N.am   14  THR14      -0.1937
     36  CA         1.0690   20.5590   27.1090 C.3    14  THR14       0.2028
     37  C          0.4420   21.9070   27.4520 C.2    14  THR14       0.2642
     38  O         -0.6210   22.2430   26.9270 O.2    14  THR14      -0.2714
     39  CB         0.6570   19.4640   28.0900 C.3    14  THR14       0.1808
     40  OG1        1.3390   18.2560   27.7240 O.3    14  THR14      -0.2208
     41  CG2       -0.8330   19.1850   27.9910 C.3    14  THR14       0.0379
     42  N          1.1190   22.6920   28.2880 N.am   15  SER15      -0.1949
     43  CA         0.5940   24.0170   28.6290 C.3    15  SER15       0.1924
     44  C          0.4020   24.8220   27.3420 C.2    15  SER15       0.2314
     45  O         -0.6500   25.4290   27.1480 O.2    15  SER15      -0.2863
     46  CB         1.5180   24.7690   29.6270 C.3    15  SER15       0.2116
     47  OG         1.7480   24.0310   30.8150 O.3    15  SER15      -0.2180
     48  N         -3.6100   17.1160   30.4310 N.3    26  ARG26      -0.1231
     49  CA        -2.9280   17.0650   31.7310 C.3    26  ARG26       0.1694
     50  C         -1.6160   17.8490   31.7530 C.2    26  ARG26       0.2592
     51  O         -0.7010   17.6000   30.9420 O.2    26  ARG26      -0.2718
     52  CB        -2.6790   15.6110   32.1200 C.3    26  ARG26       0.0321
     53  CG        -3.9330   14.9060   32.5360 C.3    26  ARG26       0.0489
     54  CD        -3.6300   13.5370   33.1130 C.3    26  ARG26       0.2205
     55  NE        -4.9030   13.0310   33.5930 N.pl3  26  ARG26      -0.0865
     56  CZ        -5.0890   11.8600   34.1940 C.cat  26  ARG26       0.5346
     57  NH1       -4.0750   11.0310   34.3960 N.pl3  26  ARG26       0.1354
     58  NH2       -6.3050   11.5250   34.5730 N.pl3  26  ARG26       0.1354
     59  N         -1.5490   18.7930   32.6920 N.am   27  VAL27      -0.1966
     60  CA        -0.3590   19.6330   32.9440 C.3    27  VAL27       0.1727
     61  C          0.0180   19.4600   34.4230 C.2    27  VAL27       0.2617
     62  O         -0.8560   19.5090   35.2920 O.2    27  VAL27      -0.2715
     63  CB        -0.6750   21.1250   32.6420 C.3    27  VAL27       0.0290
     64  CG1        0.4640   22.0990   33.1590 C.3    27  VAL27       0.0023
     65  CG2       -0.9880   21.3140   31.1330 C.3    27  VAL27       0.0023
     66  N          1.3020   19.2610   34.7240 N.am   28  GLY28      -0.1940
     67  CA         1.7200   19.0790   36.1210 C.3    28  GLY28       0.2014
     68  C          3.1510   19.5480   36.3110 C.2    28  GLY28       0.2639
     69  O          3.8920   19.6600   35.3320 O.2    28  GLY28      -0.2714
     70  N          3.5270   19.8090   37.5550 N.am   29  ASN29      -0.1958
     71  CA         4.8420   20.3800   37.8860 C.3    29  ASN29       0.1819
     72  C          5.9490   19.3380   38.0610 C.2    29  ASN29       0.2621
     73  O          6.8260   19.5230   38.8910 O.2    29  ASN29      -0.2715
     74  CB         4.7340   21.2420   39.1460 C.3    29  ASN29       0.1195
     75  CG         4.4070   20.4200   40.4120 C.2    29  ASN29       0.2630
     76  OD1        3.9790   19.2800   40.3060 O.2    29  ASN29      -0.2716
     77  ND2        4.6410   20.9900   41.5980 N.am   29  ASN29      -0.0877
     78  N          5.8960   18.2360   37.3090 N.am   30  TRP30      -0.1960
     79  CA         6.9370   17.2140   37.3850 C.3    30  TRP30       0.1756
     80  C          7.1610   16.6090   35.9970 C.2    30  TRP30       0.2462
     81  O          6.2630   16.6390   35.1580 O.2    30  TRP30      -0.2730
     82  CB         6.6120   16.1200   38.4270 C.3    30  TRP30       0.0590
     83  CG         5.5260   15.1640   38.0010 C.ar   30  TRP30       0.0006
     84  CD1        5.6810   13.9550   37.3500 C.ar   30  TRP30       0.0946
     85  CD2        4.1180   15.3380   38.1870 C.ar   30  TRP30       0.0152
     86  NE1        4.4480   13.3750   37.1340 N.ar   30  TRP30      -0.2442
     87  CE2        3.4740   14.1980   37.6370 C.ar   30  TRP30       0.0810
     88  CE3        3.3360   16.3530   38.7580 C.ar   30  TRP30       0.0012
     89  CZ2        2.0840   14.0510   37.6360 C.ar   30  TRP30       0.0191
     90  CZ3        1.9500   16.2000   38.7710 C.ar   30  TRP30       0.0001
     91  CH2        1.3410   15.0480   38.2140 C.ar   30  TRP30       0.0015
     92  N          8.3720   16.0690   35.7480 N.am   31  PRO31      -0.2716
     93  CA         8.6450   15.5210   34.4210 C.3    31  PRO31       0.1536
     94  C          7.9620   14.1560   34.2560 C.2    31  PRO31       0.2599
     95  O          8.0280   13.3150   35.1590 O.2    31  PRO31      -0.2715
     96  CB        10.1860   15.4010   34.3880 C.3    31  PRO31       0.0310
     97  CG        10.6300   15.3600   35.8290 C.3    31  PRO31       0.0237
     98  CD         9.5440   16.0560   36.6420 C.3    31  PRO31       0.0939
     99  N          7.2910   13.9650   33.1240 N.am   32  GLY32      -0.1941
    100  CA         6.6700   12.6770   32.7890 C.3    32  GLY32       0.2014
    101  C          5.1570   12.6780   32.9080 C.2    32  GLY32       0.2639
    102  O          4.5550   11.6560   33.2450 O.2    32  GLY32      -0.2714
    103  N          4.5360   13.8240   32.6450 N.am   33  VAL33      -0.1963
    104  CA         3.0820   13.9370   32.7800 C.3    33  VAL33       0.1727
    105  C          2.4000   13.3130   31.5620 C.2    33  VAL33       0.2616
    106  O          1.6140   12.3940   31.7260 O.2    33  VAL33      -0.2715
    107  CB         2.6160   15.3940   33.1160 C.3    33  VAL33       0.0290
    108  CG1        1.0780   15.5510   33.0020 C.3    33  VAL33       0.0023
    109  CG2        3.0670   15.7690   34.5660 C.3    33  VAL33       0.0023
    110  N          2.7480   13.7700   30.3540 N.am   34  THR34      -0.1951
    111  CA         2.1340   13.2890   29.1280 C.3    34  THR34       0.1897
    112  C          2.7720   11.9570   28.7800 C.2    34  THR34       0.2313
    113  O          4.0060   11.8410   28.8360 O.2    34  THR34      -0.2863
    114  CB         2.3660   14.3250   27.9850 C.3    34  THR34       0.1794
    115  OG1        1.8120   15.5980   28.3860 O.3    34  THR34      -0.2208
    116  CG2        1.7880   13.8580   26.6350 C.3    34  THR34       0.0378
    117  N          3.2890   15.5340   22.6440 N.3    53  LEU53      -0.1245
    118  CA         4.0200   14.2780   22.8160 C.3    53  LEU53       0.1561
    119  C          4.6810   14.2300   24.1910 C.2    53  LEU53       0.2260
    120  O          4.9530   15.3000   24.7530 O.2    53  LEU53      -0.2867
    121  CB         5.0960   14.1540   21.7190 C.3    53  LEU53       0.0270
    122  CG         4.4240   13.6550   20.4140 C.3    53  LEU53       0.0019
    123  CD1        5.2810   14.0540   19.3150 C.3    53  LEU53       0.0001
    124  CD2        4.1960   12.1500   20.3670 C.3    53  LEU53       0.0001
    125  N          7.5800   14.2480   26.8870 N.3    55  GLY55      -0.1225
    126  CA         8.9270   14.8370   26.8380 C.3    55  GLY55       0.1811
    127  C         10.0430   13.8260   26.6040 C.2    55  GLY55       0.2280
    128  O          9.9060   12.6390   26.9020 O.2    55  GLY55      -0.2866
    129  N         10.5240   28.8790   25.9430 N.3   112  ASN112     -0.1225
    130  CA         9.4570   28.9550   26.9280 C.3   112  ASN112      0.1785
    131  C          9.9360   29.2450   28.3690 C.2   112  ASN112      0.2597
    132  O         11.1400   29.2200   28.6490 O.2   112  ASN112     -0.2718
    133  CB         8.6220   27.6570   26.8560 C.3   112  ASN112      0.1169
    134  CG         7.2490   27.8090   27.4940 C.2   112  ASN112      0.2627
    135  OD1        6.5510   28.8100   27.2890 O.2   112  ASN112     -0.2716
    136  ND2        6.8560   26.8190   28.2750 N.am  112  ASN112     -0.0877
    137  N          8.9830   29.4850   29.2660 N.am  113  MET113     -0.1979
    138  CA         9.2660   29.8820   30.6560 C.3   113  MET113      0.1605
    139  C         10.0920   31.1530   30.6690 C.2   113  MET113      0.2287
    140  O         10.9090   31.3850   31.5650 O.2   113  MET113     -0.2864
    141  CB         9.9620   28.7470   31.4140 C.3   113  MET113      0.0413
    142  CG         9.0250   27.5840   31.6320 C.3   113  MET113      0.0598
    143  SD         9.8350   26.0540   32.1160 S.3   113  MET113     -0.1393
    144  CE         8.3550   25.0620   32.3520 C.3   113  MET113      0.0692
    145  N          9.1090   33.9680   31.4050 N.3   115  ASP115     -0.1225
    146  CA         8.7280   34.7920   32.5620 C.3   115  ASP115      0.1805
    147  C          9.5540   34.4260   33.8000 C.2   115  ASP115      0.2597
    148  O          9.7780   35.2610   34.6720 O.2   115  ASP115     -0.2718
    149  CB         7.2410   34.6010   32.8870 C.3   115  ASP115      0.1424
    150  CG         6.8840   33.1410   33.0960 C.2   115  ASP115      0.3668
    151  OD1        6.9670   32.3230   32.1270 O.co2 115  ASP115     -0.2456
    152  OD2        6.5280   32.8060   34.2430 O.co2 115  ASP115     -0.2456
    153  N          9.9890   33.1700   33.8720 N.am  116  VAL116     -0.1980
    154  CA        10.7790   32.6770   35.0020 C.3   116  VAL116      0.1595
    155  C         12.1720   33.2470   34.8930 C.2   116  VAL116      0.2287
    156  O         12.7510   33.7190   35.8830 O.2   116  VAL116     -0.2864
    157  CB        10.8500   31.1240   35.0540 C.3   116  VAL116      0.0276
    158  CG1       11.5860   30.6560   36.3110 C.3   116  VAL116      0.0022
    159  CG2        9.4610   30.5270   35.0060 C.3   116  VAL116      0.0022
    160  N          5.7460   32.4880   26.9570 N.3   141  SER141     -0.1202
    161  CA         5.3480   32.0880   28.2870 C.3   141  SER141      0.2020
    162  C          3.9440   31.5280   28.2050 C.2   141  SER141      0.2619
    163  O          3.0120   32.2650   27.8830 O.2   141  SER141     -0.2717
    164  CB         5.3820   33.2740   29.2560 C.3   141  SER141      0.2103
    165  OG         4.8860   32.8690   30.5210 O.3   141  SER141     -0.2182
    166  N          3.7870   30.2380   28.5020 N.am  142  ALA142     -0.1965
    167  CA         2.4460   29.6640   28.6700 C.3   142  ALA142      0.1728
    168  C          1.7580   30.1990   29.9170 C.2   142  ALA142      0.2616
    169  O          0.5340   30.1530   29.9910 O.2   142  ALA142     -0.2715
    170  CB         2.4870   28.1270   28.6840 C.3   142  ALA142      0.0334
    171  N          2.5170   30.7170   30.8900 N.am  143  LEU143     -0.1977
    172  CA         1.8950   31.2730   32.0840 C.3   143  LEU143      0.1596
    173  C          1.2920   32.6400   31.7920 C.2   143  LEU143      0.2287
    174  O          0.0910   32.8290   31.9770 O.2   143  LEU143     -0.2864
    175  CB         2.8490   31.3510   33.2860 C.3   143  LEU143      0.0297
    176  CG         2.2120   31.8700   34.5850 C.3   143  LEU143      0.0022
    177  CD1        1.1580   30.8910   35.1720 C.3   143  LEU143      0.0001
    178  CD2        3.2750   32.2550   35.6260 C.3   143  LEU143      0.0001
@<TRIPOS>BOND
     1   123   122    1
     2   124   122    1
     3   122   121    1
     4   121   118    1
     5   117   118    1
     6   118   119    1
     7   119   120    2
     8    32    31    1
     9    32    33    1
    10    31    30    1
    11    29    28    2
    12    30    27    1
    13    33    34    1
    14   129   130    1
    15    27    28    1
    16    27    26    1
    17    28    35   am
    18   127   126    1
    19   127   128    2
    20   116   114    1
    21   126   125    1
    22   133   130    1
    23   133   134    1
    24    38    37    2
    25   130   131    1
    26   160   161    1
    27    35    36    1
    28    36    37    1
    29    36    39    1
    30    45    44    2
    31    25    24    2
    32    26    24   am
    33   135   134    2
    34    44    43    1
    35    37    42   am
    36    21    20    1
    37   134   136   am
    38    40    39    1
    39    24    23    1
    40   163   162    2
    41   114   115    1
    42   114   111    1
    43    41    39    1
    44   162   161    1
    45   162   166   am
    46   161   164    1
    47    42    43    1
    48   131   132    2
    49   131   137   am
    50    20    17    1
    51   166   167    1
    52    43    46    1
    53   167   170    1
    54   167   168    1
    55   112   113    2
    56   112   111    1
    57    19    18    2
    58     1     7    1
    59     1     2    1
    60    23    22    1
    61   111   110    1
    62    18    22   am
    63    18    17    1
    64   164   165    1
    65   137   138    1
    66     7     6    1
    67    46    47    1
    68    17    16    1
    69   168   169    2
    70   168   171   am
    71     2     5    1
    72     2     3    1
    73     6     5    1
    74    16    10   am
    75   110   105   am
    76    48    49    1
    77   138   139    1
    78   138   141    1
    79   139   140    2
    80   171   172    1
    81     3     4    2
    82     3     8   am
    83    51    50    2
    84    65    63    1
    85     8     9    1
    86   145   146    1
    87   141   142    1
    88   105   106    2
    89   105   104    1
    90   142   143    1
    91    10     9    1
    92    10    11    2
    93    49    50    1
    94    49    52    1
    95    50    59   am
    96   173   174    2
    97   173   172    1
    98   172   175    1
    99   143   144    1
   100    52    53    1
   101   151   150   ar
   102     9    12    1
   103    53    54    1
   104   146   149    1
   105   146   147    1
   106    63    60    1
   107    63    64    1
   108   103   104    1
   109   103   101   am
   110    59    60    1
   111   104   107    1
   112   100   101    1
   113   100    99    1
   114   149   150    1
   115   101   102    2
   116    60    61    1
   117   108   107    1
   118   150   152   ar
   119    54    55    1
   120   107   109    1
   121    99    94   am
   122   175   176    1
   123    55    56    2
   124    12    13    1
   125   147   153   am
   126   147   148    2
   127   153   154    1
   128    56    57    1
   129    56    58    1
   130    94    93    1
   131    94    95    2
   132    96    93    1
   133    96    97    1
   134    93    92    1
   135    61    66   am
   136    61    62    2
   137   176   177    1
   138   176   178    1
   139    66    67    1
   140    13    14    2
   141    13    15   am
   142   155   154    1
   143   155   156    2
   144   154   157    1
   145   159   157    1
   146   157   158    1
   147    81    80    2
   148    69    68    2
   149    92    80   am
   150    92    98    1
   151    97    98    1
   152    80    79    1
   153    67    68    1
   154    68    70   am
   155    86    84   ar
   156    86    87   ar
   157    78    79    1
   158    78    72   am
   159    84    83   ar
   160    79    82    1
   161    70    71    1
   162    89    87   ar
   163    89    91   ar
   164    87    85   ar
   165    71    72    1
   166    71    74    1
   167    83    85   ar
   168    83    82    1
   169    72    73    2
   170    85    88   ar
   171    91    90   ar
   172    88    90   ar
   173    74    75    1
   174    76    75    2
   175    75    77   am
