@<TRIPOS>MOLECULE
tmp/3lx9A03.pdb
 142 136 0 0 0
SMALL
GASTEIGER

@<TRIPOS>ATOM
      1  N         21.2330   33.5760   57.1210 N.3    16  TRP16      -0.1241
      2  CA        22.2210   34.6020   56.7840 C.3    16  TRP16       0.1605
      3  C         22.1310   35.2080   55.3810 C.2    16  TRP16       0.2264
      4  O         22.0790   36.4240   55.2400 O.2    16  TRP16      -0.2867
      5  CB        23.6460   34.1010   56.9970 C.3    16  TRP16       0.0550
      6  CG        24.6140   35.2070   56.7470 C.ar   16  TRP16       0.0003
      7  CD1       25.4770   35.3240   55.7010 C.ar   16  TRP16       0.0946
      8  CD2       24.7650   36.3960   57.5290 C.ar   16  TRP16       0.0152
      9  NE1       26.1850   36.4990   55.7980 N.ar   16  TRP16      -0.2442
     10  CE2       25.7680   37.1770   56.9130 C.ar   16  TRP16       0.0810
     11  CE3       24.1700   36.8650   58.7050 C.ar   16  TRP16       0.0012
     12  CZ2       26.1820   38.4090   57.4280 C.ar   16  TRP16       0.0191
     13  CZ3       24.5830   38.0920   59.2190 C.ar   16  TRP16       0.0001
     14  CH2       25.5800   38.8490   58.5780 C.ar   16  TRP16       0.0015
     15  N         21.9860   32.5420   62.5520 N.3    61  ASP61      -0.1225
     16  CA        23.3440   32.9450   62.1990 C.3    61  ASP61       0.1805
     17  C         23.7220   34.1860   63.0270 C.2    61  ASP61       0.2597
     18  O         23.2210   34.3560   64.1400 O.2    61  ASP61      -0.2718
     19  CB        23.4500   33.1860   60.6840 C.3    61  ASP61       0.1424
     20  CG        24.8650   32.9820   60.1570 C.2    61  ASP61       0.3668
     21  OD1       25.6550   33.9510   60.1820 O.co2  61  ASP61      -0.2456
     22  OD2       25.1800   31.8610   59.7120 O.co2  61  ASP61      -0.2456
     23  N         24.5920   35.0460   62.5000 N.am   62  ASP62      -0.1974
     24  CA        25.1200   36.1960   63.2470 C.3    62  ASP62       0.1709
     25  C         24.0270   37.2320   63.5510 C.2    62  ASP62       0.2293
     26  O         22.9410   37.1950   62.9670 O.2    62  ASP62      -0.2864
     27  CB        26.2610   36.8280   62.4360 C.3    62  ASP62       0.1436
     28  CG        27.2520   37.6200   63.2800 C.2    62  ASP62       0.3671
     29  OD1       26.9850   37.8980   64.4690 O.co2  62  ASP62      -0.2456
     30  OD2       28.3200   37.9730   62.7270 O.co2  62  ASP62      -0.2456
     31  N         24.7350   30.6650   66.4190 N.3   103  TYR103     -0.1241
     32  CA        26.0030   31.1350   65.8870 C.3   103  TYR103      0.1605
     33  C         26.8620   31.7450   66.9800 C.2   103  TYR103      0.2264
     34  O         26.3570   32.4330   67.8680 O.2   103  TYR103     -0.2867
     35  CB        25.7180   32.1840   64.8110 C.3   103  TYR103      0.0534
     36  CG        26.9240   32.9180   64.2640 C.ar  103  TYR103     -0.0201
     37  CD1       27.4560   32.5950   63.0180 C.ar  103  TYR103     -0.0009
     38  CD2       27.5120   33.9580   64.9740 C.ar  103  TYR103     -0.0009
     39  CE1       28.5560   33.2770   62.5060 C.ar  103  TYR103      0.0417
     40  CE2       28.6030   34.6340   64.4780 C.ar  103  TYR103      0.0417
     41  CZ        29.1250   34.2970   63.2420 C.ar  103  TYR103      0.1957
     42  OH        30.2120   34.9830   62.7500 O.3   103  TYR103     -0.2866
     43  N         31.6710   38.1640   63.0190 N.3   111  CYS111     -0.1221
     44  CA        32.0060   38.8880   61.7890 C.3   111  CYS111      0.1808
     45  C         31.2110   40.1860   61.6690 C.2   111  CYS111      0.2601
     46  O         31.7120   41.1730   61.1350 O.2   111  CYS111     -0.2717
     47  CB        31.7950   38.0140   60.5540 C.3   111  CYS111      0.0970
     48  SG        32.7980   36.5100   60.5530 S.3   111  CYS111     -0.0800
     49  N         29.9850   40.1880   62.1880 N.am  112  ALA112     -0.1979
     50  CA        29.1570   41.3910   62.2110 C.3   112  ALA112      0.1597
     51  C         29.4930   42.3270   63.3820 C.2   112  ALA112      0.2287
     52  O         28.8510   43.3660   63.5350 O.2   112  ALA112     -0.2864
     53  CB        27.6830   41.0130   62.2470 C.3   112  ALA112      0.0319
     54  N         27.1100   26.8740   64.8820 N.3   137  LYS137     -0.1245
     55  CA        27.9860   27.3240   63.8060 C.3   137  LYS137      0.1561
     56  C         29.0110   28.2480   64.4430 C.2   137  LYS137      0.2260
     57  O         28.6450   29.2600   65.0350 O.2   137  LYS137     -0.2867
     58  CB        27.2040   28.0540   62.7090 C.3   137  LYS137      0.0271
     59  CG        28.0960   28.7100   61.6490 C.3   137  LYS137      0.0035
     60  CD        27.2850   29.3300   60.5230 C.3   137  LYS137      0.0206
     61  CE        28.1670   30.1680   59.6100 C.3   137  LYS137      0.1093
     62  NZ        27.3960   30.8710   58.5480 N.3   137  LYS137     -0.1314
     63  N         32.3050   30.5530   63.9840 N.3   139  ASP139     -0.1239
     64  CA        32.9690   31.3220   62.9350 C.3   139  ASP139      0.1674
     65  C         34.3870   31.7150   63.3610 C.2   139  ASP139      0.2266
     66  O         34.7290   31.6420   64.5420 O.2   139  ASP139     -0.2867
     67  CB        32.1310   32.5620   62.6270 C.3   139  ASP139      0.1410
     68  CG        32.2290   33.0080   61.1800 C.2   139  ASP139      0.3668
     69  OD1       33.1890   32.6290   60.4810 O.co2 139  ASP139     -0.2456
     70  OD2       31.3280   33.7510   60.7440 O.co2 139  ASP139     -0.2456
     71  N         36.1490   34.7590   62.5900 N.3   141  CYS141     -0.1235
     72  CA        36.4950   36.1850   62.4760 C.3   141  CYS141      0.1677
     73  C         37.2380   36.7130   63.7020 C.2   141  CYS141      0.2270
     74  O         37.1720   36.1270   64.7840 O.2   141  CYS141     -0.2867
     75  CB        35.2490   37.0440   62.2370 C.3   141  CYS141      0.0956
     76  SG        34.7320   37.1410   60.5170 S.3   141  CYS141     -0.0801
     77  N         34.1020   26.8650   60.7670 N.3   172  SER172     -0.1217
     78  CA        34.6110   27.6300   59.6280 C.3   172  SER172      0.1889
     79  C         36.1460   27.6450   59.5970 C.2   172  SER172      0.2288
     80  O         36.7500   28.2250   58.7020 O.2   172  SER172     -0.2866
     81  CB        34.0340   29.0410   59.6580 C.3   172  SER172      0.2089
     82  OG        32.6170   28.9770   59.6770 O.3   172  SER172     -0.2183
     83  N         38.2760   27.4520   56.2560 N.3   175  ALA175     -0.1231
     84  CA        38.0450   28.6260   55.4020 C.3   175  ALA175      0.1694
     85  C         38.9240   29.8220   55.7770 C.2   175  ALA175      0.2592
     86  O         39.3010   30.5980   54.9040 O.2   175  ALA175     -0.2718
     87  CB        36.5670   29.0380   55.4180 C.3   175  ALA175      0.0304
     88  N         39.2380   29.9750   57.0640 N.am  176  TYR176     -0.1976
     89  CA        40.1160   31.0670   57.5280 C.3   176  TYR176      0.1639
     90  C         41.6080   30.7330   57.4430 C.2   176  TYR176      0.2290
     91  O         42.4530   31.6210   57.5790 O.2   176  TYR176     -0.2864
     92  CB        39.7400   31.4940   58.9540 C.3   176  TYR176      0.0560
     93  CG        38.4020   32.1940   58.9920 C.ar  176  TYR176     -0.0198
     94  CD1       37.2240   31.4730   59.1500 C.ar  176  TYR176     -0.0009
     95  CD2       38.3080   33.5700   58.8100 C.ar  176  TYR176     -0.0009
     96  CE1       35.9870   32.1090   59.1570 C.ar  176  TYR176      0.0417
     97  CE2       37.0760   34.2160   58.8160 C.ar  176  TYR176      0.0417
     98  CZ        35.9190   33.4810   58.9910 C.ar  176  TYR176      0.1957
     99  OH        34.6960   34.1130   59.0010 O.3   176  TYR176     -0.2866
    100  N         33.1300   24.7890   56.8350 N.3   196  ARG196     -0.1245
    101  CA        33.1840   25.7130   55.7060 C.3   196  ARG196      0.1563
    102  C         34.6190   25.8120   55.1910 C.2   196  ARG196      0.2260
    103  O         35.5300   26.1140   55.9560 O.2   196  ARG196     -0.2867
    104  CB        32.6720   27.0930   56.1260 C.3   196  ARG196      0.0307
    105  CG        31.1460   27.1650   56.3130 C.3   196  ARG196      0.0489
    106  CD        30.4260   27.3340   54.9790 C.3   196  ARG196      0.2205
    107  NE        31.0340   28.4000   54.1910 N.pl3 196  ARG196     -0.0865
    108  CZ        30.8460   29.7040   54.3900 C.cat 196  ARG196      0.5346
    109  NH1       30.0360   30.1430   55.3480 N.pl3 196  ARG196      0.1354
    110  NH2       31.4740   30.5790   53.6140 N.pl3 196  ARG196      0.1354
    111  N         35.3730   27.5910   52.0410 N.3   198  PHE198     -0.1227
    112  CA        35.5590   28.6420   51.0410 C.3   198  PHE198      0.1736
    113  C         34.7010   29.8860   51.3260 C.2   198  PHE198      0.2595
    114  O         33.9600   29.9250   52.3110 O.2   198  PHE198     -0.2718
    115  CB        35.2870   28.0420   49.6510 C.3   198  PHE198      0.0547
    116  CG        35.7080   28.9220   48.5030 C.ar  198  PHE198     -0.0202
    117  CD1       37.0260   29.3540   48.3820 C.ar  198  PHE198     -0.0042
    118  CD2       34.7820   29.3210   47.5450 C.ar  198  PHE198     -0.0042
    119  CE1       37.4120   30.1760   47.3260 C.ar  198  PHE198     -0.0003
    120  CE2       35.1600   30.1380   46.4850 C.ar  198  PHE198     -0.0003
    121  CZ        36.4760   30.5630   46.3730 C.ar  198  PHE198     -0.0000
    122  N         34.8460   30.9080   50.4820 N.am  199  ALA199     -0.1966
    123  CA        34.1700   32.1950   50.6460 C.3   199  ALA199      0.1728
    124  C         32.6470   32.0890   50.7310 C.2   199  ALA199      0.2616
    125  O         32.0420   31.1420   50.2220 O.2   199  ALA199     -0.2715
    126  CB        34.5620   33.1400   49.4980 C.3   199  ALA199      0.0334
    127  N         32.0480   33.0880   51.3760 N.am  200  ASP200     -0.1971
    128  CA        30.6040   33.1710   51.5490 C.3   200  ASP200      0.1709
    129  C         29.8930   33.1420   50.2090 C.2   200  ASP200      0.2293
    130  O         30.2720   33.8550   49.2830 O.2   200  ASP200     -0.2864
    131  CB        30.2170   34.4610   52.2810 C.3   200  ASP200      0.1436
    132  CG        30.6740   34.4860   53.7300 C.2   200  ASP200      0.3671
    133  OD1       31.2330   33.4750   54.2180 O.co2 200  ASP200     -0.2456
    134  OD2       30.4720   35.5330   54.3830 O.co2 200  ASP200     -0.2456
    135  N         25.5190   27.8270   51.8750 N.3   236  MET236     -0.1245
    136  CA        24.0640   27.7000   51.8030 C.3   236  MET236      0.1570
    137  C         23.5010   27.4760   50.4010 C.2   236  MET236      0.2261
    138  O         24.0860   27.8970   49.4010 O.2   236  MET236     -0.2867
    139  CB        23.4210   28.9630   52.3830 C.3   236  MET236      0.0387
    140  CG        23.6030   29.1210   53.8890 C.3   236  MET236      0.0595
    141  SD        23.4240   30.8230   54.4510 S.3   236  MET236     -0.1393
    142  CE        25.0010   31.4990   53.9380 C.3   236  MET236      0.0692
@<TRIPOS>BOND
     1   121   120   ar
     2   121   119   ar
     3   120   118   ar
     4   119   117   ar
     5   118   116   ar
     6   117   116   ar
     7   116   115    1
     8   130   129    2
     9   138   137    2
    10   126   123    1
    11   115   112    1
    12   129   128    1
    13   125   124    2
    14   137   136    1
    15   122   123    1
    16   122   113   am
    17   123   124    1
    18   124   127   am
    19   112   113    1
    20   112   111    1
    21   113   114    2
    22   127   128    1
    23   128   131    1
    24   136   135    1
    25   136   139    1
    26   131   132    1
    27   139   140    1
    28   110   108    1
    29   132   133   ar
    30   132   134   ar
    31   140   141    1
    32   142   141    1
    33   107   108    2
    34   107   106    1
    35   108   109    1
    36    86    85    2
    37   106   105    1
    38   102   101    1
    39   102   103    2
    40     4     3    2
    41     3     2    1
    42    84    87    1
    43    84    85    1
    44    84    83    1
    45     7     9   ar
    46     7     6   ar
    47   101   104    1
    48   101   100    1
    49    85    88   am
    50     9    10   ar
    51   104   105    1
    52     6     5    1
    53     6     8   ar
    54     2     5    1
    55     2     1    1
    56    10    12   ar
    57    10     8   ar
    58    88    89    1
    59    12    14   ar
    60    90    89    1
    61    90    91    2
    62    89    92    1
    63     8    11   ar
    64    62    61    1
    65    14    13   ar
    66    80    79    2
    67    11    13   ar
    68    95    97   ar
    69    95    93   ar
    70    97    98   ar
    71    92    93    1
    72    98    99    1
    73    98    96   ar
    74    93    94   ar
    75    94    96   ar
    76    79    78    1
    77    61    60    1
    78    78    81    1
    79    78    77    1
    80    81    82    1
    81    22    20   ar
    82    20    21   ar
    83    20    19    1
    84    69    68   ar
    85    76    48    1
    86    76    75    1
    87    60    59    1
    88    48    47    1
    89    47    44    1
    90    19    16    1
    91    70    68   ar
    92    46    45    2
    93    68    67    1
    94    59    58    1
    95    45    44    1
    96    45    49   am
    97    44    43    1
    98    49    50    1
    99    16    15    1
   100    16    17    1
   101    50    53    1
   102    50    51    1
   103    75    72    1
   104    27    24    1
   105    27    28    1
   106    72    71    1
   107    72    73    1
   108    23    17   am
   109    23    24    1
   110    39    37   ar
   111    39    41   ar
   112    67    64    1
   113    58    55    1
   114    30    28   ar
   115    42    41    1
   116    64    65    1
   117    64    63    1
   118    26    25    2
   119    37    36   ar
   120    17    18    2
   121    41    40   ar
   122    24    25    1
   123    28    29   ar
   124    65    66    2
   125    51    52    2
   126    73    74    2
   127    55    56    1
   128    55    54    1
   129    36    35    1
   130    36    38   ar
   131    56    57    2
   132    40    38   ar
   133    35    32    1
   134    32    31    1
   135    32    33    1
   136    33    34    2
