@<TRIPOS>MOLECULE
tmp/3lxeB00.pdb
 221 219 0 0 0
SMALL
GASTEIGER

@<TRIPOS>ATOM
      1  N         25.9780   26.7810   44.8540 N.3     1  TRP1       -0.1241
      2  CA        25.5850   26.2250   46.1810 C.3     1  TRP1        0.1605
      3  C         24.2650   26.7880   46.6830 C.2     1  TRP1        0.2264
      4  O         23.8800   27.9050   46.3400 O.2     1  TRP1       -0.2867
      5  CB        26.6760   26.4930   47.2210 C.3     1  TRP1        0.0550
      6  CG        27.6200   27.6080   46.8720 C.ar    1  TRP1        0.0003
      7  CD1       28.9610   27.4970   46.6540 C.ar    1  TRP1        0.0946
      8  CD2       27.3050   29.0030   46.7250 C.ar    1  TRP1        0.0152
      9  NE1       29.5060   28.7300   46.3850 N.ar    1  TRP1       -0.2442
     10  CE2       28.5130   29.6740   46.4240 C.ar    1  TRP1        0.0810
     11  CE3       26.1230   29.7510   46.8210 C.ar    1  TRP1        0.0012
     12  CZ2       28.5750   31.0610   46.2160 C.ar    1  TRP1        0.0191
     13  CZ3       26.1830   31.1320   46.6130 C.ar    1  TRP1        0.0001
     14  CH2       27.4030   31.7690   46.3170 C.ar    1  TRP1        0.0015
     15  N         20.5900   25.5970   49.5200 N.3     3  TYR3       -0.1241
     16  CA        20.0840   24.8680   50.6760 C.3     3  TYR3        0.1605
     17  C         19.0500   23.8220   50.2750 C.2     3  TYR3        0.2264
     18  O         18.3120   23.3110   51.1170 O.2     3  TYR3       -0.2867
     19  CB        19.4810   25.8410   51.6930 C.3     3  TYR3        0.0534
     20  CG        20.4860   26.8380   52.2260 C.ar    3  TYR3       -0.0201
     21  CD1       20.8840   27.9340   51.4600 C.ar    3  TYR3       -0.0009
     22  CD2       21.0800   26.6540   53.4740 C.ar    3  TYR3       -0.0009
     23  CE1       21.8540   28.8230   51.9230 C.ar    3  TYR3        0.0417
     24  CE2       22.0480   27.5320   53.9450 C.ar    3  TYR3        0.0417
     25  CZ        22.4310   28.6130   53.1630 C.ar    3  TYR3        0.1957
     26  OH        23.4000   29.4720   53.6180 O.3     3  TYR3       -0.2866
     27  N         21.3560   37.6970   46.4970 N.3    58  VAL58      -0.1245
     28  CA        22.3580   36.7380   46.0510 C.3    58  VAL58       0.1561
     29  C         21.8180   35.3410   45.7690 C.2    58  VAL58       0.2260
     30  O         22.5650   34.3660   45.8040 O.2    58  VAL58      -0.2867
     31  CB        23.5280   36.6390   47.0590 C.3    58  VAL58       0.0252
     32  CG1       24.2720   37.9640   47.1060 C.3    58  VAL58       0.0019
     33  CG2       23.0060   36.2810   48.4320 C.3    58  VAL58       0.0019
     34  N         20.3610   32.8210   47.2780 N.3    60  HIS60      -0.1226
     35  CA        20.0070   32.0320   48.4530 C.3    60  HIS60       0.1752
     36  C         19.6470   32.9360   49.6290 C.2    60  HIS60       0.2597
     37  O         19.1140   32.4800   50.6460 O.2    60  HIS60      -0.2718
     38  CB        21.1740   31.1230   48.8610 C.3    60  HIS60       0.0759
     39  CG        22.4290   31.8660   49.2010 C.ar   60  HIS60       0.0818
     40  ND1       23.3490   32.2520   48.2480 N.ar   60  HIS60      -0.2268
     41  CD2       22.9060   32.3120   50.3860 C.ar   60  HIS60       0.1154
     42  CE1       24.3380   32.9030   48.8330 C.ar   60  HIS60       0.1986
     43  NE2       24.0940   32.9530   50.1300 N.ar   60  HIS60      -0.2212
     44  N         19.9540   34.2190   49.4930 N.am   61  SER61      -0.1938
     45  CA        19.6670   35.1850   50.5440 C.3    61  SER61       0.2055
     46  C         19.8690   36.5790   49.9670 C.2    61  SER61       0.2643
     47  O         19.8450   36.7670   48.7510 O.2    61  SER61      -0.2714
     48  CB        20.6170   34.9570   51.7260 C.3    61  SER61       0.2130
     49  OG        20.3470   35.8400   52.8010 O.3    61  SER61      -0.2179
     50  N         20.0550   37.5570   50.8420 N.am   62  PHE62      -0.1959
     51  CA        20.2950   38.9220   50.4010 C.3    62  PHE62       0.1771
     52  C         21.1770   39.5410   51.4690 C.2    62  PHE62       0.2619
     53  O         21.1800   39.0770   52.6120 O.2    62  PHE62      -0.2715
     54  CB        18.9700   39.7000   50.2710 C.3    62  PHE62       0.0574
     55  CG        18.4260   40.2260   51.5810 C.ar   62  PHE62      -0.0200
     56  CD1       18.8210   41.4740   52.0620 C.ar   62  PHE62      -0.0042
     57  CD2       17.5340   39.4710   52.3370 C.ar   62  PHE62      -0.0042
     58  CE1       18.3420   41.9620   53.2790 C.ar   62  PHE62      -0.0003
     59  CE2       17.0480   39.9510   53.5620 C.ar   62  PHE62      -0.0003
     60  CZ        17.4550   41.1980   54.0300 C.ar   62  PHE62      -0.0000
     61  N         21.9500   40.5560   51.1040 N.am   63  HIS63      -0.1973
     62  CA        22.7810   41.2090   52.0980 C.3    63  HIS63       0.1656
     63  C         22.9920   42.6920   51.8270 C.2    63  HIS63       0.2291
     64  O         22.8550   43.1670   50.6950 O.2    63  HIS63      -0.2864
     65  CB        24.1180   40.4590   52.2920 C.3    63  HIS63       0.0771
     66  CG        24.9290   40.2800   51.0460 C.ar   63  HIS63       0.0820
     67  ND1       25.6230   41.3110   50.4500 N.ar   63  HIS63      -0.2267
     68  CD2       25.1980   39.1730   50.3110 C.ar   63  HIS63       0.1154
     69  CE1       26.2860   40.8490   49.4040 C.ar   63  HIS63       0.1986
     70  NE2       26.0450   39.5540   49.2970 N.ar   63  HIS63      -0.2212
     71  N         31.3300   45.6100   57.2740 N.3    87  PHE87      -0.1227
     72  CA        31.2280   45.5600   55.8220 C.3    87  PHE87       0.1736
     73  C         29.9260   44.9570   55.3280 C.2    87  PHE87       0.2595
     74  O         29.5780   45.1180   54.1570 O.2    87  PHE87      -0.2718
     75  CB        32.4190   44.8230   55.1800 C.3    87  PHE87       0.0547
     76  CG        32.4290   43.3290   55.4060 C.ar   87  PHE87      -0.0202
     77  CD1       32.9570   42.7910   56.5730 C.ar   87  PHE87      -0.0042
     78  CD2       31.9440   42.4630   54.4280 C.ar   87  PHE87      -0.0042
     79  CE1       33.0060   41.4060   56.7700 C.ar   87  PHE87      -0.0003
     80  CE2       31.9840   41.0750   54.6100 C.ar   87  PHE87      -0.0003
     81  CZ        32.5210   40.5460   55.7860 C.ar   87  PHE87      -0.0000
     82  N         29.1750   44.3140   56.2190 N.am   88  GLN88      -0.1979
     83  CA        27.9330   43.6880   55.7940 C.3    88  GLN88       0.1601
     84  C         27.0630   43.1420   56.9230 C.2    88  GLN88       0.2287
     85  O         27.5280   42.9200   58.0420 O.2    88  GLN88      -0.2864
     86  CB        28.2810   42.5310   54.8450 C.3    88  GLN88       0.0394
     87  CG        27.1090   41.6850   54.3790 C.3    88  GLN88       0.0908
     88  CD        27.5480   40.3490   53.7970 C.2    88  GLN88       0.2608
     89  OE1       28.3350   40.2900   52.8490 O.2    88  GLN88      -0.2717
     90  NE2       27.0390   39.2700   54.3690 N.am   88  GLN88      -0.0878
     91  N         23.3200   40.5230   57.1500 N.3    90  HIS90      -0.1241
     92  CA        22.3020   39.7750   56.4330 C.3    90  HIS90       0.1621
     93  C         21.5490   38.9470   57.4630 C.2    90  HIS90       0.2264
     94  O         21.8650   38.9950   58.6560 O.2    90  HIS90      -0.2867
     95  CB        22.9400   38.8520   55.3850 C.3    90  HIS90       0.0745
     96  CG        23.9430   37.8920   55.9510 C.ar   90  HIS90       0.0817
     97  ND1       25.2900   38.1780   56.0200 N.ar   90  HIS90      -0.2268
     98  CD2       23.7900   36.6690   56.5130 C.ar   90  HIS90       0.1154
     99  CE1       25.9230   37.1740   56.6000 C.ar   90  HIS90       0.1986
    100  NE2       25.0370   36.2460   56.9090 N.ar   90  HIS90      -0.2212
    101  N         19.2980   35.0330   58.2930 N.3    92  HIS92      -0.1241
    102  CA        19.0950   33.6240   57.9780 C.3    92  HIS92       0.1621
    103  C         17.7010   33.3480   58.5330 C.2    92  HIS92       0.2264
    104  O         17.3200   33.9130   59.5630 O.2    92  HIS92      -0.2867
    105  CB        20.1270   32.7460   58.6900 C.3    92  HIS92       0.0745
    106  CG        21.5150   32.9000   58.1550 C.ar   92  HIS92       0.0817
    107  ND1       21.9900   32.1620   57.0920 N.ar   92  HIS92      -0.2268
    108  CD2       22.5210   33.7330   58.5130 C.ar   92  HIS92       0.1154
    109  CE1       23.2280   32.5330   56.8190 C.ar   92  HIS92       0.1986
    110  NE2       23.5740   33.4850   57.6670 N.ar   92  HIS92      -0.2212
    111  N         23.1770   38.5230   61.1990 N.3   115  HIS115     -0.1241
    112  CA        24.6340   38.4150   61.2300 C.3   115  HIS115      0.1621
    113  C         25.2210   39.7410   60.7590 C.2   115  HIS115      0.2264
    114  O         24.9080   40.1960   59.6630 O.2   115  HIS115     -0.2867
    115  CB        25.0990   37.2770   60.3120 C.3   115  HIS115      0.0745
    116  CG        24.8650   35.9070   60.8760 C.ar  115  HIS115      0.0817
    117  ND1       24.9680   34.7590   60.1160 N.ar  115  HIS115     -0.2268
    118  CD2       24.5610   35.4990   62.1320 C.ar  115  HIS115      0.1154
    119  CE1       24.7350   33.7050   60.8790 C.ar  115  HIS115      0.1986
    120  NE2       24.4850   34.1260   62.1060 N.ar  115  HIS115     -0.2212
    121  N         28.7190   41.3830   59.9570 N.3   117  ALA117     -0.1245
    122  CA        30.1150   41.0280   59.6990 C.3   117  ALA117      0.1562
    123  C         31.1260   42.1730   59.6060 C.2   117  ALA117      0.2260
    124  O         30.8240   43.2530   59.0940 O.2   117  ALA117     -0.2867
    125  CB        30.1810   40.1780   58.4320 C.3   117  ALA117      0.0290
    126  N         38.8950   42.9840   52.7070 N.3   127  LEU127     -0.1245
    127  CA        38.0890   41.8350   53.0910 C.3   127  LEU127      0.1561
    128  C         38.6690   40.6010   52.4050 C.2   127  LEU127      0.2260
    129  O         38.8380   39.5530   53.0260 O.2   127  LEU127     -0.2867
    130  CB        36.6360   42.0360   52.6510 C.3   127  LEU127      0.0270
    131  CG        35.7480   40.7880   52.6670 C.3   127  LEU127      0.0019
    132  CD1       35.5690   40.3100   54.1000 C.3   127  LEU127      0.0001
    133  CD2       34.4060   41.0990   52.0330 C.3   127  LEU127      0.0001
    134  N         39.5720   37.6280   54.6960 N.3   131  ALA131     -0.1245
    135  CA        38.5580   36.5800   54.6060 C.3   131  ALA131      0.1562
    136  C         39.0000   35.1530   54.9180 C.2   131  ALA131      0.2260
    137  O         38.2020   34.3590   55.4170 O.2   131  ALA131     -0.2867
    138  CB        37.8920   36.6210   53.2370 C.3   131  ALA131      0.0290
    139  N         38.0570   37.6670   60.4370 N.3   137  LEU137     -0.1245
    140  CA        36.6580   38.0730   60.5020 C.3   137  LEU137      0.1561
    141  C         36.0340   38.0110   61.9010 C.2   137  LEU137      0.2260
    142  O         36.3960   37.1770   62.7300 O.2   137  LEU137     -0.2867
    143  CB        35.8260   37.2190   59.5390 C.3   137  LEU137      0.0270
    144  CG        36.2780   37.1470   58.0770 C.3   137  LEU137      0.0019
    145  CD1       35.2690   36.3190   57.2790 C.3   137  LEU137      0.0001
    146  CD2       36.3910   38.5500   57.4800 C.3   137  LEU137      0.0001
    147  N         32.0430   38.2760   63.4540 N.3   139  VAL139     -0.1245
    148  CA        30.6280   38.3960   63.1430 C.3   139  VAL139      0.1561
    149  C         29.7690   38.3400   64.3930 C.2   139  VAL139      0.2260
    150  O         29.9150   37.4370   65.2180 O.2   139  VAL139     -0.2867
    151  CB        30.1620   37.2780   62.1810 C.3   139  VAL139      0.0252
    152  CG1       28.7190   37.5290   61.7520 C.3   139  VAL139      0.0019
    153  CG2       31.0710   37.2170   60.9600 C.3   139  VAL139      0.0019
    154  N         32.5820   30.6660   58.3940 N.3   194  LEU194     -0.1231
    155  CA        31.4850   31.2190   57.6200 C.3   194  LEU194      0.1693
    156  C         30.4910   30.0630   57.5810 C.2   194  LEU194      0.2593
    157  O         30.9010   28.8980   57.5420 O.2   194  LEU194     -0.2718
    158  CB        31.9500   31.5610   56.1970 C.3   194  LEU194      0.0284
    159  CG        33.1020   32.5620   56.0510 C.3   194  LEU194      0.0019
    160  CD1       33.4340   32.7520   54.5690 C.3   194  LEU194      0.0001
    161  CD2       32.7210   33.8970   56.6850 C.3   194  LEU194      0.0001
    162  N         29.1970   30.3620   57.6010 N.am  195  THR195     -0.1939
    163  CA        28.1940   29.3030   57.5750 C.3   195  THR195      0.2028
    164  C         27.7140   29.0100   56.1600 C.2   195  THR195      0.2642
    165  O         26.7660   28.2520   55.9630 O.2   195  THR195     -0.2714
    166  CB        26.9740   29.6540   58.4370 C.3   195  THR195      0.1808
    167  OG1       26.2970   30.7800   57.8670 O.3   195  THR195     -0.2208
    168  CG2       27.4100   29.9820   59.8570 C.3   195  THR195      0.0379
    169  N         28.3780   29.6210   55.1860 N.am  196  HIS196     -0.1959
    170  CA        28.0570   29.4340   53.7760 C.3   196  HIS196      0.1772
    171  C         29.3810   29.2790   53.0260 C.2   196  HIS196      0.2462
    172  O         30.3890   29.8640   53.4200 O.2   196  HIS196     -0.2730
    173  CB        27.3050   30.6580   53.2300 C.3   196  HIS196      0.0785
    174  CG        26.7830   30.4750   51.8390 C.ar  196  HIS196      0.0821
    175  ND1       25.6450   29.7450   51.5610 N.ar  196  HIS196     -0.2267
    176  CD2       27.2650   30.8880   50.6430 C.ar  196  HIS196      0.1154
    177  CE1       25.4510   29.7160   50.2530 C.ar  196  HIS196      0.1986
    178  NE2       26.4200   30.4020   49.6740 N.ar  196  HIS196     -0.2212
    179  N         29.4020   28.4750   51.9480 N.am  197  PRO197     -0.2716
    180  CA        30.6500   28.3010   51.1930 C.3   197  PRO197      0.1521
    181  C         31.2680   29.6720   50.9280 C.2   197  PRO197      0.2440
    182  O         30.5430   30.6440   50.7090 O.2   197  PRO197     -0.2731
    183  CB        30.1800   27.6140   49.9180 C.3   197  PRO197      0.0310
    184  CG        29.0800   26.7310   50.4210 C.3   197  PRO197      0.0237
    185  CD        28.3240   27.6390   51.3850 C.3   197  PRO197      0.0939
    186  N         32.6090   29.7680   50.8970 N.am  198  PRO198     -0.2727
    187  CA        33.6520   28.7490   51.0770 C.3   198  PRO198      0.1402
    188  C         33.8840   28.1930   52.4840 C.2   198  PRO198      0.2269
    189  O         34.8630   27.4820   52.7140 O.2   198  PRO198     -0.2865
    190  CB        34.8890   29.4450   50.5270 C.3   198  PRO198      0.0296
    191  CG        34.6790   30.8430   50.9910 C.3   198  PRO198      0.0237
    192  CD        33.2190   31.0850   50.6490 C.3   198  PRO198      0.0939
    193  N         36.2960   33.0710   61.2650 N.3   203  VAL203     -0.1245
    194  CA        35.3950   33.8950   62.0610 C.3   203  VAL203      0.1561
    195  C         35.4180   33.7180   63.5690 C.2   203  VAL203      0.2260
    196  O         35.3850   32.5940   64.0850 O.2   203  VAL203     -0.2867
    197  CB        33.9200   33.6870   61.6160 C.3   203  VAL203      0.0252
    198  CG1       32.9890   34.5860   62.4350 C.3   203  VAL203      0.0019
    199  CG2       33.7720   33.9720   60.1300 C.3   203  VAL203      0.0019
    200  N         33.1220   34.3420   66.3720 N.3   205  TRP205     -0.1241
    201  CA        31.7140   34.6260   66.5870 C.3   205  TRP205      0.1605
    202  C         31.4000   35.3150   67.8990 C.2   205  TRP205      0.2264
    203  O         31.9520   34.9780   68.9510 O.2   205  TRP205     -0.2867
    204  CB        30.8950   33.3430   66.4950 C.3   205  TRP205      0.0550
    205  CG        30.7000   32.8910   65.0880 C.ar  205  TRP205      0.0003
    206  CD1       31.4590   31.9960   64.3960 C.ar  205  TRP205      0.0946
    207  CD2       29.7110   33.3740   64.1760 C.ar  205  TRP205      0.0152
    208  NE1       31.0030   31.8910   63.1010 N.ar  205  TRP205     -0.2442
    209  CE2       29.9290   32.7280   62.9410 C.ar  205  TRP205      0.0810
    210  CE3       28.6590   34.2950   64.2830 C.ar  205  TRP205      0.0012
    211  CZ2       29.1330   32.9730   61.8150 C.ar  205  TRP205      0.0191
    212  CZ3       27.8680   34.5390   63.1610 C.ar  205  TRP205      0.0001
    213  CH2       28.1110   33.8790   61.9470 C.ar  205  TRP205      0.0015
    214  N         17.4630   29.1970   54.5820 N.3   240  ASN240     -0.1240
    215  CA        18.8840   29.3060   54.2890 C.3   240  ASN240      0.1653
    216  C         19.7510   29.2060   55.5370 C.2   240  ASN240      0.2266
    217  O         20.7890   29.8700   55.6390 O.2   240  ASN240     -0.2867
    218  CB        19.1570   30.6340   53.5800 C.3   240  ASN240      0.1155
    219  CG        18.6020   31.8210   54.3450 C.2   240  ASN240      0.2627
    220  OD1       18.3440   31.7300   55.5460 O.2   240  ASN240     -0.2716
    221  ND2       18.4260   32.9440   53.6560 N.am  240  ASN240     -0.0877
@<TRIPOS>BOND
     1     1     2    1
     2    29    30    2
     3    29    28    1
     4    28    27    1
     5    28    31    1
     6     2     3    1
     7     2     5    1
     8    12    14   ar
     9    12    10   ar
    10    14    13   ar
    11     4     3    2
    12     9    10   ar
    13     9     7   ar
    14    10     8   ar
    15    13    11   ar
    16     7     6   ar
    17     8    11   ar
    18     8     6   ar
    19     6     5    1
    20    31    32    1
    21    31    33    1
    22    34    35    1
    23    40    42   ar
    24    40    39   ar
    25    35    38    1
    26    35    36    1
    27    47    46    2
    28    42    43   ar
    29    38    39    1
    30    39    41   ar
    31    70    69   ar
    32    70    68   ar
    33    69    67   ar
    34    44    36   am
    35    44    45    1
    36    15    16    1
    37    36    37    2
    38   178   177   ar
    39   178   176   ar
    40   183   184    1
    41   183   180    1
    42    46    45    1
    43    46    50   am
    44    43    41   ar
    45   177   175   ar
    46    54    51    1
    47    54    55    1
    48    17    16    1
    49    17    18    2
    50    68    66   ar
    51    51    50    1
    52    51    52    1
    53   184   185    1
    54    67    66   ar
    55   190   191    1
    56   190   187    1
    57    45    48    1
    58   176   174   ar
    59   192   186    1
    60   192   191    1
    61    16    19    1
    62    64    63    2
    63   182   181    2
    64   186   181   am
    65   186   187    1
    66   181   180    1
    67    66    65    1
    68   187   188    1
    69    61    52   am
    70    61    62    1
    71   180   179    1
    72   185   179    1
    73    21    23   ar
    74    21    20   ar
    75    52    53    2
    76   175   174   ar
    77    55    56   ar
    78    55    57   ar
    79    19    20    1
    80    48    49    1
    81    63    62    1
    82   174   173    1
    83    23    25   ar
    84   179   171   am
    85   133   131    1
    86    56    58   ar
    87    62    65    1
    88    20    22   ar
    89    57    59   ar
    90   128   129    2
    91   128   127    1
    92   188   189    2
    93   130   131    1
    94   130   127    1
    95   131   132    1
    96   126   127    1
    97    89    88    2
    98   171   172    2
    99   171   170    1
   100    25    26    1
   101    25    24   ar
   102   173   170    1
   103   138   135    1
   104    58    60   ar
   105    22    24   ar
   106    59    60   ar
   107   218   215    1
   108   218   219    1
   109   221   219   am
   110   170   169    1
   111    88    90   am
   112    88    87    1
   113    74    73    2
   114   215   214    1
   115   215   216    1
   116   219   220    2
   117    87    86    1
   118    78    80   ar
   119    78    76   ar
   120   160   159    1
   121   135   134    1
   122   135   136    1
   123    80    81   ar
   124    86    83    1
   125   136   137    2
   126    75    76    1
   127    75    72    1
   128   169   164   am
   129    73    72    1
   130    73    82   am
   131    95    96    1
   132    95    92    1
   133    76    77   ar
   134   216   217    2
   135    81    79   ar
   136    83    82    1
   137    83    84    1
   138    72    71    1
   139    96    97   ar
   140    96    98   ar
   141   165   164    2
   142    97    99   ar
   143   159   158    1
   144   159   161    1
   145   164   163    1
   146   158   155    1
   147    92    91    1
   148    92    93    1
   149    98   100   ar
   150    77    79   ar
   151    99   100   ar
   152   109   107   ar
   153   109   110   ar
   154    84    85    2
   155   107   106   ar
   156   145   144    1
   157    93    94    2
   158   146   144    1
   159   157   156    2
   160   163   162    1
   161   163   166    1
   162   156   162   am
   163   156   155    1
   164   155   154    1
   165   110   108   ar
   166   167   166    1
   167   102   101    1
   168   102   103    1
   169   102   105    1
   170   144   143    1
   171   106   108   ar
   172   106   105    1
   173   125   122    1
   174   166   168    1
   175   103   104    2
   176   124   123    2
   177   143   140    1
   178   123   122    1
   179   114   113    2
   180   122   121    1
   181   117   116   ar
   182   117   119   ar
   183   199   197    1
   184   115   116    1
   185   115   112    1
   186   139   140    1
   187   140   141    1
   188   113   112    1
   189   116   118   ar
   190   119   120   ar
   191   153   151    1
   192   111   112    1
   193   193   194    1
   194   197   194    1
   195   197   198    1
   196   152   151    1
   197   211   213   ar
   198   211   209   ar
   199   141   142    2
   200   213   212   ar
   201   194   195    1
   202   120   118   ar
   203   151   148    1
   204   209   208   ar
   205   209   207   ar
   206   208   206   ar
   207   148   147    1
   208   148   149    1
   209   212   210   ar
   210   195   196    2
   211   207   210   ar
   212   207   205   ar
   213   149   150    2
   214   206   205   ar
   215   205   204    1
   216   200   201    1
   217   204   201    1
   218   201   202    1
   219   202   203    2
