@<TRIPOS>MOLECULE
tmp/3lxgA00.pdb
 146 141 0 0 0
SMALL
GASTEIGER

@<TRIPOS>ATOM
      1  N          8.2040    9.0690   -3.3470 N.3    62  TYR62      -0.1227
      2  CA         9.5570    9.6180   -3.4870 C.3    62  TYR62       0.1736
      3  C         10.0760   10.3260   -2.2470 C.2    62  TYR62       0.2595
      4  O         11.1240    9.9610   -1.7430 O.2    62  TYR62      -0.2718
      5  CB         9.6410   10.5680   -4.6880 C.3    62  TYR62       0.0548
      6  CG        10.9900   11.2740   -4.7870 C.ar   62  TYR62      -0.0200
      7  CD1       12.1530   10.5710   -5.1070 C.ar   62  TYR62      -0.0009
      8  CD2       11.0980   12.6380   -4.5450 C.ar   62  TYR62      -0.0009
      9  CE1       13.3800   11.2170   -5.1850 C.ar   62  TYR62       0.0417
     10  CE2       12.3110   13.2900   -4.6170 C.ar   62  TYR62       0.0417
     11  CZ        13.4480   12.5850   -4.9330 C.ar   62  TYR62       0.1957
     12  OH        14.6480   13.2580   -5.0090 O.3    62  TYR62      -0.2866
     13  N          9.3580   11.3540   -1.7890 N.am   63  HIS63      -0.1975
     14  CA         9.7260   12.1170   -0.5950 C.3    63  HIS63       0.1656
     15  C          9.4100   11.3240    0.6710 C.2    63  HIS63       0.2291
     16  O          8.6070   11.7410    1.5090 O.2    63  HIS63      -0.2864
     17  CB         9.0170   13.4750   -0.5730 C.3    63  HIS63       0.0771
     18  CG         9.5110   14.4270   -1.6190 C.ar   63  HIS63       0.0820
     19  ND1        8.8750   14.5990   -2.8250 N.ar   63  HIS63      -0.2267
     20  CD2       10.5850   15.2530   -1.6390 C.ar   63  HIS63       0.1154
     21  CE1        9.5330   15.4950   -3.5420 C.ar   63  HIS63       0.1986
     22  NE2       10.5760   15.9030   -2.8460 N.ar   63  HIS63      -0.2212
     23  N         13.5190   24.5990   -3.3020 N.3   173  LEU173     -0.1245
     24  CA        14.1950   24.8140   -4.5710 C.3   173  LEU173      0.1561
     25  C         13.8970   26.2110   -5.1680 C.2   173  LEU173      0.2260
     26  O         14.6560   26.7230   -6.0120 O.2   173  LEU173     -0.2867
     27  CB        13.7850   23.6860   -5.5280 C.3   173  LEU173      0.0270
     28  CG        14.7080   23.2370   -6.6610 C.3   173  LEU173      0.0019
     29  CD1       16.1540   23.0370   -6.1830 C.3   173  LEU173      0.0001
     30  CD2       14.1440   21.9510   -7.2760 C.3   173  LEU173      0.0001
     31  N         19.8820   16.9550   -1.9340 N.3   212  ASP212     -0.1225
     32  CA        18.4690   16.7220   -2.1900 C.3   212  ASP212      0.1805
     33  C         18.1990   16.2290   -3.6180 C.2   212  ASP212      0.2597
     34  O         17.2710   15.4490   -3.8330 O.2   212  ASP212     -0.2718
     35  CB        17.6680   17.9980   -1.9010 C.3   212  ASP212      0.1424
     36  CG        16.2160   17.7220   -1.5380 C.2   212  ASP212      0.3668
     37  OD1       15.8260   16.5390   -1.3830 O.co2 212  ASP212     -0.2456
     38  OD2       15.4590   18.7090   -1.4100 O.co2 212  ASP212     -0.2456
     39  N         19.0070   16.6810   -4.5810 N.am  213  LEU213     -0.1979
     40  CA        18.8340   16.3110   -5.9860 C.3   213  LEU213      0.1596
     41  C         19.7140   15.1370   -6.3880 C.2   213  LEU213      0.2287
     42  O         19.7170   14.7360   -7.5540 O.2   213  LEU213     -0.2864
     43  CB        19.1390   17.5060   -6.9000 C.3   213  LEU213      0.0297
     44  CG        18.3820   18.8190   -6.6790 C.3   213  LEU213      0.0022
     45  CD1       18.7970   19.8440   -7.7410 C.3   213  LEU213      0.0001
     46  CD2       16.8700   18.6240   -6.6810 C.3   213  LEU213      0.0001
     47  N         19.6990   12.0610   -6.5520 N.3   215  SER215     -0.1202
     48  CA        19.2050   11.0100   -7.4610 C.3   215  SER215      0.2020
     49  C         19.7820   11.1300   -8.8790 C.2   215  SER215      0.2618
     50  O         19.9710   10.1270   -9.5700 O.2   215  SER215     -0.2717
     51  CB        17.6760   11.0230   -7.5510 C.3   215  SER215      0.2103
     52  OG        17.2390   10.6230   -8.8560 O.3   215  SER215     -0.2182
     53  N         20.0540   12.3560   -9.3090 N.am  216  VAL216     -0.1979
     54  CA        20.5810   12.6130  -10.6540 C.3   216  VAL216      0.1595
     55  C         22.0890   12.3330  -10.7500 C.2   216  VAL216      0.2287
     56  O         22.6510   12.3790  -11.8370 O.2   216  VAL216     -0.2864
     57  CB        20.2670   14.0760  -11.1110 C.3   216  VAL216      0.0276
     58  CG1       18.7870   14.3900  -10.9270 C.3   216  VAL216      0.0022
     59  CG2       21.1040   15.1010  -10.3430 C.3   216  VAL216      0.0022
     60  N         18.9920    6.1710  -11.2280 N.3   223  THR223     -0.1218
     61  CA        18.4540    7.4760  -11.6320 C.3   223  THR223      0.1862
     62  C         17.1400    7.3280  -12.3880 C.2   223  THR223      0.2287
     63  O         16.1360    7.9820  -12.0520 O.2   223  THR223     -0.2866
     64  CB        19.4880    8.2770  -12.5040 C.3   223  THR223      0.1770
     65  OG1       20.6320    8.6320  -11.7060 O.3   223  THR223     -0.2211
     66  CG2       18.8650    9.5510  -13.0840 C.3   223  THR223      0.0375
     67  N         13.2630    8.3580  -11.0480 N.3   227  ALA227     -0.1245
     68  CA        12.4760    9.2650  -11.8940 C.3   227  ALA227      0.1562
     69  C         10.9940    8.8680  -11.9570 C.2   227  ALA227      0.2260
     70  O         10.1310    9.7370  -11.9360 O.2   227  ALA227     -0.2867
     71  CB        13.0780    9.3500  -13.2940 C.3   227  ALA227      0.0290
     72  N          9.3790   10.0880   -8.7980 N.3   230  ILE230     -0.1231
     73  CA         9.2710   11.5490   -8.7950 C.3   230  ILE230      0.1692
     74  C          8.0210   11.9460   -9.5830 C.2   230  ILE230      0.2592
     75  O          7.1670   12.6680   -9.0750 O.2   230  ILE230     -0.2718
     76  CB        10.5630   12.2430   -9.3500 C.3   230  ILE230      0.0266
     77  CG1       11.7520   11.9490   -8.4370 C.3   230  ILE230      0.0019
     78  CG2       10.3960   13.7660   -9.4450 C.3   230  ILE230      0.0020
     79  CD1       13.0830   12.4360   -8.9490 C.3   230  ILE230      0.0001
     80  N          7.8880   11.4260  -10.7990 N.am  231  TYR231     -0.1976
     81  CA         6.7210   11.7460  -11.6270 C.3   231  TYR231      0.1639
     82  C          5.4120   11.1770  -11.1040 C.2   231  TYR231      0.2290
     83  O          4.3650   11.7680  -11.3140 O.2   231  TYR231     -0.2864
     84  CB         6.9680   11.3450  -13.0760 C.3   231  TYR231      0.0560
     85  CG         7.8550   12.3470  -13.7380 C.ar  231  TYR231     -0.0198
     86  CD1        7.3280   13.5330  -14.2440 C.ar  231  TYR231     -0.0009
     87  CD2        9.2310   12.1470  -13.8120 C.ar  231  TYR231     -0.0009
     88  CE1        8.1450   14.4750  -14.8340 C.ar  231  TYR231      0.0417
     89  CE2       10.0590   13.0840  -14.4030 C.ar  231  TYR231      0.0417
     90  CZ         9.5100   14.2510  -14.9120 C.ar  231  TYR231      0.1957
     91  OH        10.3250   15.1920  -15.4980 O.3   231  TYR231     -0.2866
     92  N          4.3250   13.9260   -9.0160 N.3   234  PHE234     -0.1241
     93  CA         3.9550   15.0890   -9.8270 C.3   234  PHE234      0.1605
     94  C          2.6000   14.9030  -10.4600 C.2   234  PHE234      0.2264
     95  O          1.8170   15.8430  -10.5170 O.2   234  PHE234     -0.2867
     96  CB         4.9560   15.3440  -10.9630 C.3   234  PHE234      0.0534
     97  CG         6.3010   15.8410  -10.5160 C.ar  234  PHE234     -0.0203
     98  CD1        6.5000   16.4020   -9.2570 C.ar  234  PHE234     -0.0042
     99  CD2        7.3750   15.7830  -11.3900 C.ar  234  PHE234     -0.0042
    100  CE1        7.7520   16.8620   -8.8750 C.ar  234  PHE234     -0.0003
    101  CE2        8.6240   16.2380  -11.0210 C.ar  234  PHE234     -0.0003
    102  CZ         8.8140   16.7750   -9.7530 C.ar  234  PHE234     -0.0000
    103  N          4.4650   19.2950  -16.6110 N.3   251  MET251     -0.1245
    104  CA         5.2280   18.3620  -15.7740 C.3   251  MET251      0.1570
    105  C          4.3240   17.5010  -14.8780 C.2   251  MET251      0.2261
    106  O          4.6370   16.3550  -14.5700 O.2   251  MET251     -0.2867
    107  CB         6.1860   19.1990  -14.9110 C.3   251  MET251      0.0387
    108  CG         6.9450   18.4790  -13.8130 C.3   251  MET251      0.0595
    109  SD         7.7600   19.6870  -12.7340 S.3   251  MET251     -0.1393
    110  CE         6.5940   19.8360  -11.3780 C.3   251  MET251      0.0692
    111  N         11.2960   17.2880  -20.1790 N.3   263  GLY263     -0.1210
    112  CA        11.2630   17.8400  -18.8280 C.3   263  GLY263      0.1956
    113  C         12.5480   17.5890  -18.0590 C.2   263  GLY263      0.2611
    114  O         12.9880   18.4440  -17.2960 O.2   263  GLY263     -0.2717
    115  N         13.1490   16.4190  -18.2680 N.am  264  GLN264     -0.1979
    116  CA        14.4150   16.0720  -17.6330 C.3   264  GLN264      0.1601
    117  C         15.5870   16.8920  -18.1690 C.2   264  GLN264      0.2287
    118  O         16.3530   17.4660  -17.3800 O.2   264  GLN264     -0.2864
    119  CB        14.6830   14.5650  -17.7480 C.3   264  GLN264      0.0394
    120  CG        13.7850   13.7400  -16.8200 C.3   264  GLN264      0.0908
    121  CD        14.0570   14.0560  -15.3700 C.2   264  GLN264      0.2608
    122  OE1       15.1010   13.6810  -14.8380 O.2   264  GLN264     -0.2717
    123  NE2       13.1390   14.7920  -14.7290 N.am  264  GLN264     -0.0878
    124  N         15.2890   20.1400  -16.6150 N.3   267  PHE267     -0.1227
    125  CA        15.6860   20.1230  -15.2070 C.3   267  PHE267      0.1736
    126  C         17.1890   20.0840  -15.0220 C.2   267  PHE267      0.2595
    127  O         17.7170   20.7990  -14.1740 O.2   267  PHE267     -0.2718
    128  CB        15.0550   18.9370  -14.4820 C.3   267  PHE267      0.0547
    129  CG        15.4220   18.8670  -13.0290 C.ar  267  PHE267     -0.0202
    130  CD1       14.8340   19.7260  -12.1180 C.ar  267  PHE267     -0.0042
    131  CD2       16.3900   17.9820  -12.5800 C.ar  267  PHE267     -0.0042
    132  CE1       15.1780   19.6890  -10.7770 C.ar  267  PHE267     -0.0003
    133  CE2       16.7480   17.9470  -11.2440 C.ar  267  PHE267     -0.0003
    134  CZ        16.1330   18.8030  -10.3410 C.ar  267  PHE267     -0.0000
    135  N         17.8700   19.2390  -15.7980 N.am  268  TYR268     -0.1976
    136  CA        19.3240   19.1140  -15.7130 C.3   268  TYR268      0.1639
    137  C         20.0200   20.3920  -16.1850 C.2   268  TYR268      0.2290
    138  O         20.9860   20.8440  -15.5580 O.2   268  TYR268     -0.2864
    139  CB        19.8370   17.9320  -16.5450 C.3   268  TYR268      0.0560
    140  CG        19.7230   16.5650  -15.8970 C.ar  268  TYR268     -0.0198
    141  CD1       18.4900   15.9290  -15.7740 C.ar  268  TYR268     -0.0009
    142  CD2       20.8560   15.8850  -15.4420 C.ar  268  TYR268     -0.0009
    143  CE1       18.3820   14.6750  -15.1980 C.ar  268  TYR268      0.0417
    144  CE2       20.7550   14.6180  -14.8660 C.ar  268  TYR268      0.0417
    145  CZ        19.5140   14.0200  -14.7450 C.ar  268  TYR268      0.1957
    146  OH        19.3860   12.7670  -14.1780 O.3   268  TYR268     -0.2866
@<TRIPOS>BOND
     1   111   112    1
     2   112   113    1
     3   115   113   am
     4   115   116    1
     5   117   116    1
     6   117   118    2
     7   113   114    2
     8   119   116    1
     9   119   120    1
    10   120   121    1
    11   124   125    1
    12   103   104    1
    13   139   140    1
    14   139   136    1
    15   137   136    1
    16   137   138    2
    17   140   141   ar
    18   140   142   ar
    19   135   136    1
    20   135   126   am
    21   141   143   ar
    22   104   107    1
    23   104   105    1
    24    91    90    1
    25   142   144   ar
    26   121   122    2
    27   121   123   am
    28   125   126    1
    29   125   128    1
    30   143   145   ar
    31   126   127    2
    32    90    88   ar
    33    90    89   ar
    34   107   108    1
    35   105   106    2
    36   144   145   ar
    37    88    86   ar
    38   145   146    1
    39   128   129    1
    40    89    87   ar
    41    86    85   ar
    42   108   109    1
    43    87    85   ar
    44    85    84    1
    45    71    68    1
    46    66    64    1
    47    84    81    1
    48   129   131   ar
    49   129   130   ar
    50   109   110    1
    51   131   133   ar
    52    64    65    1
    53    64    61    1
    54    62    63    2
    55    62    61    1
    56   130   132   ar
    57    69    70    2
    58    69    68    1
    59    68    67    1
    60    56    55    2
    61    61    60    1
    62    81    82    1
    63    81    80    1
    64    99   101   ar
    65    99    97   ar
    66    83    82    2
    67   133   134   ar
    68    57    58    1
    69    57    54    1
    70    57    59    1
    71   101   102   ar
    72    96    97    1
    73    96    93    1
    74    80    74   am
    75   132   134   ar
    76    55    54    1
    77    54    53    1
    78    95    94    2
    79    97    98   ar
    80    94    93    1
    81    93    92    1
    82   102   100   ar
    83    74    75    2
    84    74    73    1
    85    50    49    2
    86    78    76    1
    87    76    73    1
    88    76    77    1
    89    53    49   am
    90    98   100   ar
    91    79    77    1
    92    49    48    1
    93    52    51    1
    94    72    73    1
    95    45    44    1
    96    42    41    2
    97    51    48    1
    98    48    47    1
    99    30    28    1
   100    43    44    1
   101    43    40    1
   102    46    44    1
   103    28    29    1
   104    28    27    1
   105    41    40    1
   106    26    25    2
   107    40    39    1
   108    27    24    1
   109     9     7   ar
   110     9    11   ar
   111    25    24    1
   112     7     6   ar
   113    12    11    1
   114    11    10   ar
   115     6     5    1
   116     6     8   ar
   117     5     2    1
   118    10     8   ar
   119    39    33   am
   120    24    23    1
   121    34    33    2
   122    33    32    1
   123    21    22   ar
   124    21    19   ar
   125     2     1    1
   126     2     3    1
   127    22    20   ar
   128    19    18   ar
   129     3    13   am
   130     3     4    2
   131    32    31    1
   132    32    35    1
   133    35    36    1
   134    13    14    1
   135    20    18   ar
   136    18    17    1
   137    36    38   ar
   138    36    37   ar
   139    14    17    1
   140    14    15    1
   141    15    16    2
