@<TRIPOS>MOLECULE
tmp/3lxkA00.pdb
 158 150 0 0 0
SMALL
GASTEIGER

@<TRIPOS>ATOM
      1  N          1.9260   19.1270   -0.5440 N.3    14  LEU14      -0.1231
      2  CA         1.0890   19.0680    0.6720 C.3    14  LEU14       0.1693
      3  C          1.8720   19.3950    1.9290 C.2    14  LEU14       0.2593
      4  O          1.2990   19.8520    2.9090 O.2    14  LEU14      -0.2718
      5  CB         0.4200   17.6960    0.8110 C.3    14  LEU14       0.0284
      6  CG        -0.5490   17.2770   -0.3010 C.3    14  LEU14       0.0019
      7  CD1       -0.9280   15.7990   -0.1790 C.3    14  LEU14       0.0001
      8  CD2       -1.8020   18.1530   -0.3000 C.3    14  LEU14       0.0001
      9  N          3.1680   19.1290    1.9210 N.am   15  GLY15      -0.1942
     10  CA         4.0090   19.4650    3.0770 C.3    15  GLY15       0.2014
     11  C          5.4170   18.9380    2.9240 C.2    15  GLY15       0.2639
     12  O          5.7590   18.3270    1.9210 O.2    15  GLY15      -0.2714
     13  N          6.2300   19.1640    3.9520 N.am   16  LYS16      -0.1963
     14  CA         7.5970   18.6950    3.9520 C.3    16  LYS16       0.1728
     15  C          8.0810   18.5940    5.3980 C.2    16  LYS16       0.2616
     16  O          7.4800   19.1670    6.3020 O.2    16  LYS16      -0.2715
     17  CB         8.4800   19.6520    3.1590 C.3    16  LYS16       0.0311
     18  CG         8.5030   21.0540    3.7120 C.3    16  LYS16       0.0038
     19  CD         9.3390   21.9670    2.8560 C.3    16  LYS16       0.0206
     20  CE         9.7570   23.2080    3.6350 C.3    16  LYS16       0.1093
     21  NZ         8.5840   23.9110    4.2310 N.3    16  LYS16      -0.1314
     22  N          9.1480   17.8360    5.5910 N.am   17  GLY17      -0.1955
     23  CA         9.7140   17.6290    6.9230 C.3    17  GLY17       0.1869
     24  C         10.8040   16.5920    6.8290 C.2    17  GLY17       0.2309
     25  O         10.8030   15.7750    5.9210 O.2    17  GLY17      -0.2863
     26  N         12.0970   14.9200    3.7070 N.3    20  GLY20      -0.1210
     27  CA        11.0380   14.4370    2.8260 C.3    20  GLY20       0.1956
     28  C         10.0090   15.4840    2.4400 C.2    20  GLY20       0.2613
     29  O          9.9340   16.5580    3.0300 O.2    20  GLY20      -0.2717
     30  N          9.2170   15.1470    1.4230 N.am   21  SER21      -0.1938
     31  CA         8.0710   15.9570    1.0090 C.3    21  SER21       0.2055
     32  C          6.8820   15.0380    0.7390 C.2    21  SER21       0.2642
     33  O          7.0820   13.8940    0.3740 O.2    21  SER21      -0.2714
     34  CB         8.4080   16.7530   -0.2510 C.3    21  SER21       0.2130
     35  OG         8.6560   15.8880   -1.3420 O.3    21  SER21      -0.2179
     36  N          5.6650   15.5280    0.9640 N.am   22  VAL22      -0.1977
     37  CA         4.4420   14.8330    0.5340 C.3    22  VAL22       0.1596
     38  C          3.8010   15.6980   -0.5490 C.2    22  VAL22       0.2287
     39  O          3.6510   16.9170   -0.3710 O.2    22  VAL22      -0.2864
     40  CB         3.4510   14.5720    1.6810 C.3    22  VAL22       0.0276
     41  CG1        2.1740   13.8620    1.1810 C.3    22  VAL22       0.0022
     42  CG2        4.1010   13.7350    2.7970 C.3    22  VAL22       0.0022
     43  N         -1.7440   10.7520   -1.7280 N.3    39  ALA39      -0.1245
     44  CA        -0.6730   11.5310   -1.1180 C.3    39  ALA39       0.1562
     45  C          0.6090   10.7080   -1.2070 C.2    39  ALA39       0.2260
     46  O          0.6420    9.5460   -0.7850 O.2    39  ALA39      -0.2867
     47  CB        -1.0090   11.8820    0.3320 C.3    39  ALA39       0.0290
     48  N          4.7480   10.4390   -0.6880 N.3    41  LYS41      -0.1245
     49  CA         5.9500   10.8770    0.0050 C.3    41  LYS41       0.1561
     50  C          7.1940   10.3550   -0.6950 C.2    41  LYS41       0.2260
     51  O          7.2420    9.2260   -1.1780 O.2    41  LYS41      -0.2867
     52  CB         5.9610   10.4140    1.4600 C.3    41  LYS41       0.0271
     53  CG         7.1560   10.9380    2.2550 C.3    41  LYS41       0.0035
     54  CD         6.9960   10.7490    3.7510 C.3    41  LYS41       0.0206
     55  CE         8.1190   11.4560    4.4930 C.3    41  LYS41       0.1093
     56  NZ         7.9450   11.4080    5.9790 N.3    41  LYS41      -0.1314
     57  N         -2.7630    7.0940    9.2960 N.3    70  VAL70      -0.1245
     58  CA        -3.0030    7.2750    7.8640 C.3    70  VAL70       0.1561
     59  C         -2.8270    5.9450    7.1200 C.2    70  VAL70       0.2260
     60  O         -1.9030    5.1710    7.4120 O.2    70  VAL70      -0.2867
     61  CB        -2.0980    8.3990    7.2340 C.3    70  VAL70       0.0252
     62  CG1       -0.5980    8.0230    7.2670 C.3    70  VAL70       0.0019
     63  CG2       -2.5390    8.7270    5.7980 C.3    70  VAL70       0.0019
     64  N          0.0970    6.9920    0.0590 N.3    88  MET88      -0.1230
     65  CA        -0.8760    7.0020    1.1480 C.3    88  MET88       0.1702
     66  C         -2.2030    7.5590    0.6490 C.2    88  MET88       0.2592
     67  O         -2.2600    8.2200   -0.3950 O.2    88  MET88      -0.2718
     68  CB        -0.3690    7.8790    2.2960 C.3    88  MET88       0.0401
     69  CG         0.9540    7.4170    2.9020 C.3    88  MET88       0.0596
     70  SD         1.6830    8.6330    3.9990 S.3    88  MET88      -0.1393
     71  CE         2.2970    9.8480    2.8390 C.3    88  MET88       0.0692
     72  N         -3.2650    7.3100    1.4080 N.am   89  GLU89      -0.1966
     73  CA        -4.5400    7.9800    1.1690 C.3    89  GLU89       0.1733
     74  C         -4.3640    9.4960    1.2530 C.2    89  GLU89       0.2616
     75  O         -3.5650   10.0020    2.0370 O.2    89  GLU89      -0.2715
     76  CB        -5.6100    7.5260    2.1830 C.3    89  GLU89       0.0429
     77  CG        -5.2480    7.8820    3.6340 C.3    89  GLU89       0.1163
     78  CD        -6.3520    7.5880    4.6270 C.2    89  GLU89       0.3649
     79  OE1       -7.5350    7.5930    4.2230 O.co2  89  GLU89      -0.2457
     80  OE2       -6.0220    7.3470    5.8130 O.co2  89  GLU89      -0.2457
     81  N         -5.1070   10.2090    0.4140 N.am   90  TYR90      -0.1960
     82  CA        -5.1870   11.6530    0.4600 C.3    90  TYR90       0.1771
     83  C         -6.4630   12.0520    1.2030 C.2    90  TYR90       0.2619
     84  O         -7.5670   11.6230    0.8450 O.2    90  TYR90      -0.2715
     85  CB        -5.2210   12.2080   -0.9520 C.3    90  TYR90       0.0574
     86  CG        -5.5330   13.6830   -1.0480 C.ar   90  TYR90      -0.0198
     87  CD1       -4.7770   14.6120   -0.3700 C.ar   90  TYR90      -0.0009
     88  CD2       -6.5810   14.1450   -1.8420 C.ar   90  TYR90      -0.0009
     89  CE1       -5.0530   15.9640   -0.4540 C.ar   90  TYR90       0.0417
     90  CE2       -6.8670   15.4930   -1.9320 C.ar   90  TYR90       0.0417
     91  CZ        -6.0950   16.3920   -1.2480 C.ar   90  TYR90       0.1957
     92  OH        -6.3420   17.7280   -1.3240 O.3    90  TYR90      -0.2866
     93  N         -6.2910   12.8960    2.2150 N.am   91  LEU91      -0.1977
     94  CA        -7.3820   13.4210    3.0000 C.3    91  LEU91       0.1596
     95  C         -7.3580   14.9370    2.8600 C.2    91  LEU91       0.2287
     96  O         -6.5100   15.5970    3.4460 O.2    91  LEU91      -0.2864
     97  CB        -7.2350   12.9650    4.4580 C.3    91  LEU91       0.0297
     98  CG        -7.4700   11.4570    4.6630 C.3    91  LEU91       0.0022
     99  CD1       -7.3810   11.0840    6.1460 C.3    91  LEU91       0.0001
    100  CD2       -8.8230   11.0240    4.0940 C.3    91  LEU91       0.0001
    101  N         -6.6440   18.0430    5.3120 N.3    94  GLY94      -0.1210
    102  CA        -5.2420   18.3410    5.5290 C.3    94  GLY94       0.1956
    103  C         -4.7940   18.3370    6.9760 C.2    94  GLY94       0.2612
    104  O         -5.3770   17.6860    7.8320 O.2    94  GLY94      -0.2717
    105  N         -3.7490   19.1080    7.2350 N.am   95  CYS95      -0.1970
    106  CA        -3.0630   19.0760    8.5000 C.3    95  CYS95       0.1712
    107  C         -3.9210   19.6570    9.6420 C.2    95  CYS95       0.2296
    108  O         -4.6050   20.6610    9.4580 O.2    95  CYS95      -0.2864
    109  CB        -1.7530   19.8400    8.3470 C.3    95  CYS95       0.0983
    110  SG        -0.9280   20.0680    9.8430 S.3    95  CYS95      -0.0798
    111  N          1.4260   19.3300   13.4750 N.3   139  ARG139     -0.1231
    112  CA         1.8370   19.3610   12.0590 C.3   139  ARG139      0.1694
    113  C          1.8470   17.9720   11.3980 C.2   139  ARG139      0.2592
    114  O          1.7850   17.8560   10.1760 O.2   139  ARG139     -0.2718
    115  CB         3.1940   20.0510   11.9070 C.3   139  ARG139      0.0321
    116  CG         4.3320   19.3010   12.5300 C.3   139  ARG139      0.0489
    117  CD         5.6420   20.0710   12.5230 C.3   139  ARG139      0.2205
    118  NE         6.6020   19.3120   13.3210 N.pl3 139  ARG139     -0.0865
    119  CZ         6.9420   19.5810   14.5770 C.cat 139  ARG139      0.5346
    120  NH1        7.8060   18.7800   15.1690 N.pl3 139  ARG139      0.1354
    121  NH2        6.4460   20.6270   15.2540 N.pl3 139  ARG139      0.1354
    122  N          1.9220   16.9180   12.2080 N.am  140  ASN140     -0.1960
    123  CA         1.9070   15.5570   11.6890 C.3   140  ASN140      0.1819
    124  C          0.5850   14.8000   11.8740 C.2   140  ASN140      0.2621
    125  O          0.5360   13.5890   11.6820 O.2   140  ASN140     -0.2715
    126  CB         3.0620   14.7830   12.3070 C.3   140  ASN140      0.1195
    127  CG         4.4040   15.3040   11.8410 C.2   140  ASN140      0.2630
    128  OD1        4.6020   15.5240   10.6470 O.2   140  ASN140     -0.2716
    129  ND2        5.3290   15.5200   12.7800 N.am  140  ASN140     -0.0877
    130  N         -0.4680   15.5160   12.2400 N.am  141  ILE141     -0.1963
    131  CA        -1.8080   14.9330   12.3690 C.3   141  ILE141      0.1727
    132  C         -2.6440   15.4020   11.1860 C.2   141  ILE141      0.2616
    133  O         -2.5730   16.5670   10.7850 O.2   141  ILE141     -0.2715
    134  CB        -2.5000   15.3450   13.7020 C.3   141  ILE141      0.0290
    135  CG1       -1.5980   15.0440   14.9050 C.3   141  ILE141      0.0022
    136  CG2       -3.8920   14.6700   13.8520 C.3   141  ILE141      0.0023
    137  CD1       -1.0980   13.6220   14.9900 C.3   141  ILE141      0.0001
    138  N         -3.4540   14.4910   10.6610 N.am  142  LEU142     -0.1977
    139  CA        -4.2470   14.6960    9.4600 C.3   142  LEU142      0.1596
    140  C         -5.7450   14.6200    9.8000 C.2   142  LEU142      0.2287
    141  O         -6.1490   13.8180   10.6190 O.2   142  LEU142     -0.2864
    142  CB        -3.8740   13.6040    8.4600 C.3   142  LEU142      0.0297
    143  CG        -4.5160   13.5550    7.0680 C.3   142  LEU142      0.0022
    144  CD1       -4.3990   14.9130    6.3530 C.3   142  LEU142      0.0001
    145  CD2       -3.8650   12.4210    6.2360 C.3   142  LEU142      0.0001
    146  N         -0.1910   10.9090   10.7840 N.3   152  ALA152     -0.1231
    147  CA        -0.0230   10.8690    9.3320 C.3   152  ALA152      0.1694
    148  C          1.4100   10.9920    8.7980 C.2   152  ALA152      0.2592
    149  O          1.6030   11.0960    7.5870 O.2   152  ALA152     -0.2718
    150  CB        -0.9220   11.9100    8.6740 C.3   152  ALA152      0.0304
    151  N          2.4110   10.9780    9.6780 N.am  153  ASP153     -0.1974
    152  CA         3.8120   10.9790    9.2290 C.3   153  ASP153      0.1709
    153  C          4.6660   10.2250   10.2350 C.2   153  ASP153      0.2293
    154  O          4.3880   10.2690   11.4320 O.2   153  ASP153     -0.2864
    155  CB         4.3630   12.3960    9.0590 C.3   153  ASP153      0.1436
    156  CG         5.6870   12.4150    8.3070 C.2   153  ASP153      0.3671
    157  OD1        5.6660   12.3320    7.0720 O.co2 153  ASP153     -0.2456
    158  OD2        6.7530   12.4830    8.9490 O.co2 153  ASP153     -0.2456
@<TRIPOS>BOND
     1    90    88   ar
     2    90    91   ar
     3    88    86   ar
     4    43    44    1
     5    35    34    1
     6    92    91    1
     7    91    89   ar
     8    45    44    1
     9    45    46    2
    10    51    50    2
    11    44    47    1
    12    86    85    1
    13    86    87   ar
    14    85    82    1
    15    50    49    1
    16    48    49    1
    17    38    39    2
    18    38    37    1
    19     1     2    1
    20    89    87   ar
    21    67    66    2
    22     6     8    1
    23     6     7    1
    24     6     5    1
    25    34    31    1
    26    49    52    1
    27    64    65    1
    28    33    32    2
    29    81    82    1
    30    81    74   am
    31    82    83    1
    32    37    36    1
    33    37    40    1
    34    66    65    1
    35    66    72   am
    36     2     5    1
    37     2     3    1
    38    32    36   am
    39    32    31    1
    40    84    83    2
    41    31    30    1
    42    65    68    1
    43    73    74    1
    44    73    72    1
    45    73    76    1
    46    41    40    1
    47    83    93   am
    48    74    75    2
    49    30    28   am
    50    52    53    1
    51    40    42    1
    52    12    11    2
    53     9     3   am
    54     9    10    1
    55     3     4    2
    56    76    77    1
    57    93    94    1
    58    53    54    1
    59    68    69    1
    60    28    27    1
    61    28    29    2
    62    27    26    1
    63    71    70    1
    64    19    20    1
    65    19    18    1
    66    95    94    1
    67    95    96    2
    68    69    70    1
    69    11    10    1
    70    11    13   am
    71    94    97    1
    72    17    18    1
    73    17    14    1
    74    77    78    1
    75    20    21    1
    76    54    55    1
    77    14    13    1
    78    14    15    1
    79   100    98    1
    80    79    78   ar
    81    97    98    1
    82    55    56    1
    83    78    80   ar
    84    98    99    1
    85   101   102    1
    86    15    22   am
    87    15    16    2
    88   102   103    1
    89    22    23    1
    90    63    61    1
    91    25    24    2
    92   145   143    1
    93   144   143    1
    94    24    23    1
    95   103   105   am
    96   103   104    2
    97   143   142    1
    98   157   156   ar
    99    59    60    2
   100    59    58    1
   101    61    62    1
   102    61    58    1
   103   105   106    1
   104   149   148    2
   105    58    57    1
   106   156   158   ar
   107   156   155    1
   108   109   106    1
   109   109   110    1
   110   142   139    1
   111   106   107    1
   112   150   147    1
   113   148   147    1
   114   148   151   am
   115   155   152    1
   116   152   151    1
   117   152   153    1
   118   147   146    1
   119   108   107    2
   120   139   140    1
   121   139   138    1
   122   140   141    2
   123   114   113    2
   124   153   154    2
   125   128   127    2
   126   138   132   am
   127   133   132    2
   128   132   131    1
   129   113   112    1
   130   113   122   am
   131   125   124    2
   132   123   124    1
   133   123   122    1
   134   123   126    1
   135   127   126    1
   136   127   129   am
   137   124   130   am
   138   115   112    1
   139   115   116    1
   140   112   111    1
   141   130   131    1
   142   131   134    1
   143   117   116    1
   144   117   118    1
   145   118   119    2
   146   134   136    1
   147   134   135    1
   148   119   120    1
   149   119   121    1
   150   135   137    1
