@<TRIPOS>MOLECULE
tmp/3lxlA00.pdb
 147 139 0 0 0
SMALL
GASTEIGER

@<TRIPOS>ATOM
      1  N          2.0950   19.1180   -0.9270 N.3    15  LEU15      -0.1231
      2  CA         1.3150   19.0650    0.3420 C.3    15  LEU15       0.1693
      3  C          2.1630   19.4400    1.5290 C.2    15  LEU15       0.2593
      4  O          1.7190   20.1950    2.3890 O.2    15  LEU15      -0.2718
      5  CB         0.7060   17.6710    0.5470 C.3    15  LEU15       0.0284
      6  CG        -0.3190   17.2500   -0.5270 C.3    15  LEU15       0.0019
      7  CD1       -0.6640   15.7760   -0.4130 C.3    15  LEU15       0.0001
      8  CD2       -1.6120   18.1260   -0.5610 C.3    15  LEU15       0.0001
      9  N          3.3830   18.9090    1.6030 N.am   16  GLY16      -0.1942
     10  CA         4.2770   19.3080    2.6830 C.3    16  GLY16       0.2014
     11  C          5.7080   18.8580    2.4560 C.2    16  GLY16       0.2639
     12  O          6.0310   18.2450    1.4400 O.2    16  GLY16      -0.2714
     13  N          6.5480   19.1510    3.4360 N.am   17  LYS17      -0.1963
     14  CA         7.9560   18.7820    3.3810 C.3    17  LYS17       0.1728
     15  C          8.5710   18.7800    4.7660 C.2    17  LYS17       0.2616
     16  O          8.0110   19.3280    5.7090 O.2    17  LYS17      -0.2715
     17  CB         8.7240   19.7460    2.4860 C.3    17  LYS17       0.0311
     18  CG         8.7400   21.1860    2.9680 C.3    17  LYS17       0.0038
     19  CD         9.5520   22.0720    2.0270 C.3    17  LYS17       0.0206
     20  CE         9.3410   23.5560    2.3410 C.3    17  LYS17       0.1093
     21  NZ         9.5380   23.8880    3.8020 N.3    17  LYS17      -0.1314
     22  N          9.7490   18.1820    4.8670 N.am   18  GLY18      -0.1955
     23  CA        10.4570   18.1420    6.1490 C.3    18  GLY18       0.1869
     24  C         11.2740   16.8770    6.2800 C.2    18  GLY18       0.2309
     25  O         10.9750   15.8490    5.6600 O.2    18  GLY18      -0.2863
     26  N          6.0490   15.5770    0.4110 N.3    23  VAL23      -0.1245
     27  CA         4.8050   14.8490    0.1700 C.3    23  VAL23       0.1561
     28  C          4.0610   15.6640   -0.8960 C.2    23  VAL23       0.2260
     29  O          3.9060   16.8930   -0.7540 O.2    23  VAL23      -0.2867
     30  CB         3.9670   14.7330    1.4420 C.3    23  VAL23       0.0252
     31  CG1        2.6980   13.9310    1.1620 C.3    23  VAL23       0.0019
     32  CG2        4.7490   14.0780    2.5740 C.3    23  VAL23       0.0019
     33  N         -1.5200   10.6770   -1.7050 N.3    40  ALA40      -0.1245
     34  CA        -0.4310   11.4860   -1.1560 C.3    40  ALA40       0.1562
     35  C          0.8320   10.6550   -1.2860 C.2    40  ALA40       0.2260
     36  O          0.8630    9.4970   -0.8790 O.2    40  ALA40      -0.2867
     37  CB        -0.6730   11.8230    0.2790 C.3    40  ALA40       0.0290
     38  N          5.0560   10.3390   -0.9650 N.3    42  LYS42      -0.1245
     39  CA         6.2340   10.8350   -0.2930 C.3    42  LYS42       0.1561
     40  C          7.4820   10.2880   -0.9750 C.2    42  LYS42       0.2260
     41  O          7.5400    9.1600   -1.3290 O.2    42  LYS42      -0.2867
     42  CB         6.2470   10.4410    1.1760 C.3    42  LYS42       0.0271
     43  CG         7.3180   11.0810    2.0510 C.3    42  LYS42       0.0035
     44  CD         8.4360   10.1290    2.2930 C.3    42  LYS42       0.0206
     45  CE         9.7210   10.7590    2.8910 C.3    42  LYS42       0.1093
     46  NZ         9.6830   10.9820    4.3220 N.3    42  LYS42      -0.1314
     47  N         -2.3490    7.1850    9.5560 N.3    71  VAL71      -0.1245
     48  CA        -2.5410    7.3690    8.1130 C.3    71  VAL71       0.1561
     49  C         -2.2850    6.0610    7.3360 C.2    71  VAL71       0.2260
     50  O         -1.3600    5.3150    7.6480 O.2    71  VAL71      -0.2867
     51  CB        -1.6460    8.5240    7.5700 C.3    71  VAL71       0.0252
     52  CG1       -0.1700    8.1550    7.6700 C.3    71  VAL71       0.0019
     53  CG2       -2.0170    8.8700    6.1410 C.3    71  VAL71       0.0019
     54  N          0.3940    6.8910   -0.0280 N.3    89  MET89      -0.1230
     55  CA        -0.4790    6.8900    1.1480 C.3    89  MET89       0.1702
     56  C         -1.8350    7.4390    0.7350 C.2    89  MET89       0.2592
     57  O         -1.9550    8.0990   -0.3000 O.2    89  MET89      -0.2718
     58  CB         0.0960    7.7750    2.2560 C.3    89  MET89       0.0401
     59  CG         1.3670    7.2810    2.8960 C.3    89  MET89       0.0596
     60  SD         2.1460    8.4750    3.9720 S.3    89  MET89      -0.1393
     61  CE         2.8370    9.7080    2.8530 C.3    89  MET89       0.0692
     62  N         -2.8520    7.1950    1.5530 N.am   90  GLU90      -0.1966
     63  CA        -4.1430    7.8570    1.3360 C.3    90  GLU90       0.1733
     64  C         -3.9870    9.3700    1.4230 C.2    90  GLU90       0.2616
     65  O         -3.1240    9.8960    2.1590 O.2    90  GLU90      -0.2715
     66  CB        -5.1840    7.3860    2.3630 C.3    90  GLU90       0.0429
     67  CG        -4.8460    7.7830    3.7850 C.3    90  GLU90       0.1163
     68  CD        -5.9050    7.3860    4.7990 C.2    90  GLU90       0.3649
     69  OE1       -7.0770    7.2090    4.3910 O.co2  90  GLU90      -0.2457
     70  OE2       -5.5580    7.2610    5.9910 O.co2  90  GLU90      -0.2457
     71  N         -4.8250   10.0700    0.6680 N.am   91  TYR91      -0.1960
     72  CA        -4.8550   11.5110    0.6900 C.3    91  TYR91       0.1771
     73  C         -5.9850   11.9920    1.5830 C.2    91  TYR91       0.2619
     74  O         -7.1330   11.6060    1.3810 O.2    91  TYR91      -0.2715
     75  CB        -5.0480   12.0490   -0.7150 C.3    91  TYR91       0.0574
     76  CG        -5.2600   13.5340   -0.8290 C.ar   91  TYR91      -0.0198
     77  CD1       -4.3920   14.4460   -0.2240 C.ar   91  TYR91      -0.0009
     78  CD2       -6.3050   14.0440   -1.6070 C.ar   91  TYR91      -0.0009
     79  CE1       -4.5890   15.8130   -0.3520 C.ar   91  TYR91       0.0417
     80  CE2       -6.5110   15.4030   -1.7350 C.ar   91  TYR91       0.0417
     81  CZ        -5.6420   16.2860   -1.1350 C.ar   91  TYR91       0.1957
     82  OH        -5.8310   17.6340   -1.2610 O.3    91  TYR91      -0.2866
     83  N         -5.6480   12.8720    2.5140 N.am   92  LEU92      -0.1964
     84  CA        -6.6090   13.4920    3.4350 C.3    92  LEU92       0.1713
     85  C         -6.6310   14.9980    3.1510 C.2    92  LEU92       0.2458
     86  O         -5.7640   15.7530    3.6440 O.2    92  LEU92      -0.2730
     87  CB        -6.2000   13.1920    4.8790 C.3    92  LEU92       0.0310
     88  CG        -6.2130   11.6990    5.2430 C.3    92  LEU92       0.0022
     89  CD1       -5.7430   11.5400    6.7030 C.3    92  LEU92       0.0001
     90  CD2       -7.5830   11.0440    5.0050 C.3    92  LEU92       0.0001
     91  N         -7.5780   15.4360    2.3090 N.am   93  PRO93      -0.2727
     92  CA        -7.5630   16.8160    1.8140 C.3    93  PRO93       0.1402
     93  C         -7.6970   17.8980    2.8700 C.2    93  PRO93       0.2269
     94  O         -7.2990   19.0250    2.6090 O.2    93  PRO93      -0.2865
     95  CB        -8.7360   16.8780    0.8110 C.3    93  PRO93       0.0296
     96  CG        -9.5220   15.6980    1.0370 C.3    93  PRO93       0.0237
     97  CD        -8.6950   14.6610    1.7430 C.3    93  PRO93       0.0939
     98  N         -5.9270   18.1300    5.4250 N.3    95  GLY95      -0.1210
     99  CA        -4.5590   18.4930    5.7530 C.3    95  GLY95       0.1956
    100  C         -4.2060   18.3630    7.2230 C.2    95  GLY95       0.2612
    101  O         -4.7990   17.5630    7.9460 O.2    95  GLY95      -0.2717
    102  N         -3.2030   19.1290    7.6590 N.am   96  CYS96      -0.1970
    103  CA        -2.6800   18.9310    9.0000 C.3    96  CYS96       0.1712
    104  C         -3.5690   19.5980   10.0500 C.2    96  CYS96       0.2296
    105  O         -4.2630   20.5880    9.7880 O.2    96  CYS96      -0.2864
    106  CB        -1.2120   19.3620    9.1370 C.3    96  CYS96       0.0983
    107  SG        -0.9410   21.1110    9.1560 S.3    96  CYS96      -0.0798
    108  N          1.2780   19.7030   13.6890 N.3   140  ARG140     -0.1231
    109  CA         1.6250   19.8040   12.2750 C.3   140  ARG140      0.1694
    110  C          1.8230   18.4340   11.5920 C.2   140  ARG140      0.2592
    111  O          1.8000   18.3430   10.3530 O.2   140  ARG140     -0.2718
    112  CB         2.8630   20.6810   12.1100 C.3   140  ARG140      0.0321
    113  CG         4.1140   20.0540   12.5940 C.3   140  ARG140      0.0489
    114  CD         5.2840   21.0200   12.5550 C.3   140  ARG140      0.2205
    115  NE         6.4180   20.3560   13.1730 N.pl3 140  ARG140     -0.0865
    116  CZ         6.7730   20.4420   14.4620 C.cat 140  ARG140      0.5346
    117  NH1        7.8070   19.7310   14.8760 N.pl3 140  ARG140      0.1354
    118  NH2        6.1390   21.2330   15.3430 N.pl3 140  ARG140      0.1354
    119  N          1.9900   17.3800   12.3940 N.am  141  ASN141     -0.1974
    120  CA         2.2520   16.0170   11.9130 C.3   141  ASN141      0.1688
    121  C          1.0800   15.0690   12.0980 C.2   141  ASN141      0.2292
    122  O          1.2090   13.8530   11.9120 O.2   141  ASN141     -0.2864
    123  CB         3.5140   15.5020   12.6130 C.3   141  ASN141      0.1181
    124  CG         4.7140   16.3520   12.2730 C.2   141  ASN141      0.2629
    125  OD1        4.8170   16.8260   11.1410 O.2   141  ASN141     -0.2716
    126  ND2        5.5880   16.6150   13.2510 N.am  141  ASN141     -0.0877
    127  N         -2.9660   14.5490   10.8350 N.3   143  LEU143     -0.1245
    128  CA        -3.8280   14.8980    9.6990 C.3   143  LEU143      0.1561
    129  C         -5.2890   14.7880   10.0780 C.2   143  LEU143      0.2260
    130  O         -5.6460   14.0530   11.0060 O.2   143  LEU143     -0.2867
    131  CB        -3.5600   13.9490    8.5440 C.3   143  LEU143      0.0270
    132  CG        -2.1190   13.9080    8.0240 C.3   143  LEU143      0.0019
    133  CD1       -1.9940   12.8970    6.8990 C.3   143  LEU143      0.0001
    134  CD2       -1.6830   15.2820    7.5840 C.3   143  LEU143      0.0001
    135  N          0.4500   10.9830   11.2920 N.3   153  ALA153     -0.1231
    136  CA         1.2400   10.7930   10.0920 C.3   153  ALA153      0.1694
    137  C          2.7250   11.0590   10.3860 C.2   153  ALA153      0.2592
    138  O          3.1290   11.0670   11.5370 O.2   153  ALA153     -0.2718
    139  CB         0.7380   11.7210    8.9680 C.3   153  ALA153      0.0304
    140  N          3.5330   11.2670    9.3460 N.am  154  ASP154     -0.1974
    141  CA         4.9150   11.7390    9.5390 C.3   154  ASP154      0.1709
    142  C          5.7710   10.7010   10.3140 C.2   154  ASP154      0.2293
    143  O          6.3090   10.9990   11.3960 O.2   154  ASP154     -0.2864
    144  CB         4.8630   13.1140   10.2330 C.3   154  ASP154      0.1436
    145  CG         6.2430   13.6700   10.6610 C.2   154  ASP154      0.3671
    146  OD1        6.3750   14.0460   11.8590 O.co2 154  ASP154     -0.2456
    147  OD2        7.1570   13.7690    9.8140 O.co2 154  ASP154     -0.2456
@<TRIPOS>BOND
     1    80    78   ar
     2    80    81   ar
     3    33    34    1
     4    78    76   ar
     5    41    40    2
     6    35    34    1
     7    35    36    2
     8    82    81    1
     9    34    37    1
    10    81    79   ar
    11    40    39    1
    12    38    39    1
    13     1     2    1
    14    28    29    2
    15    28    27    1
    16    76    75    1
    17    76    77   ar
    18    75    72    1
    19     8     6    1
    20     6     7    1
    21     6     5    1
    22    79    77   ar
    23    57    56    2
    24    39    42    1
    25    54    55    1
    26    27    26    1
    27    27    30    1
    28     2     5    1
    29     2     3    1
    30    71    72    1
    31    71    64   am
    32    72    73    1
    33    56    55    1
    34    56    62   am
    35    95    96    1
    36    95    92    1
    37    96    97    1
    38    55    58    1
    39    31    30    1
    40    42    43    1
    41    63    64    1
    42    63    62    1
    43    63    66    1
    44    74    73    2
    45    64    65    2
    46    12    11    2
    47    30    32    1
    48     3     9   am
    49     3     4    2
    50    73    83   am
    51     9    10    1
    52    97    91    1
    53    92    91    1
    54    92    93    1
    55    19    20    1
    56    19    18    1
    57    43    44    1
    58    58    59    1
    59    44    45    1
    60    91    85   am
    61    20    21    1
    62    66    67    1
    63    11    10    1
    64    11    13   am
    65    17    18    1
    66    17    14    1
    67    83    84    1
    68    94    93    2
    69    61    60    1
    70    45    46    1
    71    59    60    1
    72    85    84    1
    73    85    86    2
    74    14    13    1
    75    14    15    1
    76    84    87    1
    77    67    68    1
    78    69    68   ar
    79    15    22   am
    80    15    16    2
    81    68    70   ar
    82    22    23    1
    83    87    88    1
    84    90    88    1
    85    88    89    1
    86    98    99    1
    87    25    24    2
    88    99   100    1
    89    53    51    1
    90    23    24    1
    91   133   132    1
    92   100   102   am
    93   100   101    2
    94    49    50    2
    95    49    48    1
    96    51    52    1
    97    51    48    1
    98   134   132    1
    99   102   103    1
   100   132   131    1
   101    48    47    1
   102   131   128    1
   103   139   136    1
   104   103   106    1
   105   103   104    1
   106   106   107    1
   107   140   141    1
   108   140   137   am
   109   141   144    1
   110   141   142    1
   111   128   129    1
   112   128   127    1
   113   105   104    2
   114   147   145   ar
   115   129   130    2
   116   136   137    1
   117   136   135    1
   118   144   145    1
   119   142   143    2
   120   111   110    2
   121   137   138    2
   122   145   146   ar
   123   125   124    2
   124   110   109    1
   125   110   119   am
   126   122   121    2
   127   120   121    1
   128   120   119    1
   129   120   123    1
   130   112   109    1
   131   112   113    1
   132   124   123    1
   133   124   126   am
   134   109   108    1
   135   114   113    1
   136   114   115    1
   137   115   116    2
   138   116   117    1
   139   116   118    1
