@<TRIPOS>MOLECULE
tmp/3lxmA00.pdb
 99 96 0 0 0
SMALL
GASTEIGER

@<TRIPOS>ATOM
      1  N         32.9160   92.0700   21.1950 N.3    51  ALA51      -0.1231
      2  CA        34.2270   91.7340   21.7410 C.3    51  ALA51       0.1694
      3  C         35.2110   91.6440   20.5700 C.2    51  ALA51       0.2593
      4  O         34.9460   91.0230   19.5650 O.2    51  ALA51      -0.2718
      5  CB        34.1620   90.4050   22.4960 C.3    51  ALA51       0.0304
      6  N         36.3310   92.3060   20.6650 N.am   52  SER52      -0.1938
      7  CA        37.2870   92.1530   19.5770 C.3    52  SER52       0.2055
      8  C         38.5730   92.4530   20.2360 C.2    52  SER52       0.2644
      9  O         39.2050   93.4720   19.9430 O.2    52  SER52      -0.2714
     10  CB        36.9840   93.1090   18.4100 C.3    52  SER52       0.2130
     11  OG        37.8750   92.9060   17.3280 O.3    52  SER52      -0.2179
     12  N         38.9260   91.5040   21.1180 N.am   53  THR53      -0.1936
     13  CA        40.0330   91.5790   22.0400 C.3    53  THR53       0.2028
     14  C         41.3810   91.9460   21.4570 C.2    53  THR53       0.2642
     15  O         42.0500   92.8500   21.9650 O.2    53  THR53      -0.2714
     16  CB        40.1520   90.2490   22.8370 C.3    53  THR53       0.1808
     17  OG1       38.9210   89.9910   23.5300 O.3    53  THR53      -0.2208
     18  CG2       41.2830   90.3150   23.8390 C.3    53  THR53       0.0379
     19  N         41.8040   91.3000   20.3850 N.am   54  ARG54      -0.1963
     20  CA        43.0700   91.6770   19.7700 C.3    54  ARG54       0.1729
     21  C         43.0890   93.1270   19.2600 C.2    54  ARG54       0.2616
     22  O         44.0020   93.9200   19.5620 O.2    54  ARG54      -0.2715
     23  CB        43.4670   90.6750   18.6620 C.3    54  ARG54       0.0348
     24  CG        44.5910   91.1570   17.7000 C.3    54  ARG54       0.0492
     25  CD        45.0220   89.9830   16.7550 C.3    54  ARG54       0.2205
     26  NE        43.8430   89.3930   16.1040 N.pl3  54  ARG54      -0.0865
     27  CZ        43.2090   88.2840   16.5040 C.cat  54  ARG54       0.5346
     28  NH1       42.1510   87.8840   15.8460 N.pl3  54  ARG54       0.1354
     29  NH2       43.6300   87.5390   17.5160 N.pl3  54  ARG54       0.1354
     30  N         42.1030   93.5050   18.4650 N.am   55  THR55      -0.1951
     31  CA        42.0460   94.8690   17.9800 C.3    55  THR55       0.1897
     32  C         41.8800   95.8690   19.1440 C.2    55  THR55       0.2313
     33  O         42.4790   96.9300   19.1350 O.2    55  THR55      -0.2863
     34  CB        40.8720   95.0070   16.9740 C.3    55  THR55       0.1794
     35  OG1       41.1660   94.1810   15.8420 O.3    55  THR55      -0.2208
     36  CG2       40.6920   96.4360   16.5360 C.3    55  THR55       0.0378
     37  N         34.0480  100.2860   17.3390 N.3    96  ARG96      -0.1245
     38  CA        33.8340   99.0170   16.6540 C.3    96  ARG96       0.1563
     39  C         32.3670   98.6500   16.8460 C.2    96  ARG96       0.2260
     40  O         31.8970   98.6040   17.9770 O.2    96  ARG96      -0.2867
     41  CB        34.6610   97.9010   17.3200 C.3    96  ARG96       0.0307
     42  CG        34.3820   96.4790   16.8080 C.3    96  ARG96       0.0489
     43  CD        35.3000   96.1500   15.7980 C.3    96  ARG96       0.2205
     44  NE        35.2300   94.7510   15.4540 N.pl3  96  ARG96      -0.0865
     45  CZ        36.0870   94.1490   14.6410 C.cat  96  ARG96       0.5346
     46  NH1       35.9140   92.8570   14.3680 N.pl3  96  ARG96       0.1354
     47  NH2       37.1020   94.8150   14.1060 N.pl3  96  ARG96       0.1354
     48  N         37.5130   98.2750    7.8950 N.3   125  HIS125     -0.1241
     49  CA        38.4410   98.1320    9.0170 C.3   125  HIS125      0.1621
     50  C         39.7150   98.7980    8.5680 C.2   125  HIS125      0.2264
     51  O         40.6960   98.0930    8.3060 O.2   125  HIS125     -0.2867
     52  CB        38.6670   96.6420    9.2580 C.3   125  HIS125      0.0745
     53  CG        39.2300   96.3070   10.6010 C.ar  125  HIS125      0.0817
     54  ND1       39.8560   97.2370   11.4040 N.ar  125  HIS125     -0.2268
     55  CD2       39.3970   95.1050   11.2180 C.ar  125  HIS125      0.1154
     56  CE1       40.3290   96.6430   12.4850 C.ar  125  HIS125      0.1986
     57  NE2       40.0560   95.3490   12.4060 N.ar  125  HIS125     -0.2212
     58  N         43.2890   97.8680   10.0140 N.3   128  GLN128     -0.1245
     59  CA        43.8350   96.5870    9.5930 C.3   128  GLN128      0.1566
     60  C         44.6390   96.7650    8.2940 C.2   128  GLN128      0.2260
     61  O         45.7650   96.2290    8.1450 O.2   128  GLN128     -0.2867
     62  CB        42.7660   95.5140    9.4080 C.3   128  GLN128      0.0367
     63  CG        43.3220   94.1970    8.9440 C.3   128  GLN128      0.0905
     64  CD        44.1240   93.5000   10.0410 C.2   128  GLN128      0.2608
     65  OE1       43.6040   93.2840   11.1070 O.2   128  GLN128     -0.2717
     66  NE2       45.3880   93.0950    9.7440 N.am  128  GLN128     -0.0878
     67  N         41.8560   84.7950    6.1840 N.3   220  ARG220     -0.1245
     68  CA        41.2220   84.0610    7.2720 C.3   220  ARG220      0.1563
     69  C         40.0240   83.2050    6.8140 C.2   220  ARG220      0.2260
     70  O         39.4740   83.4020    5.7170 O.2   220  ARG220     -0.2867
     71  CB        40.8180   85.1060    8.3190 C.3   220  ARG220      0.0307
     72  CG        40.2640   84.6560    9.6310 C.3   220  ARG220      0.0489
     73  CD        40.2250   85.9180   10.5240 C.3   220  ARG220      0.2205
     74  NE        39.8780   87.0930    9.7040 N.pl3 220  ARG220     -0.0865
     75  CZ        40.2600   88.3580    9.9290 C.cat 220  ARG220      0.5346
     76  NH1       41.0240   88.6860   10.9680 N.pl3 220  ARG220      0.1354
     77  NH2       39.8780   89.3180    9.0860 N.pl3 220  ARG220      0.1354
     78  N         45.9740   88.2810    8.7410 N.3   247  PRO247     -0.2102
     79  CA        45.3750   89.2260    9.6830 C.3   247  PRO247      0.1504
     80  C         45.0300   88.7120   11.0580 C.2   247  PRO247      0.2576
     81  O         44.8410   89.5170   11.9730 O.2   247  PRO247     -0.2718
     82  CB        44.1150   89.6860    8.9680 C.3   247  PRO247      0.0282
     83  CG        43.7370   88.5740    8.0740 C.3   247  PRO247      0.0208
     84  CD        45.0630   87.9540    7.6360 C.3   247  PRO247      0.0893
     85  N         44.9240   87.3950   11.1600 N.am  248  LEU248     -0.1967
     86  CA        44.6390   86.6280   12.3500 C.3   248  LEU248      0.1713
     87  C         43.1200   86.6440   12.7300 C.2   248  LEU248      0.2458
     88  O         42.4410   87.5600   12.3770 O.2   248  LEU248     -0.2730
     89  CB        45.4680   87.1360   13.5160 C.3   248  LEU248      0.0310
     90  CG        46.9910   87.0590   13.2710 C.3   248  LEU248      0.0022
     91  CD1       47.6670   87.6380   14.5030 C.3   248  LEU248      0.0001
     92  CD2       47.4580   85.6530   13.0390 C.3   248  LEU248      0.0001
     93  N         42.6400   85.6360   13.4320 N.am  249  PRO249     -0.2727
     94  CA        43.4120   84.4940   13.8680 C.3   249  PRO249      0.1402
     95  C         43.6120   83.4950   12.7710 C.2   249  PRO249      0.2269
     96  O         42.8560   83.4760   11.8210 O.2   249  PRO249     -0.2865
     97  CB        42.5200   83.8520   14.9130 C.3   249  PRO249      0.0296
     98  CG        41.1230   84.1900   14.4560 C.3   249  PRO249      0.0237
     99  CD        41.2340   85.5730   13.9010 C.3   249  PRO249      0.0939
@<TRIPOS>BOND
     1    70    69    2
     2    67    68    1
     3    69    68    1
     4    68    71    1
     5    84    83    1
     6    84    78    1
     7    48    49    1
     8    83    82    1
     9    61    60    2
    10    60    59    1
    11    51    50    2
    12    71    72    1
    13    50    49    1
    14    78    79    1
    15    63    62    1
    16    63    64    1
    17    82    79    1
    18    49    52    1
    19    77    75    1
    20    52    53    1
    21    62    59    1
    22    59    58    1
    23    72    73    1
    24    79    80    1
    25    74    75    2
    26    74    73    1
    27    66    64   am
    28    75    76    1
    29    64    65    2
    30    53    55   ar
    31    53    54   ar
    32    80    85   am
    33    80    81    2
    34    85    86    1
    35    55    57   ar
    36    54    56   ar
    37    96    95    2
    38    86    87    1
    39    86    89    1
    40    88    87    2
    41    57    56   ar
    42    87    93   am
    43    95    94    1
    44    92    90    1
    45    90    89    1
    46    90    91    1
    47    93    94    1
    48    93    99    1
    49    94    97    1
    50    99    98    1
    51    47    45    1
    52    46    45    1
    53    98    97    1
    54    45    44    2
    55    44    43    1
    56    43    42    1
    57    35    34    1
    58    28    27    1
    59    26    27    2
    60    26    25    1
    61    27    29    1
    62    36    34    1
    63    38    39    1
    64    38    41    1
    65    38    37    1
    66    25    24    1
    67    42    41    1
    68    39    40    2
    69    34    31    1
    70    11    10    1
    71    24    23    1
    72    31    30    1
    73    31    32    1
    74    10     7    1
    75    30    21   am
    76    23    20    1
    77    33    32    2
    78    21    22    2
    79    21    20    1
    80     4     3    2
    81     7     8    1
    82     7     6    1
    83    20    19    1
    84     9     8    2
    85     8    12   am
    86    19    14   am
    87     3     6   am
    88     3     2    1
    89    12    13    1
    90     1     2    1
    91    14    15    2
    92    14    13    1
    93     2     5    1
    94    13    16    1
    95    16    17    1
    96    16    18    1
