@<TRIPOS>MOLECULE
tmp/3lxnA00.pdb
 170 161 0 0 0
SMALL
GASTEIGER

@<TRIPOS>ATOM
      1  N         -2.4490   12.9120   16.7190 N.3    16  LEU16      -0.1231
      2  CA        -3.4740   12.2040   17.4780 C.3    16  LEU16       0.1696
      3  C         -3.1560   10.7240   17.6450 C.2    16  LEU16       0.2632
      4  O         -3.6470   10.0860   18.5840 O.2    16  LEU16      -0.2714
      5  CB        -4.8320   12.3640   16.7970 C.3    16  LEU16       0.0284
      6  CG        -5.4010   13.7890   16.8020 C.3    16  LEU16       0.0019
      7  CD1       -6.6680   13.8380   15.9610 C.3    16  LEU16       0.0001
      8  CD2       -5.6410   14.2680   18.2450 C.3    16  LEU16       0.0001
      9  N         -2.3430   10.1790   16.7400 N.am   17  GLY17      -0.1718
     10  CA        -2.0460    8.7520   16.7600 C.2    17  GLY17       0.1480
     11  C         -1.2060    8.2250   15.6080 C.2    17  GLY17       0.2820
     12  O         -0.7860    8.9720   14.7220 O.2    17  GLY17      -0.2669
     13  N         -1.0220    6.9190   15.6090 N.am   18  GLU18      -0.1929
     14  CA        -0.1830    6.1870   14.6710 C.3    18  GLU18       0.1736
     15  C         -0.6480    4.7550   14.7130 C.2    18  GLU18       0.2617
     16  O         -0.6650    4.1540   15.7440 O.2    18  GLU18      -0.2715
     17  CB         1.2220    6.1830   15.1890 C.3    18  GLU18       0.0429
     18  CG         2.2470    5.7700   14.2440 C.3    18  GLU18       0.1163
     19  CD         3.6300    6.1250   14.7750 C.2    18  GLU18       0.3649
     20  OE1        3.9290    7.3480   14.9180 O.co2  18  GLU18      -0.2457
     21  OE2        4.4090    5.1790   15.0660 O.co2  18  GLU18      -0.2457
     22  N         -0.9820    4.1880   13.5790 N.am   19  GLY19      -0.1940
     23  CA        -1.7370    2.9170   13.5290 C.3    19  GLY19       0.2014
     24  C         -1.1180    1.7270   12.8280 C.2    19  GLY19       0.2638
     25  O         -0.6130    0.8150   13.4800 O.2    19  GLY19      -0.2714
     26  N         -1.1810    1.7080   11.4990 N.am   20  HIS20      -0.1973
     27  CA        -0.4580    0.6770   10.7280 C.3    20  HIS20       0.1656
     28  C          0.7800    1.1380    9.9410 C.2    20  HIS20       0.2291
     29  O          1.9200    0.9390   10.3980 O.2    20  HIS20      -0.2864
     30  CB        -1.0800   -0.7000   10.4360 C.3    20  HIS20       0.0771
     31  CG        -1.7390   -1.3290   11.6270 C.ar   20  HIS20       0.0820
     32  ND1       -1.0310   -1.9940   12.6060 N.ar   20  HIS20      -0.2267
     33  CD2       -3.0390   -1.4070   11.9870 C.ar   20  HIS20       0.1154
     34  CE1       -1.8660   -2.4570   13.5170 C.ar   20  HIS20       0.1986
     35  NE2       -3.0900   -2.1160   13.1640 N.ar   20  HIS20      -0.2212
     36  N          0.1750    4.3790    8.8560 N.3    22  GLY22      -0.1210
     37  CA        -0.3750    5.7250    8.8230 C.3    22  GLY22       0.1956
     38  C         -0.1820    6.5040   10.1050 C.2    22  GLY22       0.2612
     39  O          0.0940    5.9310   11.1540 O.2    22  GLY22      -0.2717
     40  N         -0.3200    7.8210   10.0060 N.am   23  LYS23      -0.1965
     41  CA        -0.4340    8.6770   11.1770 C.3    23  LYS23       0.1728
     42  C         -1.7510    9.4510   11.0580 C.2    23  LYS23       0.2616
     43  O         -2.0930    9.8930    9.9740 O.2    23  LYS23      -0.2715
     44  CB         0.7620    9.6280   11.2660 C.3    23  LYS23       0.0311
     45  CG         0.8720   10.6410   10.1360 C.3    23  LYS23       0.0038
     46  CD         1.7840   11.7980   10.7430 C.3    23  LYS23       0.0206
     47  CE         3.1290   11.0780   11.0380 C.3    23  LYS23       0.1093
     48  NZ         3.5500   10.4650    9.7040 N.3    23  LYS23      -0.1314
     49  N         -2.4910    9.5810   12.1600 N.am   24  VAL24      -0.1977
     50  CA        -3.6600   10.4590   12.2090 C.3    24  VAL24       0.1596
     51  C         -3.2720   11.7420   12.9360 C.2    24  VAL24       0.2287
     52  O         -2.7100   11.6810   14.0240 O.2    24  VAL24      -0.2864
     53  CB        -4.8560    9.8070   12.9200 C.3    24  VAL24       0.0276
     54  CG1       -6.0170   10.7760   12.9880 C.3    24  VAL24       0.0022
     55  CG2       -5.2700    8.5290   12.1970 C.3    24  VAL24       0.0022
     56  N         -9.7180   15.4120   11.7680 N.3    41  ALA41      -0.1245
     57  CA        -8.7020   14.3990   11.9720 C.3    41  ALA41       0.1562
     58  C         -8.3340   13.8790   10.5970 C.2    41  ALA41       0.2260
     59  O         -9.2190   13.5440    9.8000 O.2    41  ALA41      -0.2867
     60  CB        -9.2280   13.2770   12.8640 C.3    41  ALA41       0.0290
     61  N         -5.8710   11.3100    8.3000 N.3    43  LYS43      -0.1245
     62  CA        -5.0290   10.1240    8.2290 C.3    43  LYS43       0.1561
     63  C         -4.2310   10.1040    6.9340 C.2    43  LYS43       0.2260
     64  O         -4.7930   10.2840    5.8470 O.2    43  LYS43      -0.2867
     65  CB        -5.8720    8.8430    8.3190 C.3    43  LYS43       0.0271
     66  CG        -5.0170    7.5860    8.4960 C.3    43  LYS43       0.0035
     67  CD        -5.8510    6.3640    8.7630 C.3    43  LYS43       0.0206
     68  CE        -4.9790    5.1610    9.0460 C.3    43  LYS43       0.1093
     69  NZ        -5.7880    3.9600    9.3620 N.3    43  LYS43      -0.1314
     70  N        -17.0310    6.4950   12.6190 N.3    73  ILE73      -0.1245
     71  CA       -16.4340    7.8020   12.3820 C.3    73  ILE73       0.1561
     72  C        -16.9040    8.3600   11.0170 C.2    73  ILE73       0.2260
     73  O        -16.8810    7.6580    9.9970 O.2    73  ILE73      -0.2867
     74  CB       -14.8930    7.7020   12.4510 C.3    73  ILE73       0.0252
     75  CG1      -14.2350    9.0860   12.3660 C.3    73  ILE73       0.0019
     76  CG2      -14.3720    6.7660   11.3790 C.3    73  ILE73       0.0019
     77  CD1      -14.4870    9.9600   13.5790 C.3    73  ILE73       0.0001
     78  N        -11.5100   13.1040    8.3010 N.3    91  MET91      -0.1230
     79  CA       -12.6470   12.6170    9.0990 C.3    91  MET91       0.1702
     80  C        -12.9800   13.6410   10.1770 C.2    91  MET91       0.2592
     81  O        -12.1760   14.5330   10.4480 O.2    91  MET91      -0.2718
     82  CB       -12.2980   11.3020    9.8100 C.3    91  MET91       0.0401
     83  CG       -11.7870   10.1820    8.9310 C.3    91  MET91       0.0596
     84  SD       -10.8800    8.9740    9.9160 S.3    91  MET91      -0.1393
     85  CE        -9.2630    9.7440    9.9860 C.3    91  MET91       0.0692
     86  N        -14.1410   13.4890   10.8180 N.am   92  GLU92      -0.1966
     87  CA       -14.4780   14.3390   11.9690 C.3    92  GLU92       0.1733
     88  C        -13.4970   14.0630   13.0910 C.2    92  GLU92       0.2616
     89  O        -12.9890   12.9510   13.2260 O.2    92  GLU92      -0.2715
     90  CB       -15.9040   14.1090   12.4780 C.3    92  GLU92       0.0429
     91  CG       -16.1550   12.7210   13.0580 C.3    92  GLU92       0.1163
     92  CD       -17.5170   12.5620   13.7080 C.2    92  GLU92       0.3649
     93  OE1      -17.9970   11.4050   13.7990 O.co2  92  GLU92      -0.2457
     94  OE2      -18.1030   13.5840   14.1410 O.co2  92  GLU92      -0.2457
     95  N        -13.2400   15.0930   13.8840 N.am   93  TYR93      -0.1960
     96  CA       -12.3640   15.0070   15.0260 C.3    93  TYR93       0.1771
     97  C        -13.2110   14.8240   16.2640 C.2    93  TYR93       0.2619
     98  O        -14.0320   15.6950   16.5760 O.2    93  TYR93      -0.2715
     99  CB       -11.5610   16.2910   15.1510 C.3    93  TYR93       0.0574
    100  CG       -10.7970   16.4180   16.4560 C.ar   93  TYR93      -0.0198
    101  CD1       -9.8470   15.4620   16.8300 C.ar   93  TYR93      -0.0009
    102  CD2      -11.0110   17.5040   17.3100 C.ar   93  TYR93      -0.0009
    103  CE1       -9.1550   15.5810   18.0040 C.ar   93  TYR93       0.0417
    104  CE2      -10.3100   17.6220   18.4990 C.ar   93  TYR93       0.0417
    105  CZ        -9.3900   16.6610   18.8320 C.ar   93  TYR93       0.1957
    106  OH        -8.7010   16.7790   20.0030 O.3    93  TYR93      -0.2866
    107  N        -13.0320   13.6960   16.9570 N.am   94  VAL94      -0.1977
    108  CA       -13.6960   13.4760   18.2540 C.3    94  VAL94       0.1596
    109  C        -12.6790   13.7110   19.3750 C.2    94  VAL94       0.2287
    110  O        -11.7840   12.9030   19.5860 O.2    94  VAL94      -0.2864
    111  CB       -14.4020   12.0970   18.3600 C.3    94  VAL94       0.0276
    112  CG1      -14.2710   11.2940   17.0610 C.3    94  VAL94       0.0022
    113  CG2      -13.9190   11.3150   19.5890 C.3    94  VAL94       0.0022
    114  N        -11.1960   11.4290   22.2720 N.3    97  GLY97      -0.1210
    115  CA       -10.2360   10.4160   21.8300 C.3    97  GLY97       0.1956
    116  C        -10.6860    8.9890   22.0940 C.2    97  GLY97       0.2612
    117  O        -11.8700    8.7370   22.3070 O.2    97  GLY97      -0.2717
    118  N         -9.7460    8.0470   22.0950 N.am   98  SER98      -0.1952
    119  CA       -10.1090    6.6370   22.2000 C.3    98  SER98       0.1924
    120  C        -10.4330    6.2270   23.6250 C.2    98  SER98       0.2314
    121  O         -9.9790    6.8670   24.5780 O.2    98  SER98      -0.2863
    122  CB        -9.0270    5.7210   21.6150 C.3    98  SER98       0.2116
    123  OG        -7.8840    5.6610   22.4300 O.3    98  SER98      -0.2180
    124  N         -7.3470    5.5670   25.6810 N.3   101  ASP101     -0.1239
    125  CA        -6.7450    6.7350   26.3310 C.3   101  ASP101      0.1674
    126  C         -7.6760    7.3400   27.3790 C.2   101  ASP101      0.2266
    127  O         -7.2100    7.9520   28.3200 O.2   101  ASP101     -0.2867
    128  CB        -6.3620    7.8120   25.2980 C.3   101  ASP101      0.1410
    129  CG        -5.1740    7.3910   24.3990 C.2   101  ASP101      0.3668
    130  OD1       -5.1010    7.9090   23.2510 O.co2 101  ASP101     -0.2456
    131  OD2       -4.3240    6.5530   24.8130 O.co2 101  ASP101     -0.2456
    132  N         -8.6360    0.7860   21.5350 N.3   140  ARG140     -0.1231
    133  CA        -7.8690    1.8920   20.9490 C.3   140  ARG140      0.1694
    134  C         -8.4230    2.3960   19.6050 C.2   140  ARG140      0.2592
    135  O         -8.0080    3.4530   19.1320 O.2   140  ARG140     -0.2718
    136  CB        -6.3850    1.5200   20.7830 C.3   140  ARG140      0.0321
    137  CG        -6.1210    0.5860   19.6390 C.3   140  ARG140      0.0489
    138  CD        -4.7050   -0.0080   19.6130 C.3   140  ARG140      0.2205
    139  NE        -4.6680   -1.0820   18.6150 N.pl3 140  ARG140     -0.0865
    140  CZ        -4.9160   -2.3740   18.8630 C.cat 140  ARG140      0.5346
    141  NH1       -5.1790   -2.8130   20.0980 N.pl3 140  ARG140      0.1354
    142  NH2       -4.8800   -3.2480   17.8720 N.pl3 140  ARG140      0.1354
    143  N         -9.3260    1.6300   18.9910 N.am  141  ASN141     -0.1974
    144  CA        -9.9750    2.0280   17.7410 C.3   141  ASN141      0.1688
    145  C        -11.4250    2.4190   17.9600 C.2   141  ASN141      0.2292
    146  O        -12.1650    2.6170   16.9910 O.2   141  ASN141     -0.2864
    147  CB        -9.8920    0.8990   16.7020 C.3   141  ASN141      0.1181
    148  CG        -8.4790    0.6630   16.2160 C.2   141  ASN141      0.2629
    149  OD1       -7.6660    1.5880   16.1800 O.2   141  ASN141     -0.2716
    150  ND2       -8.1770   -0.5720   15.8340 N.am  141  ASN141     -0.0877
    151  N        -13.7590    5.3950   19.4590 N.3   143  LEU143     -0.1245
    152  CA       -13.6900    6.8180   19.8070 C.3   143  LEU143      0.1561
    153  C        -14.9240    7.2190   20.6170 C.2   143  LEU143      0.2260
    154  O        -16.0470    6.8090   20.3060 O.2   143  LEU143     -0.2867
    155  CB       -13.5840    7.6760   18.5420 C.3   143  LEU143      0.0270
    156  CG       -12.2000    7.6660   17.9000 C.3   143  LEU143      0.0019
    157  CD1      -12.2340    8.1030   16.4450 C.3   143  LEU143      0.0001
    158  CD2      -11.2350    8.5460   18.7320 C.3   143  LEU143      0.0001
    159  N        -13.4310    3.9340   14.8510 N.3   153  GLY153     -0.1210
    160  CA       -12.6810    5.0640   14.2920 C.3   153  GLY153      0.1956
    161  C        -11.5060    4.7750   13.3820 C.2   153  GLY153      0.2611
    162  O        -10.8130    5.7200   12.9590 O.2   153  GLY153     -0.2717
    163  N        -11.3130    3.5180   13.0480 N.am  154  ASP154     -0.1973
    164  CA       -10.2320    3.0590   12.2090 C.3   154  ASP154      0.1709
    165  C        -10.5210    1.7920   11.4140 C.2   154  ASP154      0.2293
    166  O        -11.0850    0.8870   11.9350 O.2   154  ASP154     -0.2864
    167  CB        -8.9520    2.9210   13.0110 C.3   154  ASP154      0.1436
    168  CG        -7.7440    2.9630   12.1660 C.2   154  ASP154      0.3671
    169  OD1       -7.1580    1.9630   11.8610 O.co2 154  ASP154     -0.2456
    170  OD2       -7.3930    3.9990   11.7440 O.co2 154  ASP154     -0.2456
@<TRIPOS>BOND
     1    64    63    2
     2    63    62    1
     3    62    61    1
     4    62    65    1
     5    78    79    1
     6    65    66    1
     7    66    67    1
     8    67    68    1
     9    37    36    1
    10    37    38    1
    11    83    82    1
    12    83    84    1
    13    68    69    1
    14    79    82    1
    15    79    80    1
    16    48    47    1
    17    59    58    2
    18    84    85    1
    19    28    29    2
    20    28    27    1
    21    43    42    2
    22    73    72    2
    23    40    38   am
    24    40    41    1
    25    38    39    2
    26    45    46    1
    27    45    44    1
    28    80    81    2
    29    80    86   am
    30    30    27    1
    31    30    31    1
    32    58    57    1
    33    27    26    1
    34    46    47    1
    35    86    87    1
    36    72    71    1
    37    42    41    1
    38    42    49   am
    39    41    44    1
    40    76    74    1
    41   165   166    2
    42   165   164    1
    43    26    24   am
    44    31    33   ar
    45    31    32   ar
    46   170   168   ar
    47    56    57    1
    48   169   168   ar
    49    87    90    1
    50    87    88    1
    51    57    60    1
    52    33    35   ar
    53    49    50    1
    54   168   167    1
    55    55    53    1
    56    50    53    1
    57    50    51    1
    58   164   167    1
    59   164   163    1
    60    75    74    1
    61    75    77    1
    62    71    74    1
    63    71    70    1
    64    90    91    1
    65    32    34   ar
    66    24    25    2
    67    24    23    1
    68    53    54    1
    69    51    52    2
    70   162   161    2
    71   163   161   am
    72    91    92    1
    73    88    89    2
    74    88    95   am
    75    35    34   ar
    76   161   160    1
    77    23    22    1
    78    22    15   am
    79    92    93   ar
    80    92    94   ar
    81    95    96    1
    82    18    19    1
    83    18    17    1
    84   160   159    1
    85    14    15    1
    86    14    17    1
    87    14    13    1
    88    15    16    2
    89    12    11    2
    90    19    20   ar
    91    19    21   ar
    92    96    99    1
    93    96    97    1
    94    99   100    1
    95    11    13   am
    96    11    10    1
    97   150   148   am
    98     7     6    1
    99   149   148    2
   100   148   147    1
   101    97    98    2
   102    97   107   am
   103   157   156    1
   104   100   101   ar
   105   100   102   ar
   106   147   144    1
   107     1     2    1
   108     9    10    2
   109     9     3    1
   110     5     6    1
   111     5     2    1
   112     6     8    1
   113   101   103   ar
   114   107   108    1
   115   146   145    2
   116   112   111    1
   117   102   104   ar
   118     2     3    1
   119     3     4    2
   120   144   145    1
   121   144   143    1
   122   142   140    1
   123   156   155    1
   124   156   158    1
   125   103   105   ar
   126   108   111    1
   127   108   109    1
   128   111   113    1
   129   104   105   ar
   130   155   152    1
   131   139   140    2
   132   139   138    1
   133   105   106    1
   134   140   141    1
   135   143   134   am
   136   135   134    2
   137   109   110    2
   138   151   152    1
   139   134   133    1
   140   138   137    1
   141   137   136    1
   142   152   153    1
   143   154   153    2
   144   136   133    1
   145   133   132    1
   146   122   119    1
   147   122   123    1
   148   115   116    1
   149   115   114    1
   150   116   118   am
   151   116   117    2
   152   118   119    1
   153   119   120    1
   154   130   129   ar
   155   120   121    2
   156   129   131   ar
   157   129   128    1
   158   128   125    1
   159   124   125    1
   160   125   126    1
   161   126   127    2
