@<TRIPOS>MOLECULE
tmp/3lxpA00.pdb
 161 151 0 0 0
SMALL
GASTEIGER

@<TRIPOS>ATOM
      1  N          1.2850   32.4230  -38.1700 N.3    14  ARG14      -0.1245
      2  CA         1.9020   32.3600  -36.8520 C.3    14  ARG14       0.1563
      3  C          1.7700   30.9750  -36.2250 C.2    14  ARG14       0.2260
      4  O          0.9520   30.1630  -36.6570 O.2    14  ARG14      -0.2867
      5  CB         1.2540   33.3770  -35.9140 C.3    14  ARG14       0.0307
      6  CG        -0.1700   33.0300  -35.4840 C.3    14  ARG14       0.0489
      7  CD        -0.7800   34.1370  -34.6460 C.3    14  ARG14       0.2205
      8  NE        -2.2190   33.9660  -34.4240 N.pl3  14  ARG14      -0.0865
      9  CZ        -2.7800   33.4490  -33.3260 C.cat  14  ARG14       0.5346
     10  NH1       -2.0460   32.9970  -32.3120 N.pl3  14  ARG14       0.1354
     11  NH2       -4.1060   33.3640  -33.2460 N.pl3  14  ARG14       0.1354
     12  N          0.6740   28.4820  -33.1470 N.3    16  LEU16      -0.1231
     13  CA        -0.5100   28.4730  -32.2860 C.3    16  LEU16       0.1693
     14  C         -0.3330   27.6690  -30.9860 C.2    16  LEU16       0.2593
     15  O         -0.7890   28.0970  -29.9190 O.2    16  LEU16      -0.2718
     16  CB        -1.7230   27.9300  -33.0570 C.3    16  LEU16       0.0284
     17  CG        -2.2580   28.7670  -34.2260 C.3    16  LEU16       0.0019
     18  CD1       -3.3540   27.9910  -34.9490 C.3    16  LEU16       0.0001
     19  CD2       -2.7870   30.1140  -33.7480 C.3    16  LEU16       0.0001
     20  N          0.3040   26.5020  -31.0780 N.am   17  GLY17      -0.1942
     21  CA         0.4380   25.6200  -29.9160 C.3    17  GLY17       0.2014
     22  C          1.2790   24.3940  -30.1990 C.2    17  GLY17       0.2639
     23  O          1.5450   24.0650  -31.3510 O.2    17  GLY17      -0.2714
     24  N          1.7130   23.7150  -29.1400 N.am   18  GLU18      -0.1963
     25  CA         2.4820   22.4840  -29.2860 C.3    18  GLU18       0.1733
     26  C          1.7340   21.3700  -28.5840 C.2    18  GLU18       0.2616
     27  O          1.4220   21.4940  -27.4040 O.2    18  GLU18      -0.2715
     28  CB         3.8840   22.6200  -28.6780 C.3    18  GLU18       0.0429
     29  CG         4.6740   21.3210  -28.7420 C.3    18  GLU18       0.1163
     30  CD         6.1010   21.4330  -28.2430 C.2    18  GLU18       0.3649
     31  OE1        6.5490   20.5020  -27.5330 O.co2  18  GLU18      -0.2457
     32  OE2        6.7710   22.4440  -28.5650 O.co2  18  GLU18      -0.2457
     33  N          1.4210   20.3030  -29.3120 N.am   19  GLY19      -0.1955
     34  CA         0.7620   19.1470  -28.7240 C.3    19  GLY19       0.1869
     35  C          1.7470   18.0210  -28.5040 C.2    19  GLY19       0.2309
     36  O          2.9570   18.2030  -28.6350 O.2    19  GLY19      -0.2863
     37  N          1.1890   23.0210  -33.9200 N.3    24  VAL24      -0.1245
     38  CA         0.0840   23.6280  -34.6760 C.3    24  VAL24       0.1561
     39  C          0.4070   25.0800  -35.0080 C.2    24  VAL24       0.2260
     40  O          0.8010   25.8550  -34.1250 O.2    24  VAL24      -0.2867
     41  CB        -1.2330   23.6190  -33.8750 C.3    24  VAL24       0.0252
     42  CG1       -2.4000   24.0400  -34.7620 C.3    24  VAL24       0.0019
     43  CG2       -1.4990   22.2320  -33.2940 C.3    24  VAL24       0.0019
     44  N         -5.8100   25.8130  -39.4050 N.3    39  ALA39      -0.1245
     45  CA        -4.7660   25.3490  -38.5090 C.3    39  ALA39       0.1562
     46  C         -4.1120   24.1170  -39.1280 C.2    39  ALA39       0.2260
     47  O         -4.8100   23.2140  -39.5920 O.2    39  ALA39      -0.2867
     48  CB        -5.3660   25.0090  -37.1500 C.3    39  ALA39       0.0290
     49  N         -1.1900   21.1400  -38.3720 N.3    41  LYS41      -0.1245
     50  CA        -0.4140   20.4980  -37.3360 C.3    41  LYS41       0.1561
     51  C          0.5580   19.5470  -38.0200 C.2    41  LYS41       0.2260
     52  O          0.1630   18.7970  -38.9080 O.2    41  LYS41      -0.2867
     53  CB        -1.3260   19.7450  -36.3640 C.3    41  LYS41       0.0271
     54  CG        -0.6550   19.2420  -35.1150 C.3    41  LYS41       0.0035
     55  CD        -1.6830   18.6020  -34.1830 C.3    41  LYS41       0.0206
     56  CE        -1.1410   18.2670  -32.8170 C.3    41  LYS41       0.1093
     57  NZ        -2.2300   17.6350  -32.0040 N.3    41  LYS41      -0.1314
     58  N        -12.6620   19.1570  -32.3880 N.3    71  ILE71      -0.1245
     59  CA       -11.9820   20.0100  -33.3700 C.3    71  ILE71       0.1561
     60  C        -12.1560   19.4000  -34.7570 C.2    71  ILE71       0.2260
     61  O        -11.9360   18.2150  -34.9500 O.2    71  ILE71      -0.2867
     62  CB       -10.4690   20.2020  -33.0030 C.3    71  ILE71       0.0252
     63  CG1       -9.8450   21.3340  -33.8420 C.3    71  ILE71       0.0019
     64  CG2       -9.6690   18.8740  -33.0810 C.3    71  ILE71       0.0019
     65  CD1      -10.3860   22.7290  -33.4630 C.3    71  ILE71       0.0001
     66  N         -6.9440   21.5110  -39.8900 N.3    89  MET89      -0.1230
     67  CA        -8.0960   21.6060  -39.0090 C.3    89  MET89       0.1702
     68  C         -8.6880   23.0070  -39.0790 C.2    89  MET89       0.2592
     69  O         -8.0330   23.9580  -39.5550 O.2    89  MET89      -0.2718
     70  CB        -7.6970   21.3290  -37.5670 C.3    89  MET89       0.0401
     71  CG        -7.1910   19.9370  -37.3410 C.3    89  MET89       0.0596
     72  SD        -6.5930   19.7210  -35.6450 S.3    89  MET89      -0.1393
     73  CE        -4.9820   20.5070  -35.7780 C.3    89  MET89       0.0692
     74  N         -9.9090   23.1460  -38.5630 N.am   90  GLU90      -0.1966
     75  CA       -10.5130   24.4570  -38.4500 C.3    90  GLU90       0.1733
     76  C         -9.6540   25.2970  -37.5190 C.2    90  GLU90       0.2616
     77  O         -8.9570   24.7770  -36.6500 O.2    90  GLU90      -0.2715
     78  CB       -11.9510   24.3730  -37.9250 C.3    90  GLU90       0.0429
     79  CG       -12.0460   24.0390  -36.4390 C.3    90  GLU90       0.1163
     80  CD       -13.4660   23.7440  -35.9970 C.2    90  GLU90       0.3649
     81  OE1      -13.6440   22.8350  -35.1580 O.co2  90  GLU90      -0.2457
     82  OE2      -14.4020   24.4030  -36.5170 O.co2  90  GLU90      -0.2457
     83  N         -9.7040   26.5950  -37.7180 N.am   91  TYR91      -0.1960
     84  CA        -9.0100   27.5360  -36.8600 C.3    91  TYR91       0.1771
     85  C         -9.9840   28.0130  -35.7990 C.2    91  TYR91       0.2619
     86  O        -11.0720   28.4890  -36.1240 O.2    91  TYR91      -0.2715
     87  CB        -8.5200   28.6860  -37.7150 C.3    91  TYR91       0.0574
     88  CG        -7.9590   29.8570  -36.9740 C.ar   91  TYR91      -0.0198
     89  CD1       -7.1080   29.6910  -35.8870 C.ar   91  TYR91      -0.0009
     90  CD2       -8.2520   31.1510  -37.3880 C.ar   91  TYR91      -0.0009
     91  CE1       -6.5810   30.7750  -35.2190 C.ar   91  TYR91       0.0417
     92  CE2       -7.7350   32.2320  -36.7360 C.ar   91  TYR91       0.0417
     93  CZ        -6.8980   32.0470  -35.6530 C.ar   91  TYR91       0.1957
     94  OH        -6.3840   33.1430  -35.0040 O.3    91  TYR91      -0.2866
     95  N         -9.5980   27.8620  -34.5340 N.am   92  VAL92      -0.1964
     96  CA       -10.4140   28.2960  -33.3950 C.3    92  VAL92       0.1712
     97  C         -9.6300   29.3750  -32.6290 C.2    92  VAL92       0.2458
     98  O         -8.7220   29.0900  -31.8350 O.2    92  VAL92      -0.2730
     99  CB       -10.8460   27.0970  -32.5270 C.3    92  VAL92       0.0289
    100  CG1      -11.8370   26.2320  -33.3010 C.3    92  VAL92       0.0023
    101  CG2       -9.6480   26.2770  -32.0780 C.3    92  VAL92       0.0023
    102  N         -9.9380   30.6470  -32.9200 N.am   93  PRO93      -0.2727
    103  CA        -8.9940   31.7110  -32.5840 C.3    93  PRO93       0.1402
    104  C         -8.8220   32.0780  -31.1060 C.2    93  PRO93       0.2269
    105  O         -7.8790   32.7940  -30.7730 O.2    93  PRO93      -0.2865
    106  CB        -9.5280   32.9190  -33.3720 C.3    93  PRO93       0.0296
    107  CG       -10.9090   32.6370  -33.6430 C.3    93  PRO93       0.0237
    108  CD       -11.1080   31.1540  -33.6550 C.3    93  PRO93       0.0939
    109  N         -8.1590   29.8630  -28.7610 N.3    95  GLY95      -0.1210
    110  CA        -7.1450   28.9750  -28.1910 C.3    95  GLY95       0.1956
    111  C         -7.7050   28.1120  -27.0750 C.2    95  GLY95       0.2612
    112  O         -8.9170   27.8490  -27.0320 O.2    95  GLY95      -0.2717
    113  N         -6.8250   27.6430  -26.1940 N.am   96  SER96      -0.1952
    114  CA        -7.2110   26.6800  -25.1700 C.3    96  SER96       0.1924
    115  C         -7.7550   27.3730  -23.9400 C.2    96  SER96       0.2314
    116  O         -7.4540   28.5340  -23.6960 O.2    96  SER96      -0.2863
    117  CB        -6.0300   25.8090  -24.7530 C.3    96  SER96       0.2116
    118  OG        -5.1770   26.5050  -23.8730 O.3    96  SER96      -0.2180
    119  N         -5.0440   28.8910  -21.6270 N.3    99  ASP99      -0.1239
    120  CA        -4.5000   30.2260  -21.9290 C.3    99  ASP99       0.1674
    121  C         -5.5830   31.3040  -21.8350 C.2    99  ASP99       0.2266
    122  O         -5.2830   32.4580  -21.5180 O.2    99  ASP99      -0.2867
    123  CB        -3.8180   30.2470  -23.3040 C.3    99  ASP99       0.1410
    124  CG        -2.6150   29.3130  -23.3760 C.2    99  ASP99       0.3668
    125  OD1       -2.4740   28.5950  -24.3820 O.co2  99  ASP99      -0.2456
    126  OD2       -1.8200   29.2630  -22.4120 O.co2  99  ASP99      -0.2456
    127  N         -5.6730   22.3340  -21.1590 N.3   138  ARG138     -0.1231
    128  CA        -4.7400   22.6800  -22.2590 C.3   138  ARG138      0.1694
    129  C         -5.2570   22.1950  -23.6080 C.2   138  ARG138      0.2592
    130  O         -4.9130   22.7610  -24.6360 O.2   138  ARG138     -0.2718
    131  CB        -3.3200   22.0930  -22.0400 C.3   138  ARG138      0.0321
    132  CG        -3.2780   20.5890  -21.8190 C.3   138  ARG138      0.0489
    133  CD        -1.8590   19.9790  -21.7710 C.3   138  ARG138      0.2205
    134  NE        -1.9110   18.6450  -21.1440 N.pl3 138  ARG138     -0.0865
    135  CZ        -1.9720   18.4310  -19.8300 C.cat 138  ARG138      0.5346
    136  NH1       -1.9210   19.4480  -18.9720 N.pl3 138  ARG138      0.1354
    137  NH2       -2.0510   17.1910  -19.3630 N.pl3 138  ARG138      0.1354
    138  N         -6.0590   21.1400  -23.6000 N.am  139  ASN139     -0.1974
    139  CA        -6.5140   20.4980  -24.8240 C.3   139  ASN139      0.1688
    140  C         -7.9750   20.7690  -25.1420 C.2   139  ASN139      0.2292
    141  O         -8.5410   20.1460  -26.0560 O.2   139  ASN139     -0.2864
    142  CB        -6.2530   18.9880  -24.7170 C.3   139  ASN139      0.1181
    143  CG        -4.7780   18.6770  -24.6040 C.2   139  ASN139      0.2629
    144  OD1       -3.9460   19.4370  -25.1100 O.2   139  ASN139     -0.2716
    145  ND2       -4.4380   17.5900  -23.9160 N.am  139  ASN139     -0.0877
    146  N        -10.3360   23.6080  -26.5630 N.3   141  LEU141     -0.1245
    147  CA       -10.1660   24.8110  -27.3670 C.3   141  LEU141      0.1561
    148  C        -11.4980   25.5350  -27.4850 C.2   141  LEU141      0.2260
    149  O        -12.5580   24.9270  -27.3470 O.2   141  LEU141     -0.2867
    150  CB        -9.6650   24.4370  -28.7590 C.3   141  LEU141      0.0270
    151  CG        -8.3360   23.6580  -28.7570 C.3   141  LEU141      0.0019
    152  CD1       -8.0800   23.0340  -30.0900 C.3   141  LEU141      0.0001
    153  CD2       -7.1680   24.5460  -28.3760 C.3   141  LEU141      0.0001
    154  N         -6.0810   17.9730  -29.3580 N.3   152  ASP152     -0.1239
    155  CA        -4.9400   17.0520  -29.1980 C.3   152  ASP152      0.1674
    156  C         -5.1240   15.5700  -28.9540 C.2   152  ASP152      0.2266
    157  O         -4.7840   15.0200  -27.8840 O.2   152  ASP152     -0.2867
    158  CB        -3.8960   17.5560  -28.2030 C.3   152  ASP152      0.1410
    159  CG        -2.5220   16.9250  -28.4260 C.2   152  ASP152      0.3668
    160  OD1       -2.4000   16.0640  -29.3230 O.co2 152  ASP152     -0.2456
    161  OD2       -1.5540   17.3120  -27.7310 O.co2 152  ASP152     -0.2456
@<TRIPOS>BOND
     1    66    67    1
     2    47    46    2
     3    69    68    2
     4    44    45    1
     5    46    45    1
     6    68    67    1
     7    68    74   am
     8    67    70    1
     9    52    51    2
    10    74    75    1
    11    45    48    1
    12    75    78    1
    13    75    76    1
    14    49    50    1
    15     1     2    1
    16    51    50    1
    17    78    79    1
    18    83    76   am
    19    83    84    1
    20    87    88    1
    21    87    84    1
    22    70    71    1
    23    76    77    2
    24    90    88   ar
    25    90    92   ar
    26    71    72    1
    27    50    53    1
    28    88    89   ar
    29    84    85    1
    30     2     3    1
    31     2     5    1
    32    92    93   ar
    33     4     3    2
    34    82    80   ar
    35    79    80    1
    36    53    54    1
    37    86    85    2
    38    80    81   ar
    39     5     6    1
    40    89    91   ar
    41    85    95   am
    42    73    72    1
    43    93    91   ar
    44    93    94    1
    45     6     7    1
    46    54    55    1
    47    39    38    1
    48    39    40    2
    49    61    60    2
    50    18    17    1
    51    42    41    1
    52    60    59    1
    53    38    37    1
    54    38    41    1
    55     7     8    1
    56    95    96    1
    57     8     9    2
    58    17    19    1
    59    17    16    1
    60    55    56    1
    61    41    43    1
    62    63    65    1
    63    63    62    1
    64   108   107    1
    65   108   102    1
    66   107   106    1
    67    96    97    1
    68    96    99    1
    69   106   103    1
    70    59    62    1
    71    59    58    1
    72     9    11    1
    73     9    10    1
    74   100    99    1
    75    12    13    1
    76    64    62    1
    77    16    13    1
    78   102    97   am
    79   102   103    1
    80    56    57    1
    81    97    98    2
    82   103   104    1
    83    99   101    1
    84    13    14    1
    85    23    22    2
    86   104   105    2
    87    20    14   am
    88    20    21    1
    89    14    15    2
    90    22    21    1
    91    22    24   am
    92   152   151    1
    93   154   155    1
    94   160   159   ar
    95    33    34    1
    96    33    26   am
    97    25    24    1
    98    25    28    1
    99    25    26    1
   100   155   156    1
   101   155   158    1
   102   156   157    2
   103   109   110    1
   104   150   151    1
   105   150   147    1
   106   151   153    1
   107    29    28    1
   108    29    30    1
   109    34    35    1
   110    36    35    2
   111    26    27    2
   112    32    30   ar
   113   159   158    1
   114   159   161   ar
   115    30    31   ar
   116   110   111    1
   117   148   147    1
   118   148   149    2
   119   147   146    1
   120   111   112    2
   121   111   113   am
   122   113   114    1
   123   141   140    2
   124   114   117    1
   125   114   115    1
   126   140   139    1
   127   144   143    2
   128   139   142    1
   129   139   138    1
   130   117   118    1
   131   142   143    1
   132   130   129    2
   133   143   145   am
   134   125   124   ar
   135   115   116    2
   136   129   138   am
   137   129   128    1
   138   124   123    1
   139   124   126   ar
   140   123   120    1
   141   128   131    1
   142   128   127    1
   143   131   132    1
   144   120   121    1
   145   120   119    1
   146   121   122    2
   147   132   133    1
   148   133   134    1
   149   134   135    2
   150   135   137    1
   151   135   136    1
