@<TRIPOS>MOLECULE
tmp/3lxsB00.pdb
 167 162 0 0 0
SMALL
GASTEIGER

@<TRIPOS>ATOM
      1  N         36.0210   -1.8360   29.4940 N.3    19  GLN19      -0.1245
      2  CA        37.1650   -2.6320   29.9040 C.3    19  GLN19       0.1566
      3  C         38.2540   -1.8340   30.5980 C.2    19  GLN19       0.2260
      4  O         39.0820   -2.3810   31.3030 O.2    19  GLN19      -0.2867
      5  CB        37.7340   -3.4090   28.7110 C.3    19  GLN19       0.0367
      6  CG        38.3090   -2.6550   27.6460 C.3    19  GLN19       0.0905
      7  CD        38.5620   -3.4980   26.3610 C.2    19  GLN19       0.2608
      8  OE1       37.6520   -3.9270   25.5970 O.2    19  GLN19      -0.2717
      9  NE2       39.8100   -3.6330   26.0650 N.am   19  GLN19      -0.0878
     10  N         42.8920   -2.2120   30.0600 N.3    22  CYS22      -0.1221
     11  CA        43.1020   -3.6290   30.2430 C.3    22  CYS22       0.1808
     12  C         42.6670   -4.3130   28.9680 C.2    22  CYS22       0.2601
     13  O         41.5730   -4.0190   28.4940 O.2    22  CYS22      -0.2717
     14  CB        42.3020   -4.1370   31.4480 C.3    22  CYS22       0.0970
     15  SG        42.2900   -5.8890   31.7480 S.3    22  CYS22      -0.0800
     16  N         43.4730   -5.2100   28.4220 N.am   23  GLY23      -0.1957
     17  CA        43.1460   -5.9140   27.2060 C.3    23  GLY23       0.1869
     18  C         42.2410   -7.1080   27.4560 C.2    23  GLY23       0.2309
     19  O         42.4890   -8.2300   26.9900 O.2    23  GLY23      -0.2863
     20  N         39.1080   -7.4430   26.4780 N.3    25  CYS25      -0.1221
     21  CA        38.0720   -7.5010   25.4530 C.3    25  CYS25       0.1808
     22  C         37.4900   -8.9190   25.2990 C.2    25  CYS25       0.2601
     23  O         36.2570   -9.0900   25.1710 O.2    25  CYS25      -0.2717
     24  CB        38.5970   -6.9900   24.1190 C.3    25  CYS25       0.0970
     25  SG        40.0150   -7.9600   23.4770 S.3    25  CYS25      -0.0800
     26  N         38.3500   -9.9230   25.2850 N.am   26  TRP26      -0.1976
     27  CA        37.9470  -11.3150   25.1490 C.3    26  TRP26       0.1640
     28  C         36.9430  -11.7300   26.2280 C.2    26  TRP26       0.2290
     29  O         35.9950  -12.4950   25.9590 O.2    26  TRP26      -0.2864
     30  CB        39.2090  -12.1930   25.1740 C.3    26  TRP26       0.0576
     31  CG        39.9640  -12.0900   26.4070 C.ar   26  TRP26       0.0006
     32  CD1       40.9530  -11.1770   26.6960 C.ar   26  TRP26       0.0946
     33  CD2       39.8660  -12.9570   27.5730 C.ar   26  TRP26       0.0152
     34  NE1       41.4230  -11.3690   27.9640 N.ar   26  TRP26      -0.2442
     35  CE2       40.7690  -12.4380   28.5390 C.ar   26  TRP26       0.0810
     36  CE3       39.0770  -14.0670   27.9160 C.ar   26  TRP26       0.0012
     37  CZ2       40.9200  -13.0190   29.7690 C.ar   26  TRP26       0.0191
     38  CZ3       39.2140  -14.6290   29.1710 C.ar   26  TRP26       0.0001
     39  CH2       40.1170  -14.0710   30.0980 C.ar   26  TRP26       0.0015
     40  N         45.0600  -14.7960   29.1920 N.3    61  SER61      -0.1217
     41  CA        46.1180  -13.9610   29.7020 C.3    61  SER61       0.1889
     42  C         45.6320  -12.6340   30.2800 C.2    61  SER61       0.2288
     43  O         46.3080  -11.6080   30.1740 O.2    61  SER61      -0.2866
     44  CB        47.2030  -13.7360   28.6430 C.3    61  SER61       0.2089
     45  OG        47.7930  -14.9720   28.2740 O.3    61  SER61      -0.2183
     46  N         44.7060   -9.0970   31.3070 N.3    63  CYS63      -0.1221
     47  CA        44.7960   -7.8130   30.6200 C.3    63  CYS63       0.1808
     48  C         45.7190   -7.8380   29.4070 C.2    63  CYS63       0.2602
     49  O         45.8290   -6.8040   28.7350 O.2    63  CYS63      -0.2717
     50  CB        45.2420   -6.7270   31.6030 C.3    63  CYS63       0.0970
     51  SG        43.9910   -6.2930   32.8370 S.3    63  CYS63      -0.0800
     52  N         46.3410   -8.9820   29.1180 N.am   64  SER64      -0.1938
     53  CA        47.1750   -9.1600   27.9330 C.3    64  SER64       0.2055
     54  C         46.5380  -10.0660   26.8900 C.2    64  SER64       0.2644
     55  O         47.2070  -10.5460   25.9660 O.2    64  SER64      -0.2714
     56  CB        48.5540   -9.6640   28.3280 C.3    64  SER64       0.2130
     57  OG        49.2460   -8.7140   29.1370 O.3    64  SER64      -0.2179
     58  N         45.2320  -10.2860   26.9860 N.am   65  GLY65      -0.1939
     59  CA        44.5080  -10.9770   25.8820 C.3    65  GLY65       0.2014
     60  C         44.0370  -12.3770   26.1530 C.2    65  GLY65       0.2639
     61  O         44.4410  -12.9840   27.1080 O.2    65  GLY65      -0.2714
     62  N         43.2120  -12.8930   25.2390 N.am   66  GLY66      -0.1939
     63  CA        42.6570  -14.2020   25.3630 C.3    66  GLY66       0.2014
     64  C         41.8000  -14.5270   24.1760 C.2    66  GLY66       0.2639
     65  O         41.7690  -13.7760   23.2030 O.2    66  GLY66      -0.2714
     66  N         41.1390  -15.6650   24.2710 N.am   67  LEU67      -0.1963
     67  CA        40.2310  -16.1310   23.2140 C.3    67  LEU67       0.1728
     68  C         38.8910  -16.4500   23.8630 C.2    67  LEU67       0.2616
     69  O         38.8270  -17.1400   24.8780 O.2    67  LEU67      -0.2715
     70  CB        40.7440  -17.4450   22.5580 C.3    67  LEU67       0.0311
     71  CG        42.1390  -17.4260   21.9320 C.3    67  LEU67       0.0022
     72  CD1       42.4630  -18.9240   21.5120 C.3    67  LEU67       0.0001
     73  CD2       42.1720  -16.5110   20.7700 C.3    67  LEU67       0.0001
     74  N         37.8070  -15.9860   23.2330 N.am   68  MET68      -0.1977
     75  CA        36.4790  -16.2650   23.7630 C.3    68  MET68       0.1605
     76  C         36.2050  -17.7400   23.8310 C.2    68  MET68       0.2287
     77  O         35.6310  -18.2230   24.7950 O.2    68  MET68      -0.2864
     78  CB        35.3880  -15.5270   22.9610 C.3    68  MET68       0.0413
     79  CG        35.4500  -14.0380   23.0240 C.3    68  MET68       0.0598
     80  SD        36.7030  -13.2410   22.0550 S.3    68  MET68      -0.1393
     81  CE        35.9060  -13.2610   20.4140 C.3    68  MET68       0.0692
     82  N         35.5330  -12.5960   17.0760 N.3   138  ALA138     -0.1245
     83  CA        36.8100  -11.9370   16.9930 C.3   138  ALA138      0.1562
     84  C         36.7930  -11.0560   15.7450 C.2   138  ALA138      0.2260
     85  O         36.2300  -11.4000   14.6970 O.2   138  ALA138     -0.2867
     86  CB        37.9510  -12.9460   16.9570 C.3   138  ALA138      0.0290
     87  N         40.1530   -4.9690   14.9130 N.3   141  ALA141     -0.1231
     88  CA        39.6810   -3.6390   15.2900 C.3   141  ALA141      0.1694
     89  C         40.7630   -2.5210   15.2310 C.2   141  ALA141      0.2592
     90  O         40.5920   -1.4070   15.7550 O.2   141  ALA141     -0.2718
     91  CB        39.0090   -3.6430   16.6640 C.3   141  ALA141      0.0304
     92  N         41.9010   -2.8560   14.6140 N.am  142  SER142     -0.1952
     93  CA        42.9670   -1.8620   14.5060 C.3   142  SER142      0.1924
     94  C         42.5680   -0.5640   13.8820 C.2   142  SER142      0.2314
     95  O         43.0560    0.4910   14.2870 O.2   142  SER142     -0.2863
     96  CB        44.1530   -2.4420   13.7550 C.3   142  SER142      0.2116
     97  OG        43.8280   -2.8550   12.4140 O.3   142  SER142     -0.2180
     98  N         39.8800    3.2700   15.4530 N.3   145  MET145     -0.1245
     99  CA        40.2930    4.2900   16.4120 C.3   145  MET145      0.1570
    100  C         39.6420    5.6670   16.2110 C.2   145  MET145      0.2261
    101  O         39.6720    6.4970   17.1400 O.2   145  MET145     -0.2867
    102  CB        41.8090    4.4710   16.3620 C.3   145  MET145      0.0387
    103  CG        42.5920    3.2260   16.6880 C.3   145  MET145      0.0595
    104  SD        42.3090    2.5110   18.3120 S.3   145  MET145     -0.1393
    105  CE        41.1370    1.2270   17.9580 C.3   145  MET145      0.0692
    106  N         44.3390   -9.0120   10.8630 N.3   159  GLN159     -0.1231
    107  CA        44.7250   -9.7910   12.0240 C.3   159  GLN159      0.1698
    108  C         43.6460   -9.6470   13.1230 C.2   159  GLN159      0.2592
    109  O         43.3090   -8.5410   13.5290 O.2   159  GLN159     -0.2718
    110  CB        46.0550   -9.2620   12.5680 C.3   159  GLN159      0.0381
    111  CG        46.5370   -9.9140   13.8010 C.3   159  GLN159      0.0905
    112  CD        46.6960  -11.4050   13.6590 C.2   159  GLN159      0.2608
    113  OE1       47.4000  -11.8630   12.7720 O.2   159  GLN159     -0.2717
    114  NE2       46.0340  -12.1860   14.5440 N.am  159  GLN159     -0.0878
    115  N         43.1250  -10.7840   13.5740 N.am  160  LEU160     -0.1966
    116  CA        42.1620  -10.7840   14.6460 C.3   160  LEU160      0.1728
    117  C         42.8660  -10.2550   15.8800 C.2   160  LEU160      0.2616
    118  O         43.9620  -10.7410   16.2360 O.2   160  LEU160     -0.2715
    119  CB        41.6560  -12.2090   14.9090 C.3   160  LEU160      0.0311
    120  CG        40.8560  -12.8420   13.7700 C.3   160  LEU160      0.0022
    121  CD1       40.5620  -14.2980   14.0930 C.3   160  LEU160      0.0001
    122  CD2       39.5790  -11.9880   13.5010 C.3   160  LEU160      0.0001
    123  N         42.3260   -9.2070   16.5120 N.am  161  ASP161     -0.1957
    124  CA        43.0040   -8.5910   17.6270 C.3   161  ASP161      0.1840
    125  C         42.0710   -8.0810   18.7600 C.2   161  ASP161      0.2622
    126  O         42.5240   -7.4660   19.7110 O.2   161  ASP161     -0.2715
    127  CB        43.9210   -7.4360   17.1440 C.3   161  ASP161      0.1450
    128  CG        43.1720   -6.2680   16.5670 C.2   161  ASP161      0.3671
    129  OD1       41.9430   -6.1350   16.7870 O.co2 161  ASP161     -0.2456
    130  OD2       43.8130   -5.3800   15.9050 O.co2 161  ASP161     -0.2456
    131  N         40.7770   -8.3930   18.5940 N.am  162  HIS162     -0.1959
    132  CA        39.7210   -7.8720   19.4630 C.3   162  HIS162      0.1787
    133  C         38.5730   -8.8620   19.4990 C.2   162  HIS162      0.2620
    134  O         38.4240   -9.6480   18.5970 O.2   162  HIS162     -0.2715
    135  CB        39.2670   -6.5310   18.9060 C.3   162  HIS162      0.0785
    136  CG        38.3640   -5.7360   19.8050 C.ar  162  HIS162      0.0821
    137  ND1       38.3990   -5.8610   21.1720 N.ar  162  HIS162     -0.2267
    138  CD2       37.4180   -4.8140   19.5280 C.ar  162  HIS162      0.1154
    139  CE1       37.5380   -4.9960   21.7000 C.ar  162  HIS162      0.1986
    140  NE2       36.9200   -4.3530   20.7260 N.ar  162  HIS162     -0.2212
    141  N         37.8040   -8.8230   20.5760 N.am  163  GLY163     -0.1954
    142  CA        36.5870   -9.5800   20.7460 C.3   163  GLY163      0.1869
    143  C         35.4470   -8.6390   21.0900 C.2   163  GLY163      0.2309
    144  O         35.5810   -7.7780   21.9390 O.2   163  GLY163     -0.2863
    145  N         34.0800   -0.3080   25.0490 N.3   184  TRP184     -0.1241
    146  CA        34.9280    0.8900   25.1570 C.3   184  TRP184      0.1605
    147  C         34.1030    2.1000   25.6370 C.2   184  TRP184      0.2264
    148  O         34.4130    3.2380   25.2560 O.2   184  TRP184     -0.2867
    149  CB        35.6410    1.2160   23.8250 C.3   184  TRP184      0.0550
    150  CG        36.5700    0.1730   23.3260 C.ar  184  TRP184      0.0003
    151  CD1       37.0250   -0.9400   23.9800 C.ar  184  TRP184      0.0946
    152  CD2       37.1380    0.1170   22.0080 C.ar  184  TRP184      0.0152
    153  NE1       37.8400   -1.6820   23.1580 N.ar  184  TRP184     -0.2442
    154  CE2       37.9390   -1.0500   21.9400 C.ar  184  TRP184      0.0810
    155  CE3       37.0770    0.9670   20.8950 C.ar  184  TRP184      0.0012
    156  CZ2       38.6190   -1.4330   20.7850 C.ar  184  TRP184      0.0191
    157  CZ3       37.7710    0.5960   19.7400 C.ar  184  TRP184      0.0001
    158  CH2       38.5530   -0.5620   19.6980 C.ar  184  TRP184      0.0015
    159  N         35.8580  -16.1910   13.4760 N.3   208  GLU208     -0.1245
    160  CA        35.9180  -16.8250   14.7920 C.3   208  GLU208      0.1567
    161  C         34.6850  -16.4500   15.5970 C.2   208  GLU208      0.2260
    162  O         34.7370  -15.7050   16.5620 O.2   208  GLU208     -0.2867
    163  CB        37.2140  -16.3980   15.5030 C.3   208  GLU208      0.0388
    164  CG        37.6150  -17.1940   16.7110 C.3   208  GLU208      0.1160
    165  CD        38.9410  -16.6720   17.2320 C.2   208  GLU208      0.3649
    166  OE1       39.9610  -16.9030   16.5330 O.co2 208  GLU208     -0.2457
    167  OE2       38.9240  -16.0000   18.3080 O.co2 208  GLU208     -0.2457
@<TRIPOS>BOND
     1   106   107    1
     2   107   110    1
     3   107   108    1
     4    97    96    1
     5   110   111    1
     6   113   112    2
     7   108   109    2
     8   108   115   am
     9   159   160    1
    10   122   120    1
    11   115   116    1
    12   112   111    1
    13   112   114   am
    14    96    93    1
    15   120   121    1
    16   120   119    1
    17    94    95    2
    18    94    93    1
    19    93    92    1
    20    92    89   am
    21   116   119    1
    22   116   117    1
    23    85    84    2
    24   160   163    1
    25   160   161    1
    26    87    88    1
    27    89    88    1
    28    89    90    2
    29    88    91    1
    30    98    99    1
    31   163   164    1
    32   161   162    2
    33    84    83    1
    34   117   118    2
    35   117   123   am
    36   130   128   ar
    37   100    99    1
    38   100   101    2
    39   102    99    1
    40   102   103    1
    41   123   124    1
    42   166   165   ar
    43   128   129   ar
    44   128   127    1
    45   103   104    1
    46   164   165    1
    47    86    83    1
    48    83    82    1
    49   127   124    1
    50   165   167   ar
    51   124   125    1
    52   105   104    1
    53   131   125   am
    54   131   132    1
    55   134   133    2
    56   125   126    2
    57   135   132    1
    58   135   136    1
    59   132   133    1
    60   133   141   am
    61   138   136   ar
    62   138   140   ar
    63   158   157   ar
    64   158   156   ar
    65   157   155   ar
    66   136   137   ar
    67    81    80    1
    68   141   142    1
    69   140   139   ar
    70   142   143    1
    71    73    71    1
    72   156   154   ar
    73   155   152   ar
    74   143   144    2
    75   137   139   ar
    76    72    71    1
    77    71    70    1
    78   154   152   ar
    79   154   153   ar
    80   152   150   ar
    81    80    79    1
    82    70    67    1
    83    78    79    1
    84    78    75    1
    85   153   151   ar
    86    65    64    2
    87    67    68    1
    88    67    66    1
    89    74    75    1
    90    74    68   am
    91   150   149    1
    92   150   151   ar
    93    25    24    1
    94    75    76    1
    95   149   146    1
    96    76    77    2
    97    68    69    2
    98    24    21    1
    99    64    66   am
   100    64    63    1
   101   145   146    1
   102    27    30    1
   103    27    26    1
   104    27    28    1
   105   146   147    1
   106    23    22    2
   107    30    31    1
   108    62    63    1
   109    62    60   am
   110   148   147    2
   111    26    22   am
   112    22    21    1
   113    21    20    1
   114     8     7    2
   115    59    60    1
   116    59    58    1
   117    29    28    2
   118    55    54    2
   119     9     7   am
   120    60    61    2
   121     7     6    1
   122    31    32   ar
   123    31    33   ar
   124    32    34   ar
   125    54    58   am
   126    54    53    1
   127    19    18    2
   128    17    18    1
   129    17    16    1
   130    33    36   ar
   131    33    35   ar
   132     6     5    1
   133    36    38   ar
   134    53    56    1
   135    53    52    1
   136    34    35   ar
   137    45    44    1
   138    56    57    1
   139    16    12   am
   140    13    12    2
   141    35    37   ar
   142    44    41    1
   143     5     2    1
   144    49    48    2
   145    12    11    1
   146    52    48   am
   147    38    39   ar
   148    40    41    1
   149    48    47    1
   150     1     2    1
   151    41    42    1
   152    37    39   ar
   153     2     3    1
   154    10    11    1
   155    43    42    2
   156    11    14    1
   157     3     4    2
   158    47    46    1
   159    47    50    1
   160    14    15    1
   161    50    51    1
   162    15    51    1
