@<TRIPOS>MOLECULE
tmp/3lxvD00.pdb
 103 100 0 0 0
SMALL
GASTEIGER

@<TRIPOS>ATOM
      1  N        -31.8870  -17.4580  -15.2400 N.3    24  TYR24      -0.1241
      2  CA       -33.1990  -16.9420  -15.6010 C.3    24  TYR24       0.1605
      3  C        -33.8490  -18.0100  -16.5010 C.2    24  TYR24       0.2264
      4  O        -33.5760  -18.0770  -17.7000 O.2    24  TYR24      -0.2867
      5  CB       -33.0350  -15.6270  -16.3410 C.3    24  TYR24       0.0534
      6  CG       -34.3080  -15.0140  -16.8500 C.ar   24  TYR24      -0.0201
      7  CD1      -35.5510  -15.3080  -16.2500 C.ar   24  TYR24      -0.0009
      8  CD2      -34.2830  -14.1110  -17.9040 C.ar   24  TYR24      -0.0009
      9  CE1      -36.7460  -14.7340  -16.7260 C.ar   24  TYR24       0.0417
     10  CE2      -35.4950  -13.5100  -18.3920 C.ar   24  TYR24       0.0417
     11  CZ       -36.6960  -13.8220  -17.7850 C.ar   24  TYR24       0.1957
     12  OH       -37.8640  -13.2440  -18.2640 O.3    24  TYR24      -0.2866
     13  N        -36.6110  -19.1850  -18.0450 N.3    26  THR26      -0.1218
     14  CA       -37.3530  -19.0570  -19.3030 C.3    26  THR26       0.1862
     15  C        -36.4580  -18.6500  -20.4850 C.2    26  THR26       0.2287
     16  O        -36.7980  -18.8940  -21.6220 O.2    26  THR26      -0.2866
     17  CB       -38.4770  -18.0290  -19.1240 C.3    26  THR26       0.1770
     18  OG1      -39.3670  -18.5030  -18.1090 O.3    26  THR26      -0.2211
     19  CG2      -39.2610  -17.9370  -20.3600 C.3    26  THR26       0.0375
     20  N        -49.2300   -7.1690   -9.5890 N.3   108  TYR108     -0.1241
     21  CA       -49.5620   -6.6040  -10.8870 C.3   108  TYR108      0.1605
     22  C        -51.0680   -6.6820  -11.1640 C.2   108  TYR108      0.2264
     23  O        -51.7020   -7.6910  -10.8990 O.2   108  TYR108     -0.2867
     24  CB       -48.8340   -7.3620  -12.0170 C.3   108  TYR108      0.0534
     25  CG       -47.3590   -7.0560  -12.1170 C.ar  108  TYR108     -0.0201
     26  CD1      -46.8940   -5.9970  -12.9130 C.ar  108  TYR108     -0.0009
     27  CD2      -46.4250   -7.8150  -11.4220 C.ar  108  TYR108     -0.0009
     28  CE1      -45.4930   -5.6890  -13.0160 C.ar  108  TYR108      0.0417
     29  CE2      -45.0290   -7.5080  -11.5020 C.ar  108  TYR108      0.0417
     30  CZ       -44.5930   -6.4530  -12.3070 C.ar  108  TYR108      0.1957
     31  OH       -43.2610   -6.1640  -12.4360 O.3   108  TYR108     -0.2866
     32  N        -41.5850   -8.6560   -5.9740 N.3   147  HIS147     -0.1241
     33  CA       -42.5860   -9.5470   -6.5300 C.3   147  HIS147      0.1621
     34  C        -41.9750  -10.9380   -6.5520 C.2   147  HIS147      0.2264
     35  O        -40.9560  -11.1270   -7.1840 O.2   147  HIS147     -0.2867
     36  CB       -42.9170   -9.0810   -7.9560 C.3   147  HIS147      0.0745
     37  CG       -43.7520  -10.0470   -8.7240 C.ar  147  HIS147      0.0817
     38  ND1      -45.1290  -10.0530   -8.6550 N.ar  147  HIS147     -0.2268
     39  CD2      -43.4120  -11.0370   -9.5810 C.ar  147  HIS147      0.1154
     40  CE1      -45.6020  -11.0170   -9.4290 C.ar  147  HIS147      0.1986
     41  NE2      -44.5820  -11.6250  -10.0050 N.ar  147  HIS147     -0.2212
     42  N        -41.6960  -14.8880   -7.7410 N.3   149  TRP149     -0.1241
     43  CA       -41.9440  -15.4320   -9.0670 C.3   149  TRP149      0.1605
     44  C        -41.3500  -16.8170   -9.1640 C.2   149  TRP149      0.2264
     45  O        -40.3550  -17.1610   -8.4760 O.2   149  TRP149     -0.2867
     46  CB       -41.4070  -14.5010  -10.1720 C.3   149  TRP149      0.0550
     47  CG       -39.8970  -14.2400  -10.1900 C.ar  149  TRP149      0.0003
     48  CD1      -39.1340  -13.6230   -9.2140 C.ar  149  TRP149      0.0946
     49  CD2      -39.0060  -14.5460  -11.2580 C.ar  149  TRP149      0.0152
     50  NE1      -37.8290  -13.5700   -9.6020 N.ar  149  TRP149     -0.2442
     51  CE2      -37.7200  -14.1180  -10.8610 C.ar  149  TRP149      0.0810
     52  CE3      -39.1750  -15.1240  -12.5350 C.ar  149  TRP149      0.0012
     53  CZ2      -36.6070  -14.2610  -11.6750 C.ar  149  TRP149      0.0191
     54  CZ3      -38.0540  -15.2480  -13.3660 C.ar  149  TRP149      0.0001
     55  CH2      -36.7920  -14.8260  -12.9300 C.ar  149  TRP149      0.0015
     56  N        -38.2870  -10.5610   -7.3740 N.3   157  ARG157     -0.1245
     57  CA       -37.7530   -9.4470   -8.1410 C.3   157  ARG157      0.1563
     58  C        -37.4920   -8.3300   -7.1430 C.2   157  ARG157      0.2260
     59  O        -38.3060   -8.1380   -6.2760 O.2   157  ARG157     -0.2867
     60  CB       -38.7730   -8.9360   -9.1630 C.3   157  ARG157      0.0307
     61  CG       -39.2510   -9.9540  -10.2360 C.3   157  ARG157      0.0489
     62  CD       -38.1230  -10.5600  -11.1120 C.3   157  ARG157      0.2205
     63  NE       -36.9490   -9.6690  -11.3200 N.pl3 157  ARG157     -0.0865
     64  CZ       -36.9290   -8.6070  -12.1210 C.cat 157  ARG157      0.5346
     65  NH1      -35.8210   -7.9000  -12.2140 N.pl3 157  ARG157      0.1354
     66  NH2      -38.0030   -8.2540  -12.8310 N.pl3 157  ARG157      0.1354
     67  N        -39.0540   -2.7700   -8.8620 N.3   160  HIS160     -0.1241
     68  CA       -38.6260   -2.3330  -10.2040 C.3   160  HIS160      0.1621
     69  C        -39.7720   -1.7140  -11.0010 C.2   160  HIS160      0.2264
     70  O        -40.9390   -2.0200  -10.7570 O.2   160  HIS160     -0.2867
     71  CB       -38.0340   -3.5210  -10.9720 C.3   160  HIS160      0.0745
     72  CG       -39.0360   -4.6020  -11.2630 C.ar  160  HIS160      0.0817
     73  ND1      -39.4730   -5.4880  -10.3060 N.ar  160  HIS160     -0.2268
     74  CD2      -39.6890   -4.9300  -12.4070 C.ar  160  HIS160      0.1154
     75  CE1      -40.3450   -6.3260  -10.8450 C.ar  160  HIS160      0.1986
     76  NE2      -40.5010   -6.0010  -12.1160 N.ar  160  HIS160     -0.2212
     77  N        -40.7740   -1.1760  -15.0760 N.3   162  HIS162     -0.1241
     78  CA       -40.4170   -1.4600  -16.4760 C.3   162  HIS162      0.1621
     79  C        -40.4580   -0.1830  -17.2690 C.2   162  HIS162      0.2264
     80  O        -41.3480    0.6250  -17.0290 O.2   162  HIS162     -0.2867
     81  CB       -41.4120   -2.4540  -17.0660 C.3   162  HIS162      0.0745
     82  CG       -41.3820   -3.7850  -16.3870 C.ar  162  HIS162      0.0817
     83  ND1      -40.6250   -4.8330  -16.8670 N.ar  162  HIS162     -0.2268
     84  CD2      -41.9880   -4.2360  -15.2610 C.ar  162  HIS162      0.1154
     85  CE1      -40.7790   -5.8780  -16.0730 C.ar  162  HIS162      0.1986
     86  NE2      -41.5870   -5.5380  -15.0850 N.ar  162  HIS162     -0.2212
     87  N        -35.4520   -2.1720  -17.2910 N.3   177  GLN177     -0.1245
     88  CA       -36.0810   -2.0660  -15.9760 C.3   177  GLN177      0.1566
     89  C        -35.2320   -1.1560  -15.1020 C.2   177  GLN177      0.2260
     90  O        -34.0120   -1.1650  -15.2230 O.2   177  GLN177     -0.2867
     91  CB       -36.2090   -3.4350  -15.3340 C.3   177  GLN177      0.0367
     92  CG       -37.0880   -4.3560  -16.1700 C.3   177  GLN177      0.0905
     93  CD       -37.2870   -5.7300  -15.5290 C.2   177  GLN177      0.2608
     94  OE1      -37.2700   -5.8730  -14.3000 O.2   177  GLN177     -0.2717
     95  NE2      -37.5030   -6.7380  -16.3670 N.am  177  GLN177     -0.0878
     96  N        -32.5840  -12.1080  -13.2320 N.3   191  ILE191     -0.1245
     97  CA       -32.8950  -11.1960  -14.3360 C.3   191  ILE191      0.1561
     98  C        -31.9360   -9.9900  -14.3610 C.2   191  ILE191      0.2260
     99  O        -31.3460   -9.6770  -15.3980 O.2   191  ILE191     -0.2867
    100  CB       -34.3890  -10.7560  -14.3280 C.3   191  ILE191      0.0252
    101  CG1      -35.2710  -11.9600  -14.7060 C.3   191  ILE191      0.0019
    102  CG2      -34.5830   -9.5940  -15.3200 C.3   191  ILE191      0.0019
    103  CD1      -36.8080  -11.7550  -14.5610 C.3   191  ILE191      0.0001
@<TRIPOS>BOND
     1    16    15    2
     2    15    14    1
     3    19    17    1
     4    14    17    1
     5    14    13    1
     6    17    18    1
     7    10     8   ar
     8    10    11   ar
     9    12    11    1
    10     8     6   ar
    11    11     9   ar
    12     4     3    2
    13    87    88    1
    14    79    80    2
    15    79    78    1
    16    81    78    1
    17    81    82    1
    18    83    82   ar
    19    83    85   ar
    20     6     5    1
    21     6     7   ar
    22     9     7   ar
    23     3     2    1
    24    78    77    1
    25    82    84   ar
    26    95    93   am
    27     5     2    1
    28    92    93    1
    29    92    91    1
    30    85    86   ar
    31    88    91    1
    32    88    89    1
    33     2     1    1
    34    93    94    2
    35    99    98    2
    36   102   100    1
    37    84    86   ar
    38    90    89    2
    39   101   103    1
    40   101   100    1
    41    98    97    1
    42    97   100    1
    43    97    96    1
    44    54    55   ar
    45    54    52   ar
    46    28    26   ar
    47    28    30   ar
    48    55    53   ar
    49    26    25   ar
    50    66    64    1
    51    52    49   ar
    52    31    30    1
    53    74    76   ar
    54    74    72   ar
    55    30    29   ar
    56    65    64    1
    57    64    63    2
    58    25    24    1
    59    25    27   ar
    60    76    75   ar
    61    24    21    1
    62    53    51   ar
    63    29    27   ar
    64    63    62    1
    65    72    71    1
    66    72    73   ar
    67    49    51   ar
    68    49    47   ar
    69    22    23    2
    70    22    21    1
    71    62    61    1
    72    69    70    2
    73    69    68    1
    74    71    68    1
    75    21    20    1
    76    51    50   ar
    77    75    73   ar
    78    61    60    1
    79    68    67    1
    80    47    46    1
    81    47    48   ar
    82    46    43    1
    83    41    39   ar
    84    41    40   ar
    85    50    48   ar
    86    39    37   ar
    87    40    38   ar
    88    44    43    1
    89    44    45    2
    90    60    57    1
    91    43    42    1
    92    37    38   ar
    93    37    36    1
    94    57    56    1
    95    57    58    1
    96    36    33    1
    97    35    34    2
    98    58    59    2
    99    34    33    1
   100    33    32    1
