@<TRIPOS>MOLECULE
tmp/3lxxA00.pdb
 156 149 0 0 0
SMALL
GASTEIGER

@<TRIPOS>ATOM
      1  N         10.9540   24.4990    8.5860 N.3    11  THR11      -0.1203
      2  CA        11.6290   24.2630    7.3160 C.3    11  THR11       0.1994
      3  C         10.6550   24.5160    6.1730 C.2    11  THR11       0.2618
      4  O          9.5500   23.9860    6.1750 O.2    11  THR11      -0.2717
      5  CB        12.1770   22.8160    7.2560 C.3    11  THR11       0.1784
      6  OG1       13.2190   22.6780    8.2210 O.3    11  THR11      -0.2211
      7  CG2       12.7360   22.4810    5.8730 C.3    11  THR11       0.0376
      8  N         11.0600   25.3410    5.2100 N.am   12  GLY12      -0.1942
      9  CA        10.2060   25.6990    4.0630 C.3    12  GLY12       0.2014
     10  C          9.4640   27.0280    4.2420 C.2    12  GLY12       0.2639
     11  O          8.7210   27.4440    3.3590 O.2    12  GLY12      -0.2714
     12  N          9.6610   27.6930    5.3760 N.am   13  ALA13      -0.1963
     13  CA         8.9990   28.9820    5.6470 C.3    13  ALA13       0.1728
     14  C          9.5970   30.1210    4.8440 C.2    13  ALA13       0.2617
     15  O          8.9050   31.0760    4.5290 O.2    13  ALA13      -0.2715
     16  CB         9.0590   29.3090    7.1310 C.3    13  ALA13       0.0334
     17  N         10.8830   30.0120    4.5190 N.am   14  GLY14      -0.1940
     18  CA        11.6280   31.0880    3.8670 C.3    14  GLY14       0.2014
     19  C         12.6030   31.8180    4.7850 C.2    14  GLY14       0.2639
     20  O         12.9260   32.9850    4.5420 O.2    14  GLY14      -0.2714
     21  N         13.0720   31.1490    5.8450 N.am   15  LYS15      -0.1963
     22  CA        14.0680   31.7380    6.7470 C.3    15  LYS15       0.1728
     23  C         15.3150   32.2120    5.9900 C.2    15  LYS15       0.2617
     24  O         15.7110   33.3890    6.0590 O.2    15  LYS15      -0.2715
     25  CB        14.4660   30.7310    7.8410 C.3    15  LYS15       0.0311
     26  CG        13.4000   30.5140    8.9220 C.3    15  LYS15       0.0038
     27  CD        13.8070   29.4230    9.9240 C.3    15  LYS15       0.0206
     28  CE        13.9090   28.0300    9.2780 C.3    15  LYS15       0.1093
     29  NZ        13.9880   26.9130   10.2960 N.3    15  LYS15      -0.1314
     30  N         15.9330   31.2870    5.2670 N.am   16  SER16      -0.1936
     31  CA        17.2050   31.5690    4.6180 C.3    16  SER16       0.2055
     32  C         17.0620   32.6790    3.5700 C.2    16  SER16       0.2642
     33  O         17.8810   33.5890    3.5130 O.2    16  SER16      -0.2714
     34  CB        17.7830   30.2940    4.0210 C.3    16  SER16       0.2130
     35  OG        18.0400   29.3380    5.0380 O.3    16  SER16      -0.2179
     36  N         16.0010   32.6010    2.7720 N.am   17  ALA17      -0.1977
     37  CA        15.6470   33.6480    1.8120 C.3    17  ALA17       0.1597
     38  C         15.4410   35.0090    2.4860 C.2    17  ALA17       0.2287
     39  O         15.9170   36.0210    1.9940 O.2    17  ALA17      -0.2864
     40  CB        14.3750   33.2340    1.0140 C.3    17  ALA17       0.0319
     41  N         21.6260   29.4180    2.1930 N.3    29  HIS29      -0.1226
     42  CA        21.2540   28.4440    1.1630 C.3    29  HIS29       0.1752
     43  C         19.7700   28.1400    1.2500 C.2    29  HIS29       0.2596
     44  O         19.2980   27.4310    2.1540 O.2    29  HIS29      -0.2718
     45  CB        22.1150   27.2070    1.3090 C.3    29  HIS29       0.0759
     46  CG        23.5760   27.5270    1.3550 C.ar   29  HIS29       0.0818
     47  ND1       24.2760   27.6310    2.5410 N.ar   29  HIS29      -0.2268
     48  CD2       24.4470   27.8530    0.3700 C.ar   29  HIS29       0.1154
     49  CE1       25.5310   27.9570    2.2760 C.ar   29  HIS29       0.1986
     50  NE2       25.6610   28.0960    0.9660 N.ar   29  HIS29      -0.2212
     51  N         19.0500   28.7120    0.2900 N.am   30  SER30      -0.1952
     52  CA        17.6020   28.8140    0.3130 C.3    30  SER30       0.1924
     53  C         17.0170   27.7410   -0.5890 C.2    30  SER30       0.2314
     54  O         17.3540   27.6980   -1.7720 O.2    30  SER30      -0.2863
     55  CB        17.1990   30.2160   -0.1690 C.3    30  SER30       0.2116
     56  OG        15.8160   30.4550   -0.0320 O.3    30  SER30      -0.2180
     57  N         20.0340   24.0530    4.8490 N.3    31  THR31      -0.1218
     58  CA        20.3280   24.5270    6.2230 C.3    31  THR31       0.1862
     59  C         20.3260   23.3630    7.2370 C.2    31  THR31       0.2287
     60  O         19.3280   23.1220    7.9240 O.2    31  THR31      -0.2866
     61  CB        19.3340   25.6640    6.6970 C.3    31  THR31       0.1770
     62  OG1       19.0370   26.5630    5.6140 O.3    31  THR31      -0.2211
     63  CG2       19.9050   26.4560    7.9130 C.3    31  THR31       0.0375
     64  N         20.6080   32.4250   10.9210 N.3    50  ASP50      -0.1225
     65  CA        19.6290   31.5970   10.2580 C.3    50  ASP50       0.1805
     66  C         19.6440   30.2280   10.9280 C.2    50  ASP50       0.2598
     67  O         20.7050   29.6950   11.2420 O.2    50  ASP50      -0.2718
     68  CB        20.0180   31.5170    8.7750 C.3    50  ASP50       0.1424
     69  CG        19.0360   30.7330    7.9280 C.2    50  ASP50       0.3668
     70  OD1       17.8650   30.5890    8.3320 O.co2  50  ASP50      -0.2456
     71  OD2       19.4440   30.2760    6.8320 O.co2  50  ASP50      -0.2456
     72  N         18.4720   29.6520   11.1670 N.am   51  THR51      -0.1953
     73  CA        18.3760   28.3960   11.9230 C.3    51  THR51       0.1897
     74  C         17.8640   27.2390   11.0790 C.2    51  THR51       0.2313
     75  O         17.0550   27.4350   10.1620 O.2    51  THR51      -0.2863
     76  CB        17.4490   28.5440   13.1580 C.3    51  THR51       0.1794
     77  OG1       16.1410   28.9350   12.7360 O.3    51  THR51      -0.2208
     78  CG2       18.0030   29.5830   14.1340 C.3    51  THR51       0.0378
     79  N          0.8390   28.7740    2.3170 N.3    85  ARG85      -0.1245
     80  CA         1.3070   27.4470    2.7090 C.3    85  ARG85       0.1563
     81  C          1.3080   27.2640    4.2280 C.2    85  ARG85       0.2260
     82  O          2.1650   26.5510    4.7680 O.2    85  ARG85      -0.2867
     83  CB         2.7320   27.2280    2.2030 C.3    85  ARG85       0.0307
     84  CG         2.9250   27.5020    0.7360 C.3    85  ARG85       0.0489
     85  CD         4.2940   27.0320    0.2740 C.3    85  ARG85       0.2205
     86  NE         4.3450   26.9160   -1.1730 N.pl3  85  ARG85      -0.0865
     87  CZ         5.3990   26.4910   -1.8620 C.cat  85  ARG85       0.5346
     88  NH1        6.5190   26.1400   -1.2460 N.pl3  85  ARG85       0.1354
     89  NH2        5.3310   26.4160   -3.1860 N.pl3  85  ARG85       0.1354
     90  N          6.4110   35.4300    4.3540 N.3   112  THR112     -0.1203
     91  CA         7.0480   35.3010    3.0330 C.3   112  THR112      0.1994
     92  C          5.9890   34.9570    1.9770 C.2   112  THR112      0.2617
     93  O          4.8150   34.7690    2.3060 O.2   112  THR112     -0.2717
     94  CB         8.1600   34.2340    3.0480 C.3   112  THR112      0.1784
     95  OG1        7.6060   32.9640    3.3900 O.3   112  THR112     -0.2211
     96  CG2        9.2180   34.6020    4.0560 C.3   112  THR112      0.0376
     97  N          6.4130   34.9000    0.7150 N.am  113  ARG113     -0.1979
     98  CA         5.5460   34.5550   -0.4190 C.3   113  ARG113      0.1597
     99  C          4.4400   35.5940   -0.6180 C.2   113  ARG113      0.2287
    100  O          3.2950   35.2680   -0.9180 O.2   113  ARG113     -0.2864
    101  CB         4.9680   33.1290   -0.2700 C.3   113  ARG113      0.0334
    102  CG         5.9900   32.0910    0.2560 C.3   113  ARG113      0.0492
    103  CD         5.5180   30.6750    0.0290 C.3   113  ARG113      0.2205
    104  NE         5.6470   30.3220   -1.3760 N.pl3 113  ARG113     -0.0865
    105  CZ         6.7010   29.7290   -1.9380 C.cat 113  ARG113      0.5346
    106  NH1        6.6840   29.4880   -3.2430 N.pl3 113  ARG113      0.1354
    107  NH2        7.7620   29.3750   -1.2290 N.pl3 113  ARG113      0.1354
    108  N          4.3660   37.6330   -3.0370 N.3   115  ASP115     -0.1225
    109  CA         4.1240   37.5660   -4.4690 C.3   115  ASP115      0.1805
    110  C          3.0910   36.5130   -4.8760 C.2   115  ASP115      0.2597
    111  O          2.4970   36.6190   -5.9450 O.2   115  ASP115     -0.2718
    112  CB         5.4530   37.3230   -5.2210 C.3   115  ASP115      0.1424
    113  CG         6.2490   36.1320   -4.6710 C.2   115  ASP115      0.3668
    114  OD1        6.4000   36.0070   -3.4220 O.co2 115  ASP115     -0.2456
    115  OD2        6.7470   35.3300   -5.4930 O.co2 115  ASP115     -0.2456
    116  N          2.8800   35.5010   -4.0330 N.am  116  ASP116     -0.1974
    117  CA         1.8340   34.4950   -4.2760 C.3   116  ASP116      0.1709
    118  C          0.4440   35.1060   -4.1140 C.2   116  ASP116      0.2293
    119  O         -0.5600   34.4770   -4.4760 O.2   116  ASP116     -0.2864
    120  CB         1.9940   33.2790   -3.3460 C.3   116  ASP116      0.1436
    121  CG         3.1260   32.3530   -3.7690 C.2   116  ASP116      0.3671
    122  OD1        3.6230   32.4710   -4.9160 O.co2 116  ASP116     -0.2456
    123  OD2        3.5120   31.4900   -2.9490 O.co2 116  ASP116     -0.2456
    124  N          7.0460   39.8390    2.9960 N.3   134  LEU134     -0.1231
    125  CA         8.1870   39.9420    2.0750 C.3   134  LEU134      0.1693
    126  C          7.9050   39.1770    0.7920 C.2   134  LEU134      0.2592
    127  O          7.2490   38.1620    0.8240 O.2   134  LEU134     -0.2718
    128  CB         9.4590   39.3770    2.7190 C.3   134  LEU134      0.0284
    129  CG        10.0510   40.1190    3.9370 C.3   134  LEU134      0.0019
    130  CD1       11.2880   39.4120    4.4550 C.3   134  LEU134      0.0001
    131  CD2       10.3800   41.5850    3.5990 C.3   134  LEU134      0.0001
    132  N          8.3880   39.7030   -0.3310 N.am  135  ASN135     -0.1960
    133  CA         8.5880   38.9260   -1.5610 C.3   135  ASN135      0.1819
    134  C         10.0730   38.7630   -1.7000 C.2   135  ASN135      0.2621
    135  O         10.7540   39.6560   -2.1820 O.2   135  ASN135     -0.2715
    136  CB         7.9920   39.6610   -2.7810 C.3   135  ASN135      0.1195
    137  CG         8.4450   39.0750   -4.1220 C.2   135  ASN135      0.2630
    138  OD1        8.9640   37.9660   -4.2020 O.2   135  ASN135     -0.2716
    139  ND2        8.2230   39.8290   -5.1840 N.am  135  ASN135     -0.0877
    140  N         10.6030   37.6360   -1.2440 N.am  136  ASN136     -0.1958
    141  CA        12.0600   37.4320   -1.2450 C.3   136  ASN136      0.1819
    142  C         12.6390   37.2180   -2.6490 C.2   136  ASN136      0.2621
    143  O         13.8500   37.1770   -2.8080 O.2   136  ASN136     -0.2715
    144  CB        12.4490   36.2480   -0.3570 C.3   136  ASN136      0.1195
    145  CG        12.1690   36.4920    1.1030 C.2   136  ASN136      0.2630
    146  OD1       12.5860   37.5020    1.6610 O.2   136  ASN136     -0.2716
    147  ND2       11.5040   35.5310    1.7510 N.am  136  ASN136     -0.0877
    148  N         11.7760   37.0650   -3.6500 N.am  137  LYS137     -0.1977
    149  CA        12.2180   36.9870   -5.0430 C.3   137  LYS137      0.1596
    150  C         12.3410   38.3830   -5.6910 C.2   137  LYS137      0.2287
    151  O         12.8030   38.5140   -6.8310 O.2   137  LYS137     -0.2864
    152  CB        11.2470   36.1210   -5.8560 C.3   137  LYS137      0.0298
    153  CG        11.0210   34.7080   -5.2640 C.3   137  LYS137      0.0038
    154  CD        12.2900   33.8670   -5.3100 C.3   137  LYS137      0.0206
    155  CE        12.0000   32.3660   -5.1670 C.3   137  LYS137      0.1093
    156  NZ        12.8140   31.5530   -6.1140 N.3   137  LYS137     -0.1314
@<TRIPOS>BOND
     1   151   150    2
     2   156   155    1
     3   111   110    2
     4   152   153    1
     5   152   149    1
     6   150   149    1
     7   115   113   ar
     8   154   153    1
     9   154   155    1
    10   112   113    1
    11   112   109    1
    12   139   137   am
    13   149   148    1
    14   122   121   ar
    15   110   109    1
    16   110   116   am
    17   113   114   ar
    18   119   118    2
    19   109   108    1
    20   117   118    1
    21   117   116    1
    22   117   120    1
    23   138   137    2
    24   137   136    1
    25   121   120    1
    26   121   123   ar
    27   148   142   am
    28   106   105    1
    29    89    87    1
    30   143   142    2
    31   136   133    1
    32   142   141    1
    33   135   134    2
    34   105   104    2
    35   105   107    1
    36    87    88    1
    37    87    86    2
    38    54    53    2
    39   134   133    1
    40   134   140   am
    41   133   132    1
    42   104   103    1
    43   141   140    1
    44   141   144    1
    45    86    85    1
    46   100    99    2
    47    99    98    1
    48    53    52    1
    49    98   101    1
    50    98    97    1
    51   144   145    1
    52   132   126   am
    53   101   102    1
    54    55    56    1
    55    55    52    1
    56   103   102    1
    57    85    84    1
    58    51    52    1
    59    51    43   am
    60    48    50   ar
    61    48    46   ar
    62    97    92   am
    63    84    83    1
    64   126   127    2
    65   126   125    1
    66    50    49   ar
    67    40    37    1
    68   145   146    2
    69   145   147   am
    70    42    43    1
    71    42    45    1
    72    42    41    1
    73    43    44    2
    74    45    46    1
    75    46    47   ar
    76    37    38    1
    77    37    36    1
    78    92    93    2
    79    92    91    1
    80    39    38    2
    81   125   128    1
    82   125   124    1
    83    83    80    1
    84    49    47   ar
    85    79    80    1
    86    80    81    1
    87   128   129    1
    88    36    32   am
    89    91    94    1
    90    91    90    1
    91    94    95    1
    92    94    96    1
    93    11    10    2
    94    33    32    2
    95    32    31    1
    96   131   129    1
    97    18    17    1
    98    18    19    1
    99   129   130    1
   100    34    31    1
   101    34    35    1
   102     9    10    1
   103     9     8    1
   104    81    82    2
   105    10    12   am
   106    17    14   am
   107    15    14    2
   108    20    19    2
   109    31    30    1
   110    19    21   am
   111    14    13    1
   112    57    58    1
   113     8     3   am
   114    30    23   am
   115    12    13    1
   116    62    61    1
   117    13    16    1
   118    21    22    1
   119     7     5    1
   120    23    24    2
   121    23    22    1
   122     3     4    2
   123     3     2    1
   124    58    61    1
   125    58    59    1
   126    61    63    1
   127    22    25    1
   128    71    69   ar
   129    59    60    2
   130     5     2    1
   131     5     6    1
   132     2     1    1
   133    25    26    1
   134    69    70   ar
   135    69    68    1
   136    68    65    1
   137    26    27    1
   138    28    27    1
   139    28    29    1
   140    75    74    2
   141    65    64    1
   142    65    66    1
   143    66    72   am
   144    66    67    2
   145    74    73    1
   146    72    73    1
   147    73    76    1
   148    77    76    1
   149    76    78    1
