@<TRIPOS>MOLECULE
tmp/3lxyA00.pdb
 79 77 0 0 0
SMALL
GASTEIGER

@<TRIPOS>ATOM
      1  N         36.7840    6.8990   14.5640 N.3   212  HIS212     -0.1226
      2  CA        36.2150    7.1220   13.2100 C.3   212  HIS212      0.1752
      3  C         34.8570    6.4050   13.0240 C.2   212  HIS212      0.2595
      4  O         34.4570    6.1250   11.8910 O.2   212  HIS212     -0.2718
      5  CB        37.1710    6.6870   12.0770 C.3   212  HIS212      0.0759
      6  CG        38.4910    7.3800   12.0980 C.ar  212  HIS212      0.0818
      7  ND1       39.3750    7.3190   11.0380 N.ar  212  HIS212     -0.2268
      8  CD2       39.1280    8.0620   13.0840 C.ar  212  HIS212      0.1154
      9  CE1       40.4750    7.9800   11.3600 C.ar  212  HIS212      0.1986
     10  NE2       40.3420    8.4510   12.5910 N.ar  212  HIS212     -0.2212
     11  N         34.1400    6.2020   14.1320 N.am  213  ALA213     -0.1980
     12  CA        32.8880    5.4470   14.1810 C.3   213  ALA213      0.1597
     13  C         33.0270    4.1660   13.3810 C.2   213  ALA213      0.2287
     14  O         32.1310    3.7580   12.6790 O.2   213  ALA213     -0.2864
     15  CB        31.6950    6.2760   13.7400 C.3   213  ALA213      0.0319
     16  N         34.8620    3.3660   10.8480 N.3   215  GLU215     -0.1231
     17  CA        35.3390    3.5140    9.4450 C.3   215  GLU215      0.1699
     18  C         34.8670    2.3920    8.5210 C.2   215  GLU215      0.2592
     19  O         35.6630    1.6760    7.9060 O.2   215  GLU215     -0.2718
     20  CB        36.8770    3.6330    9.3800 C.3   215  GLU215      0.0402
     21  CG        37.3580    4.2080    8.0450 C.3   215  GLU215      0.1161
     22  CD        38.6840    4.9120    8.1560 C.2   215  GLU215      0.3649
     23  OE1       39.7290    4.2660    7.8850 O.co2 215  GLU215     -0.2457
     24  OE2       38.6710    6.1090    8.5330 O.co2 215  GLU215     -0.2457
     25  N         33.5550    2.2020    8.4810 N.am  216  GLY216     -0.1957
     26  CA        32.9440    1.3460    7.4850 C.3   216  GLY216      0.1869
     27  C         33.1800   -0.0840    7.8300 C.2   216  GLY216      0.2309
     28  O         33.1550   -0.9230    6.9320 O.2   216  GLY216     -0.2863
     29  N         29.4400   -0.2890   15.3690 N.3   223  GLU223     -0.1231
     30  CA        28.5460    0.6810   14.7520 C.3   223  GLU223      0.1699
     31  C         27.5410   -0.0200   13.8060 C.2   223  GLU223      0.2592
     32  O         26.3480    0.2390   13.8730 O.2   223  GLU223     -0.2718
     33  CB        29.3030    1.7680   13.9870 C.3   223  GLU223      0.0402
     34  CG        30.0110    2.7460   14.9060 C.3   223  GLU223      0.1161
     35  CD        31.3080    2.2230   15.4770 C.2   223  GLU223      0.3649
     36  OE1       31.7840    1.0720   15.1820 O.co2 223  GLU223     -0.2457
     37  OE2       31.8900    2.9820   16.2680 O.co2 223  GLU223     -0.2457
     38  N         28.0440   -0.9270   12.9730 N.am  224  ILE224     -0.1980
     39  CA        27.2510   -1.6270   11.9840 C.3   224  ILE224      0.1595
     40  C         26.3290   -2.6630   12.6180 C.2   224  ILE224      0.2287
     41  O         25.1840   -2.7160   12.2540 O.2   224  ILE224     -0.2864
     42  CB        28.1350   -2.3160   10.8940 C.3   224  ILE224      0.0276
     43  CG1       28.8580   -1.2570   10.0410 C.3   224  ILE224      0.0022
     44  CG2       27.3000   -3.2690    9.9890 C.3   224  ILE224      0.0022
     45  CD1       30.1100   -1.8250    9.3160 C.3   224  ILE224      0.0001
     46  N         24.0050    1.4460   14.8820 N.3   228  ILE228     -0.1245
     47  CA        23.1890    1.9220   13.7810 C.3   228  ILE228      0.1561
     48  C         21.7510    1.3300   13.8530 C.2   228  ILE228      0.2260
     49  O         20.7800    2.0930   13.8550 O.2   228  ILE228     -0.2867
     50  CB        23.9090    1.7470   12.3830 C.3   228  ILE228      0.0252
     51  CG1       25.0160    2.8150   12.2720 C.3   228  ILE228      0.0019
     52  CG2       22.8840    1.8570   11.2170 C.3   228  ILE228      0.0019
     53  CD1       26.1140    2.5590   11.1470 C.3   228  ILE228      0.0001
     54  N         24.0130   10.4710   13.8830 N.3   243  GLY243     -0.1210
     55  CA        25.2110    9.7560   14.1140 C.3   243  GLY243      0.1940
     56  C         24.9560    8.3360   13.7330 C.2   243  GLY243      0.2454
     57  O         23.9400    8.1010   13.1280 O.2   243  GLY243     -0.2732
     58  N         25.8340    7.4230   14.1430 N.am  244  PRO244     -0.2717
     59  CA        26.9940    7.7510   15.0240 C.3   244  PRO244      0.1535
     60  C         28.0970    8.5180   14.2750 C.2   244  PRO244      0.2598
     61  O         28.3750    8.2260   13.0690 O.2   244  PRO244     -0.2715
     62  CB        27.4820    6.3800   15.4670 C.3   244  PRO244      0.0310
     63  CG        27.0450    5.4670   14.3710 C.3   244  PRO244      0.0237
     64  CD        25.7880    5.9840   13.8060 C.3   244  PRO244      0.0939
     65  N         28.6560    9.5130   14.9480 N.am  245  LEU245     -0.1964
     66  CA        29.7680   10.2960   14.4520 C.3   245  LEU245      0.1713
     67  C         31.1060   10.0030   15.1950 C.2   245  LEU245      0.2458
     68  O         31.1160    9.5960   16.3710 O.2   245  LEU245     -0.2730
     69  CB        29.4310   11.7720   14.5580 C.3   245  LEU245      0.0310
     70  CG        28.4850   12.2870   13.4730 C.3   245  LEU245      0.0022
     71  CD1       27.9890   13.6510   13.9920 C.3   245  LEU245      0.0001
     72  CD2       29.1810   12.4310   12.1000 C.3   245  LEU245      0.0001
     73  N         32.2430   10.1660   14.4930 N.am  246  PRO246     -0.2727
     74  CA        33.5240   10.1430   15.2210 C.3   246  PRO246      0.1402
     75  C         33.5310   11.1420   16.3090 C.2   246  PRO246      0.2269
     76  O         33.2500   12.3420   16.0830 O.2   246  PRO246     -0.2865
     77  CB        34.5740   10.5000   14.1770 C.3   246  PRO246      0.0296
     78  CG        33.9200   10.1580   12.8330 C.3   246  PRO246      0.0237
     79  CD        32.4360   10.3740   13.0410 C.3   246  PRO246      0.0939
@<TRIPOS>BOND
     1    28    27    2
     2    26    27    1
     3    26    25    1
     4    23    22   ar
     5    19    18    2
     6    21    22    1
     7    21    20    1
     8    22    24   ar
     9    25    18   am
    10    18    17    1
    11    45    43    1
    12    20    17    1
    13    17    16    1
    14    44    42    1
    15    43    42    1
    16    42    39    1
    17     7     9   ar
    18     7     6   ar
    19    53    51    1
    20    52    50    1
    21     9    10   ar
    22     4     3    2
    23    39    40    1
    24    39    38    1
    25     5     6    1
    26     5     2    1
    27     6     8   ar
    28    72    70    1
    29    41    40    2
    30    51    50    1
    31    50    47    1
    32    10     8   ar
    33    14    13    2
    34    78    79    1
    35    78    77    1
    36    38    31   am
    37     3     2    1
    38     3    11   am
    39    79    73    1
    40    61    60    2
    41    57    56    2
    42     2     1    1
    43    13    12    1
    44    70    71    1
    45    70    69    1
    46    56    55    1
    47    56    58   am
    48    15    12    1
    49    47    48    1
    50    47    46    1
    51    64    58    1
    52    64    63    1
    53    31    32    2
    54    31    30    1
    55    48    49    2
    56    54    55    1
    57    33    30    1
    58    33    34    1
    59    11    12    1
    60    58    59    1
    61    77    74    1
    62    60    65   am
    63    60    59    1
    64    63    62    1
    65    66    69    1
    66    66    65    1
    67    66    67    1
    68    73    67   am
    69    73    74    1
    70    30    29    1
    71    34    35    1
    72    59    62    1
    73    36    35   ar
    74    67    68    2
    75    74    75    1
    76    35    37   ar
    77    76    75    2
