@<TRIPOS>MOLECULE
tmp/3ly0B00.pdb
 152 146 0 0 0
SMALL
GASTEIGER

@<TRIPOS>ATOM
      1  N         55.7720   47.7080  -10.6100 N.3     9  HIS9       -0.1241
      2  CA        57.0530   47.5860   -9.9180 C.3     9  HIS9        0.1621
      3  C         57.7140   48.9140   -9.6040 C.2     9  HIS9        0.2264
      4  O         57.9860   49.6900  -10.5080 O.2     9  HIS9       -0.2867
      5  CB        58.0320   46.7670  -10.7630 C.3     9  HIS9        0.0745
      6  CG        59.2900   46.4240  -10.0350 C.ar    9  HIS9        0.0817
      7  ND1       59.4100   45.2760   -9.2800 N.ar    9  HIS9       -0.2268
      8  CD2       60.4750   47.0740   -9.9330 C.ar    9  HIS9        0.1154
      9  CE1       60.6200   45.2310   -8.7500 C.ar    9  HIS9        0.1986
     10  NE2       61.2840   46.3090   -9.1260 N.ar    9  HIS9       -0.2212
     11  N         60.8810   50.6880   -6.7690 N.3    11  ASP11      -0.1239
     12  CA        61.9210   50.4830   -5.7730 C.3    11  ASP11       0.1674
     13  C         62.0500   51.6640   -4.8190 C.2    11  ASP11       0.2266
     14  O         63.1370   51.9350   -4.2890 O.2    11  ASP11      -0.2867
     15  CB        63.2510   50.2030   -6.4680 C.3    11  ASP11       0.1410
     16  CG        63.2400   48.8920   -7.2180 C.2    11  ASP11       0.3668
     17  OD1       63.1350   47.8300   -6.5630 O.co2  11  ASP11      -0.2456
     18  OD2       63.3270   48.9030   -8.4670 O.co2  11  ASP11      -0.2456
     19  N         63.9690   44.6050   -2.4490 N.3    54  TYR54      -0.1241
     20  CA        65.0840   44.0800   -3.2210 C.3    54  TYR54       0.1605
     21  C         66.3690   44.2800   -2.4300 C.2    54  TYR54       0.2264
     22  O         66.6150   45.3600   -1.9030 O.2    54  TYR54      -0.2867
     23  CB        65.1320   44.7710   -4.5860 C.3    54  TYR54       0.0534
     24  CG        66.5120   45.0990   -5.0930 C.ar   54  TYR54      -0.0201
     25  CD1       67.3010   44.1380   -5.7120 C.ar   54  TYR54      -0.0009
     26  CD2       67.0090   46.3910   -4.9900 C.ar   54  TYR54      -0.0009
     27  CE1       68.5710   44.4570   -6.1780 C.ar   54  TYR54       0.0417
     28  CE2       68.2560   46.7190   -5.4580 C.ar   54  TYR54       0.0417
     29  CZ        69.0350   45.7540   -6.0480 C.ar   54  TYR54       0.1957
     30  OH        70.2850   46.1110   -6.5130 O.3    54  TYR54      -0.2866
     31  N         73.4340   48.0260   -8.0680 N.3    61  HIS61      -0.1241
     32  CA        72.9570   48.0920   -9.4510 C.3    61  HIS61       0.1621
     33  C         73.2770   49.4260  -10.1130 C.2    61  HIS61       0.2264
     34  O         73.4250   49.5020  -11.3350 O.2    61  HIS61      -0.2867
     35  CB        71.4450   47.8880   -9.4870 C.3    61  HIS61       0.0745
     36  CG        70.6960   48.8870   -8.6630 C.ar   61  HIS61       0.0817
     37  ND1       70.5850   48.7830   -7.2920 N.ar   61  HIS61      -0.2268
     38  CD2       70.0300   50.0140   -9.0100 C.ar   61  HIS61       0.1154
     39  CE1       69.8810   49.8010   -6.8320 C.ar   61  HIS61       0.1986
     40  NE2       69.5340   50.5630   -7.8530 N.ar   61  HIS61      -0.2212
     41  N         76.6060   50.2550  -19.2380 N.3    70  MET70      -0.1245
     42  CA        75.2830   50.1880  -19.8490 C.3    70  MET70       0.1570
     43  C         75.0290   51.3640  -20.8030 C.2    70  MET70       0.2261
     44  O         74.0820   51.3450  -21.5900 O.2    70  MET70      -0.2867
     45  CB        74.1890   50.0470  -18.7720 C.3    70  MET70       0.0387
     46  CG        74.1730   48.6580  -18.0890 C.3    70  MET70       0.0595
     47  SD        72.8610   48.3690  -16.8580 S.3    70  MET70      -0.1393
     48  CE        73.1620   49.8060  -15.8540 C.3    70  MET70       0.0692
     49  N         61.5950   41.0760   -4.6060 N.3   135  GLU135     -0.1245
     50  CA        62.3190   40.9490   -5.8650 C.3   135  GLU135      0.1567
     51  C         63.6060   40.1840   -5.6090 C.2   135  GLU135      0.2260
     52  O         64.6110   40.7590   -5.1870 O.2   135  GLU135     -0.2867
     53  CB        62.6530   42.3340   -6.4410 C.3   135  GLU135      0.0388
     54  CG        63.4670   42.2970   -7.7220 C.3   135  GLU135      0.1160
     55  CD        63.5590   43.6460   -8.3920 C.2   135  GLU135      0.3649
     56  OE1       63.4700   44.6720   -7.6970 O.co2 135  GLU135     -0.2457
     57  OE2       63.7060   43.6860   -9.6250 O.co2 135  GLU135     -0.2457
     58  N         66.4030   37.8910   -8.6070 N.3   162  TRP162     -0.1241
     59  CA        66.8310   39.1090   -9.2680 C.3   162  TRP162      0.1605
     60  C         67.8820   38.6730  -10.3020 C.2   162  TRP162      0.2264
     61  O         67.9550   37.4890  -10.6430 O.2   162  TRP162     -0.2867
     62  CB        67.4040   40.0800   -8.2280 C.3   162  TRP162      0.0550
     63  CG        67.7650   41.4070   -8.7870 C.ar  162  TRP162      0.0003
     64  CD1       66.9100   42.3190   -9.3380 C.ar  162  TRP162      0.0946
     65  CD2       69.0760   41.9770   -8.8830 C.ar  162  TRP162      0.0152
     66  NE1       67.6060   43.4180   -9.7610 N.ar  162  TRP162     -0.2442
     67  CE2       68.9370   43.2360   -9.4970 C.ar  162  TRP162      0.0810
     68  CE3       70.3550   41.5470   -8.5080 C.ar  162  TRP162      0.0012
     69  CZ2       70.0190   44.0740   -9.7420 C.ar  162  TRP162      0.0191
     70  CZ3       71.4250   42.3800   -8.7580 C.ar  162  TRP162      0.0001
     71  CH2       71.2540   43.6270   -9.3650 C.ar  162  TRP162      0.0015
     72  N         72.7040   41.3070  -16.9330 N.3   174  PHE174     -0.1241
     73  CA        72.3610   42.4220  -17.8100 C.3   174  PHE174      0.1605
     74  C         73.2790   42.4250  -19.0160 C.2   174  PHE174      0.2264
     75  O         74.4890   42.6160  -18.8880 O.2   174  PHE174     -0.2867
     76  CB        72.4740   43.7470  -17.0680 C.3   174  PHE174      0.0534
     77  CG        71.5440   43.8610  -15.9110 C.ar  174  PHE174     -0.0203
     78  CD1       70.2150   44.2010  -16.1010 C.ar  174  PHE174     -0.0042
     79  CD2       71.9940   43.6090  -14.6270 C.ar  174  PHE174     -0.0042
     80  CE1       69.3530   44.3020  -15.0250 C.ar  174  PHE174     -0.0003
     81  CE2       71.1400   43.7080  -13.5550 C.ar  174  PHE174     -0.0003
     82  CZ        69.8170   44.0550  -13.7510 C.ar  174  PHE174     -0.0000
     83  N         63.4130   39.1170  -14.4840 N.3   208  HIS208     -0.1241
     84  CA        64.7850   38.7180  -14.0930 C.3   208  HIS208      0.1621
     85  C         65.0880   37.2340  -14.2670 C.2   208  HIS208      0.2264
     86  O         66.2570   36.8600  -14.4080 O.2   208  HIS208     -0.2867
     87  CB        65.1720   39.1570  -12.6660 C.3   208  HIS208      0.0745
     88  CG        65.2740   40.6380  -12.5090 C.ar  208  HIS208      0.0817
     89  ND1       66.4150   41.3460  -12.8190 N.ar  208  HIS208     -0.2268
     90  CD2       64.3620   41.5510  -12.1010 C.ar  208  HIS208      0.1154
     91  CE1       66.1990   42.6330  -12.6120 C.ar  208  HIS208      0.1986
     92  NE2       64.9650   42.7790  -12.1610 N.ar  208  HIS208     -0.2212
     93  N         57.8400   43.7810  -14.8230 N.3   229  HIS229     -0.1241
     94  CA        58.5820   44.8690  -15.4420 C.3   229  HIS229      0.1621
     95  C         59.5500   44.3840  -16.5150 C.2   229  HIS229      0.2264
     96  O         60.7690   44.3730  -16.3280 O.2   229  HIS229     -0.2867
     97  CB        59.2360   45.8160  -14.3950 C.3   229  HIS229      0.0745
     98  CG        60.2190   45.1710  -13.4460 C.ar  229  HIS229      0.0817
     99  ND1       59.8890   44.1400  -12.5870 N.ar  229  HIS229     -0.2268
    100  CD2       61.5130   45.4770  -13.1780 C.ar  229  HIS229      0.1154
    101  CE1       60.9440   43.8280  -11.8490 C.ar  229  HIS229      0.1986
    102  NE2       61.9410   44.6310  -12.1830 N.ar  229  HIS229     -0.2212
    103  N         66.8500   41.0580  -20.5030 N.3   240  ARG240     -0.1245
    104  CA        65.7770   41.2650  -19.5330 C.3   240  ARG240      0.1563
    105  C         64.3880   41.2590  -20.1520 C.2   240  ARG240      0.2260
    106  O         63.3900   41.2450  -19.4330 O.2   240  ARG240     -0.2867
    107  CB        65.9920   42.5770  -18.7840 C.3   240  ARG240      0.0307
    108  CG        66.8640   42.4200  -17.5470 C.3   240  ARG240      0.0489
    109  CD        66.0610   41.8010  -16.4140 C.3   240  ARG240      0.2205
    110  NE        65.2190   42.7800  -15.7320 N.pl3 240  ARG240     -0.0865
    111  CZ        63.8940   42.8590  -15.8280 C.cat 240  ARG240      0.5346
    112  NH1       63.2090   42.0410  -16.6340 N.pl3 240  ARG240      0.1354
    113  NH2       63.2570   43.7850  -15.1240 N.pl3 240  ARG240      0.1354
    114  N         62.5300   51.5030  -17.9290 N.3   262  ALA262     -0.1245
    115  CA        63.9870   51.5590  -18.0250 C.3   262  ALA262      0.1562
    116  C         64.4040   51.8280  -19.4720 C.2   262  ALA262      0.2260
    117  O         64.0310   51.0910  -20.3900 O.2   262  ALA262     -0.2867
    118  CB        64.6110   50.2630  -17.5290 C.3   262  ALA262      0.0290
    119  N         67.1200   51.3320  -20.9510 N.3   264  SER264     -0.1202
    120  CA        67.8760   50.1900  -21.4760 C.3   264  SER264      0.2020
    121  C         67.0090   49.1020  -22.0920 C.2   264  SER264      0.2618
    122  O         67.4760   48.3270  -22.9250 O.2   264  SER264     -0.2717
    123  CB        68.7260   49.5650  -20.3690 C.3   264  SER264      0.2103
    124  OG        69.5190   50.5520  -19.7310 O.3   264  SER264     -0.2182
    125  N         65.7510   49.0310  -21.6700 N.am  265  PHE265     -0.1975
    126  CA        64.8710   47.9510  -22.1120 C.3   265  PHE265      0.1639
    127  C         63.8360   48.4350  -23.1210 C.2   265  PHE265      0.2290
    128  O         63.0390   47.6410  -23.6140 O.2   265  PHE265     -0.2864
    129  CB        64.1620   47.3080  -20.9170 C.3   265  PHE265      0.0560
    130  CG        65.0990   46.8280  -19.8360 C.ar  265  PHE265     -0.0200
    131  CD1       66.4050   46.4600  -20.1360 C.ar  265  PHE265     -0.0042
    132  CD2       64.6560   46.7210  -18.5260 C.ar  265  PHE265     -0.0042
    133  CE1       67.2650   46.0130  -19.1310 C.ar  265  PHE265     -0.0003
    134  CE2       65.5000   46.2790  -17.5210 C.ar  265  PHE265     -0.0003
    135  CZ        66.8090   45.9230  -17.8250 C.ar  265  PHE265     -0.0000
    136  N         59.2800   50.5350  -12.8740 N.3   302  ASP302     -0.1239
    137  CA        60.6290   50.5020  -12.3180 C.3   302  ASP302      0.1674
    138  C         61.0030   51.8820  -11.7690 C.2   302  ASP302      0.2266
    139  O         62.1850   52.2240  -11.6880 O.2   302  ASP302     -0.2867
    140  CB        61.6470   50.0390  -13.3720 C.3   302  ASP302      0.1410
    141  CG        62.6360   49.0140  -12.8380 C.2   302  ASP302      0.3668
    142  OD1       62.7020   48.8090  -11.6030 O.co2 302  ASP302     -0.2456
    143  OD2       63.3620   48.4010  -13.6540 O.co2 302  ASP302     -0.2456
    144  N         64.1310   52.6100   -9.5980 N.3   305  GLY305     -0.1210
    145  CA        64.9780   51.4540   -9.8140 C.3   305  GLY305      0.1956
    146  C         65.8290   51.5680  -11.0600 C.2   305  GLY305      0.2611
    147  O         66.8130   50.8510  -11.2090 O.2   305  GLY305     -0.2717
    148  N         65.4610   52.4770  -11.9610 N.am  306  ALA306     -0.1979
    149  CA        66.1690   52.6100  -13.2240 C.3   306  ALA306      0.1597
    150  C         66.1030   54.0290  -13.7500 C.2   306  ALA306      0.2287
    151  O         65.2670   54.8250  -13.3200 O.2   306  ALA306     -0.2864
    152  CB        65.5730   51.6500  -14.2620 C.3   306  ALA306      0.0319
@<TRIPOS>BOND
     1   128   127    2
     2   127   126    1
     3   122   121    2
     4   126   125    1
     5   126   129    1
     6   121   125   am
     7   121   120    1
     8    44    43    2
     9   120   119    1
    10   120   123    1
    11   129   130    1
    12    43    42    1
    13   103   104    1
    14   117   116    2
    15   123   124    1
    16   105   104    1
    17   105   106    2
    18   131   130   ar
    19   131   133   ar
    20    42    41    1
    21    42    45    1
    22   130   132   ar
    23   104   107    1
    24   116   115    1
    25   133   135   ar
    26    74    75    2
    27    74    73    1
    28   107   108    1
    29    45    46    1
    30   132   134   ar
    31    46    47    1
    32   115   114    1
    33   115   118    1
    34   135   134   ar
    35    73    76    1
    36    73    72    1
    37   108   109    1
    38    76    77    1
    39    47    48    1
    40   112   111    1
    41    95    96    2
    42    95    94    1
    43   109   110    1
    44    78    77   ar
    45    78    80   ar
    46    77    79   ar
    47   111   110    2
    48   111   113    1
    49    94    93    1
    50    94    97    1
    51    80    82   ar
    52    79    81   ar
    53    83    84    1
    54    86    85    2
    55    97    98    1
    56    85    84    1
    57   152   149    1
    58    84    87    1
    59    82    81   ar
    60   150   151    2
    61   150   149    1
    62   143   141   ar
    63    98   100   ar
    64    98    99   ar
    65   140   141    1
    66   140   137    1
    67   149   148    1
    68   100   102   ar
    69   136   137    1
    70   141   142   ar
    71    89    91   ar
    72    89    88   ar
    73    87    88    1
    74    91    92   ar
    75    99   101   ar
    76    88    90   ar
    77   137   138    1
    78   102   101   ar
    79    92    90   ar
    80   148   146   am
    81   138   139    2
    82    34    33    2
    83   147   146    2
    84   146   145    1
    85     5     6    1
    86     5     2    1
    87    61    60    2
    88     1     2    1
    89     4     3    2
    90    60    59    1
    91    33    32    1
    92     6     8   ar
    93     6     7   ar
    94     8    10   ar
    95     2     3    1
    96   145   144    1
    97    66    67   ar
    98    66    64   ar
    99    69    67   ar
   100    69    71   ar
   101    57    55   ar
   102    67    65   ar
   103    35    32    1
   104    35    36    1
   105    32    31    1
   106    71    70   ar
   107    64    63   ar
   108     7     9   ar
   109    59    58    1
   110    59    62    1
   111    10     9   ar
   112    38    36   ar
   113    38    40   ar
   114    65    63   ar
   115    65    68   ar
   116    63    62    1
   117    70    68   ar
   118    36    37   ar
   119    18    16   ar
   120    55    54    1
   121    55    56   ar
   122    40    39   ar
   123    54    53    1
   124    37    39   ar
   125    16    17   ar
   126    16    15    1
   127    11    12    1
   128    30    29    1
   129    15    12    1
   130    53    50    1
   131    27    29   ar
   132    27    25   ar
   133    29    28   ar
   134    50    51    1
   135    50    49    1
   136    12    13    1
   137    25    24   ar
   138    51    52    2
   139    28    26   ar
   140    24    26   ar
   141    24    23    1
   142    13    14    2
   143    23    20    1
   144    20    19    1
   145    20    21    1
   146    21    22    2
