@<TRIPOS>MOLECULE
tmp/3ly1D00.pdb
 133 124 0 0 0
SMALL
GASTEIGER

@<TRIPOS>ATOM
      1  N         48.8660   30.9920   -5.5310 N.3    23  PHE23      -0.1227
      2  CA        48.1430   32.0350   -4.7530 C.3    23  PHE23       0.1736
      3  C         46.6420   32.0980   -5.0320 C.2    23  PHE23       0.2595
      4  O         46.0040   33.1300   -4.7980 O.2    23  PHE23      -0.2718
      5  CB        48.7490   33.4210   -5.0500 C.3    23  PHE23       0.0547
      6  CG        50.2010   33.5390   -4.6820 C.ar   23  PHE23      -0.0202
      7  CD1       50.6360   33.1420   -3.4230 C.ar   23  PHE23      -0.0042
      8  CD2       51.1300   34.0310   -5.5900 C.ar   23  PHE23      -0.0042
      9  CE1       51.9790   33.2370   -3.0710 C.ar   23  PHE23      -0.0003
     10  CE2       52.4460   34.1520   -5.2380 C.ar   23  PHE23      -0.0003
     11  CZ        52.8840   33.7530   -3.9970 C.ar   23  PHE23      -0.0000
     12  N         46.0620   30.9950   -5.5100 N.am   24  ASN24      -0.1974
     13  CA        44.6400   30.9350   -5.8240 C.3    24  ASN24       0.1688
     14  C         44.0700   32.0760   -6.7070 C.2    24  ASN24       0.2292
     15  O         42.9110   32.4920   -6.5620 O.2    24  ASN24      -0.2864
     16  CB        43.7780   30.8620   -4.5310 C.3    24  ASN24       0.1181
     17  CG        44.1420   29.7100   -3.5940 C.2    24  ASN24       0.2629
     18  OD1       44.7500   28.7070   -3.9750 O.2    24  ASN24      -0.2716
     19  ND2       43.8110   29.8880   -2.3240 N.am   24  ASN24      -0.0877
     20  N         40.4320   45.2000   -1.4740 N.3    74  GLY74      -0.1210
     21  CA        40.5070   43.7500   -1.3380 C.3    74  GLY74       0.1956
     22  C         39.8820   43.4070   -0.0070 C.2    74  GLY74       0.2613
     23  O         39.7050   44.2970    0.8120 O.2    74  GLY74      -0.2717
     24  N         39.5880   42.1350    0.2130 N.am   75  SER75      -0.1938
     25  CA        39.0360   41.7300    1.5150 C.3    75  SER75       0.2055
     26  C         40.1530   41.6470    2.5580 C.2    75  SER75       0.2643
     27  O         39.8640   41.5980    3.7210 O.2    75  SER75      -0.2714
     28  CB        38.2310   40.4110    1.3990 C.3    75  SER75       0.2130
     29  OG        39.0710   39.3370    1.0600 O.3    75  SER75      -0.2179
     30  N         41.4360   41.6730    2.1540 N.am   76  SER76      -0.1949
     31  CA        42.5030   41.7530    3.1580 C.3    76  SER76       0.1924
     32  C         42.3160   42.9480    4.1180 C.2    76  SER76       0.2314
     33  O         42.4670   42.8130    5.3480 O.2    76  SER76      -0.2863
     34  CB        43.8780   41.8460    2.5040 C.3    76  SER76       0.2116
     35  OG        44.1060   40.8240    1.5360 O.3    76  SER76      -0.2180
     36  N         39.3760   42.2460    6.6050 N.3    79  ILE79      -0.1245
     37  CA        39.7570   41.4000    7.7600 C.3    79  ILE79       0.1561
     38  C         40.4220   42.2770    8.8320 C.2    79  ILE79       0.2260
     39  O         40.0720   42.2680   10.0350 O.2    79  ILE79      -0.2867
     40  CB        40.7380   40.2510    7.3340 C.3    79  ILE79       0.0252
     41  CG1       40.0570   39.3020    6.3460 C.3    79  ILE79       0.0019
     42  CG2       41.2320   39.4530    8.6250 C.3    79  ILE79       0.0019
     43  CD1       41.0440   38.3260    5.5770 C.3    79  ILE79       0.0001
     44  N         42.8050   30.4950    7.1050 N.3   100  TYR100     -0.1241
     45  CA        43.4950   31.6750    6.5580 C.3   100  TYR100      0.1605
     46  C         44.1300   32.5300    7.6600 C.2   100  TYR100      0.2264
     47  O         43.4800   32.8840    8.6520 O.2   100  TYR100     -0.2867
     48  CB        42.5530   32.5000    5.7160 C.3   100  TYR100      0.0534
     49  CG        43.2600   33.5320    4.8310 C.ar  100  TYR100     -0.0201
     50  CD1       44.2220   33.1570    3.8970 C.ar  100  TYR100     -0.0009
     51  CD2       42.9840   34.8720    4.9810 C.ar  100  TYR100     -0.0009
     52  CE1       44.8610   34.1110    3.1020 C.ar  100  TYR100      0.0417
     53  CE2       43.6250   35.8320    4.2180 C.ar  100  TYR100      0.0417
     54  CZ        44.5620   35.4480    3.2760 C.ar  100  TYR100      0.1957
     55  OH        45.1660   36.4150    2.5290 O.3   100  TYR100     -0.2866
     56  N         36.1190   30.9100    7.7730 N.3   144  VAL144     -0.1245
     57  CA        36.3790   30.9810    6.3470 C.3   144  VAL144      0.1561
     58  C         35.6230   29.8160    5.6990 C.2   144  VAL144      0.2260
     59  O         35.7910   28.6550    6.1020 O.2   144  VAL144     -0.2867
     60  CB        37.8630   30.9340    6.1360 C.3   144  VAL144      0.0252
     61  CG1       38.2040   31.1210    4.6500 C.3   144  VAL144      0.0019
     62  CG2       38.6120   32.0410    7.0020 C.3   144  VAL144      0.0019
     63  N         40.3030   28.0540    3.4180 N.3   148  ASN148     -0.1240
     64  CA        41.6100   28.0830    2.7350 C.3   148  ASN148      0.1653
     65  C         42.5800   27.7380    3.8720 C.2   148  ASN148      0.2266
     66  O         42.6690   28.4570    4.8440 O.2   148  ASN148     -0.2867
     67  CB        41.8300   29.4830    2.1940 C.3   148  ASN148      0.1155
     68  CG        43.1950   29.6560    1.4640 C.2   148  ASN148      0.2627
     69  OD1       43.9120   28.6890    1.1890 O.2   148  ASN148     -0.2716
     70  ND2       43.5780   30.9050    1.2610 N.am  148  ASN148     -0.0877
     71  N         34.0490   34.7390    6.0530 N.3   174  ASP174     -0.1239
     72  CA        34.8710   35.0690    4.8860 C.3   174  ASP174      0.1674
     73  C         34.4620   34.1130    3.8020 C.2   174  ASP174      0.2266
     74  O         34.8250   32.9190    3.8210 O.2   174  ASP174     -0.2867
     75  CB        36.3550   34.9720    5.2610 C.3   174  ASP174      0.1410
     76  CG        37.2920   35.4300    4.1700 C.2   174  ASP174      0.3668
     77  OD1       36.8150   35.5090    3.0070 O.co2 174  ASP174     -0.2456
     78  OD2       38.5120   35.6850    4.4760 O.co2 174  ASP174     -0.2456
     79  N         35.2420   34.4840    0.4530 N.3   176  ALA176     -0.1231
     80  CA        36.0650   34.7940   -0.7190 C.3   176  ALA176      0.1694
     81  C         35.7930   33.8650   -1.8920 C.2   176  ALA176      0.2592
     82  O         35.7560   34.3170   -3.0340 O.2   176  ALA176     -0.2718
     83  CB        37.5570   34.7390   -0.3270 C.3   176  ALA176      0.0304
     84  N         35.7040   32.5590   -1.6180 N.am  177  TYR177     -0.1976
     85  CA        35.6040   31.5310   -2.6470 C.3   177  TYR177      0.1639
     86  C         34.2030   31.0010   -2.8840 C.2   177  TYR177      0.2290
     87  O         34.0440   30.0040   -3.5620 O.2   177  TYR177     -0.2864
     88  CB        36.5620   30.3510   -2.3010 C.3   177  TYR177      0.0560
     89  CG        38.0040   30.7790   -2.1620 C.ar  177  TYR177     -0.0198
     90  CD1       38.8250   30.9860   -3.2740 C.ar  177  TYR177     -0.0009
     91  CD2       38.5350   31.0260   -0.9300 C.ar  177  TYR177     -0.0009
     92  CE1       40.1120   31.4020   -3.1160 C.ar  177  TYR177      0.0417
     93  CE2       39.8090   31.4320   -0.7650 C.ar  177  TYR177      0.0417
     94  CZ        40.6110   31.6250   -1.8670 C.ar  177  TYR177      0.1957
     95  OH        41.8830   32.0810   -1.6190 O.3   177  TYR177     -0.2866
     96  N         35.0760   39.4680   -1.9190 N.3   204  THR204     -0.1218
     97  CA        36.1560   40.0470   -2.7380 C.3   204  THR204      0.1862
     98  C         35.8870   39.8270   -4.1730 C.2   204  THR204      0.2287
     99  O         35.1400   38.9220   -4.5220 O.2   204  THR204     -0.2866
    100  CB        37.5370   39.4720   -2.3710 C.3   204  THR204      0.1770
    101  OG1       38.5640   40.0790   -3.1760 O.3   204  THR204     -0.2211
    102  CG2       37.5850   37.9650   -2.4590 C.3   204  THR204      0.0375
    103  N         38.4960   39.2960   -6.0610 N.3   206  SER206     -0.1202
    104  CA        39.7780   38.7340   -6.4320 C.3   206  SER206      0.2020
    105  C         39.7280   37.3150   -6.9990 C.2   206  SER206      0.2618
    106  O         40.7350   36.8720   -7.5690 O.2   206  SER206     -0.2717
    107  CB        40.7640   38.7310   -5.2360 C.3   206  SER206      0.2103
    108  OG        41.0160   40.0460   -4.7300 O.3   206  SER206     -0.2182
    109  N         38.6230   36.5840   -6.8000 N.am  207  LYS207     -0.1979
    110  CA        38.6140   35.1420   -7.0920 C.3   207  LYS207      0.1596
    111  C         37.7320   34.8400   -8.2960 C.2   207  LYS207      0.2287
    112  O         38.2370   34.9110   -9.3940 O.2   207  LYS207     -0.2864
    113  CB        38.2600   34.3720   -5.8690 C.3   207  LYS207      0.0298
    114  CG        39.1310   34.8110   -4.6760 C.3   207  LYS207      0.0038
    115  CD        40.6030   34.5660   -4.8440 C.3   207  LYS207      0.0206
    116  CE        41.4430   34.8320   -3.5710 C.3   207  LYS207      0.1093
    117  NZ        42.8930   34.5630   -3.8900 N.3   207  LYS207     -0.1314
    118  N         42.0820   39.9780   -8.6920 N.3   211  ALA211     -0.1245
    119  CA        43.0530   40.0550   -7.6120 C.3   211  ALA211      0.1562
    120  C         43.8850   41.3130   -7.6160 C.2   211  ALA211      0.2260
    121  O         44.0260   41.9770   -6.6100 O.2   211  ALA211     -0.2867
    122  CB        43.9630   38.8160   -7.5830 C.3   211  ALA211      0.0290
    123  N         42.2220   45.0260   -6.5110 N.3   213  ARG213     -0.1245
    124  CA        42.1050   45.3750   -5.0960 C.3   213  ARG213      0.1563
    125  C         40.7310   45.9820   -4.8210 C.2   213  ARG213      0.2260
    126  O         40.6140   47.1430   -4.4170 O.2   213  ARG213     -0.2867
    127  CB        43.2420   46.3090   -4.6250 C.3   213  ARG213      0.0307
    128  CG        44.6510   45.9860   -5.2410 C.3   213  ARG213      0.0489
    129  CD        45.1540   44.5720   -4.8320 C.3   213  ARG213      0.2205
    130  NE        44.9620   44.2470   -3.3910 N.pl3 213  ARG213     -0.0865
    131  CZ        44.2930   43.2070   -2.9110 C.cat 213  ARG213      0.5346
    132  NH1       43.6700   42.3510   -3.7220 N.pl3 213  ARG213      0.1354
    133  NH2       44.1960   43.0480   -1.5830 N.pl3 213  ARG213      0.1354
@<TRIPOS>BOND
     1   112   111    2
     2   118   119    1
     3   111   110    1
     4   120   119    1
     5   120   121    2
     6   119   122    1
     7   106   105    2
     8   110   109    1
     9   110   113    1
    10   105   109   am
    11   105   104    1
    12    14    15    2
    13    14    13    1
    14   123   124    1
    15   104   103    1
    16   104   107    1
    17   113   114    1
    18    13    12    1
    19    13    16    1
    20     8    10   ar
    21     8     6   ar
    22     1     2    1
    23    12     3   am
    24   128   129    1
    25   128   127    1
    26    10    11   ar
    27   107   108    1
    28   124   125    1
    29   124   127    1
    30     5     2    1
    31     5     6    1
    32     3     4    2
    33     3     2    1
    34   115   114    1
    35   115   116    1
    36   129   130    1
    37   125   126    2
    38     6     7   ar
    39    16    17    1
    40    99    98    2
    41    98    97    1
    42    11     9   ar
    43    18    17    2
    44   117   116    1
    45   132   131    1
    46    17    19   am
    47    87    86    2
    48     7     9   ar
    49   130   131    2
    50    90    92   ar
    51    90    89   ar
    52   101   100    1
    53    92    94   ar
    54    82    81    2
    55   131   133    1
    56    86    85    1
    57    97   100    1
    58    97    96    1
    59    85    88    1
    60    85    84    1
    61   102   100    1
    62    88    89    1
    63    89    91   ar
    64    81    84   am
    65    81    80    1
    66    94    95    1
    67    94    93   ar
    68    20    21    1
    69    21    22    1
    70    91    93   ar
    71    80    83    1
    72    80    79    1
    73    22    24   am
    74    22    23    2
    75    24    25    1
    76    29    28    1
    77    69    68    2
    78    70    68   am
    79    28    25    1
    80    68    67    1
    81    25    26    1
    82    35    34    1
    83    30    26   am
    84    30    31    1
    85    67    64    1
    86    34    31    1
    87    55    54    1
    88    26    27    2
    89    64    63    1
    90    64    65    1
    91    77    76   ar
    92    52    54   ar
    93    52    50   ar
    94    31    32    1
    95    54    53   ar
    96    73    74    2
    97    73    72    1
    98    65    66    2
    99    50    49   ar
   100    32    33    2
   101    76    78   ar
   102    76    75    1
   103    53    51   ar
   104    61    60    1
   105    49    51   ar
   106    49    48    1
   107    72    75    1
   108    72    71    1
   109    43    41    1
   110    58    59    2
   111    58    57    1
   112    48    45    1
   113    60    57    1
   114    60    62    1
   115    41    40    1
   116    57    56    1
   117    45    44    1
   118    45    46    1
   119    36    37    1
   120    40    37    1
   121    40    42    1
   122    46    47    2
   123    37    38    1
   124    38    39    2
