@<TRIPOS>MOLECULE
tmp/3ly1D01.pdb
 101 97 0 0 0
SMALL
GASTEIGER

@<TRIPOS>ATOM
      1  N         49.9370   29.0230   -7.1790 N.3    22  ASN22      -0.1225
      2  CA        50.5070   29.2290   -5.8850 C.3    22  ASN22       0.1785
      3  C         49.6710   30.0980   -4.9630 C.2    22  ASN22       0.2597
      4  O         49.7970   29.9690   -3.7490 O.2    22  ASN22      -0.2718
      5  CB        51.9620   29.7590   -5.9560 C.3    22  ASN22       0.1169
      6  CG        52.1760   30.9000   -6.9510 C.2    22  ASN22       0.2627
      7  OD1       51.3020   31.2590   -7.7480 O.2    22  ASN22      -0.2716
      8  ND2       53.3980   31.4560   -6.9200 N.am   22  ASN22      -0.0877
      9  N         48.8660   30.9920   -5.5310 N.am   23  PHE23      -0.1962
     10  CA        48.1430   32.0350   -4.7530 C.3    23  PHE23       0.1771
     11  C         46.6420   32.0980   -5.0320 C.2    23  PHE23       0.2619
     12  O         46.0040   33.1300   -4.7980 O.2    23  PHE23      -0.2715
     13  CB        48.7490   33.4210   -5.0500 C.3    23  PHE23       0.0574
     14  CG        50.2010   33.5390   -4.6820 C.ar   23  PHE23      -0.0200
     15  CD1       50.6360   33.1420   -3.4230 C.ar   23  PHE23      -0.0042
     16  CD2       51.1300   34.0310   -5.5900 C.ar   23  PHE23      -0.0042
     17  CE1       51.9790   33.2370   -3.0710 C.ar   23  PHE23      -0.0003
     18  CE2       52.4460   34.1520   -5.2380 C.ar   23  PHE23      -0.0003
     19  CZ        52.8840   33.7530   -3.9970 C.ar   23  PHE23      -0.0000
     20  N         46.0620   30.9950   -5.5100 N.am   24  ASN24      -0.1972
     21  CA        44.6400   30.9350   -5.8240 C.3    24  ASN24       0.1688
     22  C         44.0700   32.0760   -6.7070 C.2    24  ASN24       0.2292
     23  O         42.9110   32.4920   -6.5620 O.2    24  ASN24      -0.2864
     24  CB        43.7780   30.8620   -4.5310 C.3    24  ASN24       0.1181
     25  CG        44.1420   29.7100   -3.5940 C.2    24  ASN24       0.2629
     26  OD1       44.7500   28.7070   -3.9750 O.2    24  ASN24      -0.2716
     27  ND2       43.8110   29.8880   -2.3240 N.am   24  ASN24      -0.0877
     28  N         42.8050   30.4950    7.1050 N.3   100  TYR100     -0.1227
     29  CA        43.4950   31.6750    6.5580 C.3   100  TYR100      0.1736
     30  C         44.1300   32.5300    7.6600 C.2   100  TYR100      0.2596
     31  O         43.4800   32.8840    8.6520 O.2   100  TYR100     -0.2718
     32  CB        42.5530   32.5000    5.7160 C.3   100  TYR100      0.0548
     33  CG        43.2600   33.5320    4.8310 C.ar  100  TYR100     -0.0200
     34  CD1       44.2220   33.1570    3.8970 C.ar  100  TYR100     -0.0009
     35  CD2       42.9840   34.8720    4.9810 C.ar  100  TYR100     -0.0009
     36  CE1       44.8610   34.1110    3.1020 C.ar  100  TYR100      0.0417
     37  CE2       43.6250   35.8320    4.2180 C.ar  100  TYR100      0.0417
     38  CZ        44.5620   35.4480    3.2760 C.ar  100  TYR100      0.1957
     39  OH        45.1660   36.4150    2.5290 O.3   100  TYR100     -0.2866
     40  N         45.4240   32.8060    7.4850 N.am  101  GLY101     -0.1942
     41  CA        46.2600   33.3430    8.5550 C.3   101  GLY101      0.2014
     42  C         46.0850   34.8170    8.9450 C.2   101  GLY101      0.2638
     43  O         46.5430   35.2240   10.0300 O.2   101  GLY101     -0.2714
     44  N         45.4050   35.6120    8.1310 N.am  102  ASP102     -0.1971
     45  CA        45.2710   37.0660    8.4100 C.3   102  ASP102      0.1709
     46  C         44.4950   37.3880    9.6820 C.2   102  ASP102      0.2293
     47  O         44.7780   38.3840   10.3010 O.2   102  ASP102     -0.2864
     48  CB        44.6550   37.8380    7.2350 C.3   102  ASP102      0.1436
     49  CG        45.6110   38.0420    6.0710 C.2   102  ASP102      0.3671
     50  OD1       46.6850   37.4110    5.9990 O.co2 102  ASP102     -0.2456
     51  OD2       45.2700   38.8780    5.2110 O.co2 102  ASP102     -0.2456
     52  N         40.3030   28.0540    3.4180 N.3   148  ASN148     -0.1240
     53  CA        41.6100   28.0830    2.7350 C.3   148  ASN148      0.1653
     54  C         42.5800   27.7380    3.8720 C.2   148  ASN148      0.2266
     55  O         42.6690   28.4570    4.8440 O.2   148  ASN148     -0.2867
     56  CB        41.8300   29.4830    2.1940 C.3   148  ASN148      0.1155
     57  CG        43.1950   29.6560    1.4640 C.2   148  ASN148      0.2627
     58  OD1       43.9120   28.6890    1.1890 O.2   148  ASN148     -0.2716
     59  ND2       43.5780   30.9050    1.2610 N.am  148  ASN148     -0.0877
     60  N         38.6230   36.5840   -6.8000 N.3   207  LYS207     -0.1245
     61  CA        38.6140   35.1420   -7.0920 C.3   207  LYS207      0.1561
     62  C         37.7320   34.8400   -8.2960 C.2   207  LYS207      0.2260
     63  O         38.2370   34.9110   -9.3940 O.2   207  LYS207     -0.2867
     64  CB        38.2600   34.3720   -5.8690 C.3   207  LYS207      0.0271
     65  CG        39.1310   34.8110   -4.6760 C.3   207  LYS207      0.0035
     66  CD        40.6030   34.5660   -4.8440 C.3   207  LYS207      0.0206
     67  CE        41.4430   34.8320   -3.5710 C.3   207  LYS207      0.1093
     68  NZ        42.8930   34.5630   -3.8900 N.3   207  LYS207     -0.1314
     69  N         52.7150   27.3630   -0.7050 N.3   308  ARG308     -0.1245
     70  CA        53.6240   27.2660    0.4180 C.3   308  ARG308      0.1563
     71  C         53.1360   26.2280    1.4440 C.2   308  ARG308      0.2260
     72  O         52.0400   25.6850    1.3120 O.2   308  ARG308     -0.2867
     73  CB        53.6880   28.6300    1.0930 C.3   308  ARG308      0.0307
     74  CG        52.3280   29.1560    1.6660 C.3   308  ARG308      0.0489
     75  CD        52.4490   30.5650    2.2600 C.3   308  ARG308      0.2205
     76  NE        51.2590   31.0120    2.9930 N.pl3 308  ARG308     -0.0865
     77  CZ        50.9180   30.6440    4.2290 C.cat 308  ARG308      0.5346
     78  NH1       51.6240   29.7540    4.9290 N.pl3 308  ARG308      0.1354
     79  NH2       49.8220   31.1620    4.7770 N.pl3 308  ARG308      0.1354
     80  N         51.5210   24.7440    4.9360 N.3   310  PHE310     -0.1241
     81  CA        50.4080   25.0970    5.8150 C.3   310  PHE310      0.1605
     82  C         50.4310   24.2550    7.0870 C.2   310  PHE310      0.2264
     83  O         49.5910   23.3610    7.2890 O.2   310  PHE310     -0.2867
     84  CB        49.0770   25.0190    5.0460 C.3   310  PHE310      0.0534
     85  CG        48.9970   26.0080    3.8880 C.ar  310  PHE310     -0.0203
     86  CD1       48.6520   27.3240    4.1120 C.ar  310  PHE310     -0.0042
     87  CD2       49.2840   25.6230    2.5910 C.ar  310  PHE310     -0.0042
     88  CE1       48.5850   28.2410    3.0630 C.ar  310  PHE310     -0.0003
     89  CE2       49.2300   26.5340    1.5520 C.ar  310  PHE310     -0.0003
     90  CZ        48.8990   27.8480    1.8010 C.ar  310  PHE310     -0.0000
     91  N         48.6940   22.6260   -0.9870 N.3   318  ARG318     -0.1245
     92  CA        47.6230   23.3050   -1.6710 C.3   318  ARG318      0.1563
     93  C         48.0240   23.6210   -3.0960 C.2   318  ARG318      0.2260
     94  O         49.0020   24.3410   -3.3310 O.2   318  ARG318     -0.2867
     95  CB        47.2810   24.5940   -0.9420 C.3   318  ARG318      0.0307
     96  CG        45.9280   25.1690   -1.3790 C.3   318  ARG318      0.0489
     97  CD        45.7520   26.6000   -0.9180 C.3   318  ARG318      0.2205
     98  NE        46.6740   27.5120   -1.5680 N.pl3 318  ARG318     -0.0865
     99  CZ        46.9710   28.7450   -1.1490 C.cat 318  ARG318      0.5346
    100  NH1       46.4340   29.2250   -0.0450 N.pl3 318  ARG318      0.1354
    101  NH2       47.8580   29.4850   -1.8430 N.pl3 318  ARG318      0.1354
@<TRIPOS>BOND
     1    63    62    2
     2    62    61    1
     3     7     6    2
     4     1     2    1
     5    61    60    1
     6    61    64    1
     7     6     8   am
     8     6     5    1
     9    22    23    2
    10    22    21    1
    11     5     2    1
    12     2     3    1
    13    64    65    1
    14    21    20    1
    15    21    24    1
    16    16    18   ar
    17    16    14   ar
    18     9     3   am
    19     9    10    1
    20    20    11   am
    21    18    19   ar
    22    13    10    1
    23    13    14    1
    24    11    12    2
    25    11    10    1
    26     3     4    2
    27    66    65    1
    28    66    67    1
    29    14    15   ar
    30    24    25    1
    31    19    17   ar
    32    26    25    2
    33    68    67    1
    34    25    27   am
    35    15    17   ar
    36    94    93    2
    37    93    92    1
    38   101    99    1
    39    92    91    1
    40    92    95    1
    41    98    99    2
    42    98    97    1
    43    96    95    1
    44    96    97    1
    45    99   100    1
    46    69    70    1
    47    70    73    1
    48    70    71    1
    49    73    74    1
    50    58    57    2
    51    59    57   am
    52    72    71    2
    53    57    56    1
    54    89    90   ar
    55    89    87   ar
    56    74    75    1
    57    90    88   ar
    58    56    53    1
    59    75    76    1
    60    39    38    1
    61    87    85   ar
    62    53    52    1
    63    53    54    1
    64    76    77    2
    65    88    86   ar
    66    36    38   ar
    67    36    34   ar
    68    38    37   ar
    69    54    55    2
    70    85    86   ar
    71    85    84    1
    72    34    33   ar
    73    37    35   ar
    74    77    79    1
    75    77    78    1
    76    33    35   ar
    77    33    32    1
    78    80    81    1
    79    84    81    1
    80    51    49   ar
    81    32    29    1
    82    81    82    1
    83    50    49   ar
    84    49    48    1
    85    29    28    1
    86    29    30    1
    87    82    83    2
    88    48    45    1
    89    40    30   am
    90    40    41    1
    91    30    31    2
    92    44    45    1
    93    44    42   am
    94    45    46    1
    95    41    42    1
    96    42    43    2
    97    46    47    2
