@<TRIPOS>MOLECULE
tmp/3ly2A00.pdb
 200 192 0 0 0
SMALL
GASTEIGER

@<TRIPOS>ATOM
      1  N        -19.9540   34.3180   44.5070 N.3    93  TYR93      -0.1227
      2  CA       -20.0930   35.7710   44.4400 C.3    93  TYR93       0.1736
      3  C        -21.2760   36.2590   43.5980 C.2    93  TYR93       0.2595
      4  O        -22.1240   37.0010   44.0830 O.2    93  TYR93      -0.2718
      5  CB       -18.7930   36.3880   43.9040 C.3    93  TYR93       0.0548
      6  CG       -18.8080   37.8950   43.8520 C.ar   93  TYR93      -0.0200
      7  CD1      -18.4450   38.6620   44.9600 C.ar   93  TYR93      -0.0009
      8  CD2      -19.1780   38.5640   42.6780 C.ar   93  TYR93      -0.0009
      9  CE1      -18.4410   40.0710   44.8990 C.ar   93  TYR93       0.0417
     10  CE2      -19.1830   39.9580   42.6070 C.ar   93  TYR93       0.0417
     11  CZ       -18.8110   40.7080   43.7110 C.ar   93  TYR93       0.1957
     12  OH       -18.7770   42.0840   43.5980 O.3    93  TYR93      -0.2866
     13  N        -21.3220   35.8360   42.3390 N.am   94  HIS94      -0.1975
     14  CA       -22.3770   36.2490   41.4200 C.3    94  HIS94       0.1656
     15  C        -23.7670   35.6350   41.6050 C.2    94  HIS94       0.2291
     16  O        -24.3450   35.0990   40.6680 O.2    94  HIS94      -0.2864
     17  CB       -21.9080   36.0370   39.9860 C.3    94  HIS94       0.0771
     18  CG       -20.7190   36.8670   39.6240 C.ar   94  HIS94       0.0820
     19  ND1      -19.4260   36.4010   39.7270 N.ar   94  HIS94      -0.2267
     20  CD2      -20.6230   38.1520   39.2050 C.ar   94  HIS94       0.1154
     21  CE1      -18.5850   37.3600   39.3840 C.ar   94  HIS94       0.1986
     22  NE2      -19.2860   38.4340   39.0640 N.ar   94  HIS94      -0.2212
     23  N        -26.2040   40.3760   36.0840 N.3   135  ASP135     -0.1239
     24  CA       -25.4080   39.1430   36.1980 C.3   135  ASP135      0.1674
     25  C        -26.2830   37.8950   36.3130 C.2   135  ASP135      0.2266
     26  O        -25.8120   36.8460   36.7630 O.2   135  ASP135     -0.2867
     27  CB       -24.4630   39.1810   37.4200 C.3   135  ASP135      0.1410
     28  CG       -23.1070   39.8120   37.1110 C.2   135  ASP135      0.3668
     29  OD1      -22.5640   39.5600   36.0090 O.co2 135  ASP135     -0.2456
     30  OD2      -22.5790   40.5450   37.9880 O.co2 135  ASP135     -0.2456
     31  N        -25.4280   33.7620   35.9550 N.3   138  HIS138     -0.1241
     32  CA       -23.9720   33.7430   35.8430 C.3   138  HIS138      0.1621
     33  C        -23.5290   32.3490   36.2800 C.2   138  HIS138      0.2264
     34  O        -23.9920   31.8460   37.3020 O.2   138  HIS138     -0.2867
     35  CB       -23.3680   34.8010   36.7680 C.3   138  HIS138      0.0745
     36  CG       -21.9220   35.0840   36.5090 C.ar  138  HIS138      0.0817
     37  ND1      -20.9490   34.1060   36.5490 N.ar  138  HIS138     -0.2268
     38  CD2      -21.2780   36.2460   36.2390 C.ar  138  HIS138      0.1154
     39  CE1      -19.7690   34.6540   36.3200 C.ar  138  HIS138      0.1986
     40  NE2      -19.9400   35.9520   36.1290 N.ar  138  HIS138     -0.2212
     41  N        -22.2630   38.8520   29.4830 N.3   164  GLU164     -0.1245
     42  CA       -23.1090   40.0370   29.4640 C.3   164  GLU164      0.1567
     43  C        -24.2740   39.9110   28.4700 C.2   164  GLU164      0.2260
     44  O        -25.4120   40.2700   28.7820 O.2   164  GLU164     -0.2867
     45  CB       -22.2510   41.2730   29.1580 C.3   164  GLU164      0.0388
     46  CG       -21.1450   41.5730   30.1880 C.3   164  GLU164      0.1160
     47  CD       -20.0530   40.4950   30.2720 C.2   164  GLU164      0.3649
     48  OE1      -19.6470   39.9520   29.2230 O.co2 164  GLU164     -0.2457
     49  OE2      -19.5860   40.2000   31.3970 O.co2 164  GLU164     -0.2457
     50  N        -20.7580   46.4550   31.6780 N.3   205  THR205     -0.1218
     51  CA       -20.2680   45.8330   32.9080 C.3   205  THR205      0.1862
     52  C        -19.1750   44.8130   32.5600 C.2   205  THR205      0.2287
     53  O        -18.5920   44.1790   33.4400 O.2   205  THR205     -0.2866
     54  CB       -21.4050   45.1560   33.7220 C.3   205  THR205      0.1770
     55  OG1      -22.0220   44.1220   32.9490 O.3   205  THR205     -0.2211
     56  CG2      -22.4440   46.1770   34.1050 C.3   205  THR205      0.0375
     57  N        -15.7300   43.8310   31.9970 N.3   207  MET207     -0.1245
     58  CA       -14.4600   44.4070   32.4210 C.3   207  MET207      0.1570
     59  C        -13.4930   44.7760   31.3110 C.2   207  MET207      0.2261
     60  O        -12.7570   45.7540   31.4260 O.2   207  MET207     -0.2867
     61  CB       -13.7670   43.4820   33.4160 C.3   207  MET207      0.0387
     62  CG       -14.2040   43.7350   34.8470 C.3   207  MET207      0.0595
     63  SD       -14.0340   45.4910   35.2810 S.3   207  MET207     -0.1393
     64  CE       -12.2920   45.5490   35.7910 C.3   207  MET207      0.0692
     65  N        -21.5020   50.6940   36.2420 N.3   249  HIS249     -0.1241
     66  CA       -20.1600   50.1280   36.2750 C.3   249  HIS249      0.1621
     67  C        -19.5470   50.4370   37.6480 C.2   249  HIS249      0.2264
     68  O        -18.8540   49.5980   38.2270 O.2   249  HIS249     -0.2867
     69  CB       -19.3150   50.7290   35.1500 C.3   249  HIS249      0.0745
     70  CG       -17.9200   50.1960   35.0840 C.ar  249  HIS249      0.0817
     71  ND1      -17.6290   48.8550   35.2060 N.ar  249  HIS249     -0.2268
     72  CD2      -16.7360   50.8200   34.8690 C.ar  249  HIS249      0.1154
     73  CE1      -16.3270   48.6750   35.0690 C.ar  249  HIS249      0.1986
     74  NE2      -15.7630   49.8510   34.8630 N.ar  249  HIS249     -0.2212
     75  N        -21.2120   48.2410   40.2100 N.3   252  ASP252     -0.1225
     76  CA       -20.6560   46.8860   40.0810 C.3   252  ASP252      0.1805
     77  C        -19.2940   46.8280   40.7900 C.2   252  ASP252      0.2597
     78  O        -18.9320   45.8090   41.3700 O.2   252  ASP252     -0.2718
     79  CB       -20.4750   46.5360   38.5930 C.3   252  ASP252      0.1424
     80  CG       -20.5300   45.0260   38.3030 C.2   252  ASP252      0.3668
     81  OD1      -20.3270   44.6720   37.1220 O.co2 252  ASP252     -0.2456
     82  OD2      -20.7870   44.2000   39.2050 O.co2 252  ASP252     -0.2456
     83  N        -18.5420   47.9230   40.7330 N.am  253  LEU253     -0.1979
     84  CA       -17.2250   47.9890   41.3670 C.3   253  LEU253      0.1596
     85  C        -17.2670   48.8470   42.6280 C.2   253  LEU253      0.2287
     86  O        -16.3660   49.6530   42.8590 O.2   253  LEU253     -0.2864
     87  CB       -16.1970   48.5950   40.4050 C.3   253  LEU253      0.0297
     88  CG       -15.8710   47.9000   39.0830 C.3   253  LEU253      0.0022
     89  CD1      -15.0260   48.8290   38.2240 C.3   253  LEU253      0.0001
     90  CD2      -15.1260   46.6070   39.3350 C.3   253  LEU253      0.0001
     91  N        -17.7110   47.4620   45.8790 N.3   255  ASN255     -0.1240
     92  CA       -17.3560   46.6950   47.0720 C.3   255  ASN255      0.1653
     93  C        -16.3130   47.3500   47.9860 C.2   255  ASN255      0.2266
     94  O        -16.5480   47.4900   49.1920 O.2   255  ASN255     -0.2867
     95  CB       -16.8640   45.2910   46.6830 C.3   255  ASN255      0.1155
     96  CG       -17.9930   44.3670   46.2520 C.2   255  ASN255      0.2627
     97  OD1      -17.7500   43.2600   45.7660 O.2   255  ASN255     -0.2716
     98  ND2      -19.2340   44.8120   46.4360 N.am  255  ASN255     -0.0877
     99  N        -17.0400   45.1080   52.8670 N.3   263  TYR263     -0.1241
    100  CA       -15.9770   44.8910   51.8870 C.3   263  TYR263      0.1605
    101  C        -15.2960   43.5390   52.1010 C.2   263  TYR263      0.2264
    102  O        -15.1350   42.7600   51.1630 O.2   263  TYR263     -0.2867
    103  CB       -14.9580   46.0460   51.9710 C.3   263  TYR263      0.0534
    104  CG       -13.7570   45.9760   51.0250 C.ar  263  TYR263     -0.0201
    105  CD1      -13.7770   45.1810   49.8740 C.ar  263  TYR263     -0.0009
    106  CD2      -12.6170   46.7510   51.2660 C.ar  263  TYR263     -0.0009
    107  CE1      -12.6890   45.1580   48.9850 C.ar  263  TYR263      0.0417
    108  CE2      -11.5230   46.7430   50.3830 C.ar  263  TYR263      0.0417
    109  CZ       -11.5660   45.9430   49.2450 C.ar  263  TYR263      0.1957
    110  OH       -10.5010   45.9190   48.3680 O.3   263  TYR263     -0.2866
    111  N        -17.3980   40.6880   50.9290 N.3   266  TRP266     -0.1227
    112  CA       -17.4340   40.6460   49.4700 C.3   266  TRP266      0.1737
    113  C        -16.1460   40.0350   48.9470 C.2   266  TRP266      0.2596
    114  O        -16.1580   39.2880   47.9740 O.2   266  TRP266     -0.2718
    115  CB       -17.6170   42.0490   48.8850 C.3   266  TRP266      0.0564
    116  CG       -19.0040   42.6170   49.0650 C.ar  266  TRP266      0.0003
    117  CD1      -19.3360   43.8260   49.6250 C.ar  266  TRP266      0.0946
    118  CD2      -20.2430   42.0140   48.6590 C.ar  266  TRP266      0.0152
    119  NE1      -20.7010   44.0070   49.5890 N.ar  266  TRP266     -0.2442
    120  CE2      -21.2820   42.9130   49.0030 C.ar  266  TRP266      0.0810
    121  CE3      -20.5770   40.8000   48.0360 C.ar  266  TRP266      0.0012
    122  CZ2      -22.6280   42.6380   48.7470 C.ar  266  TRP266      0.0191
    123  CZ3      -21.9310   40.5240   47.7810 C.ar  266  TRP266      0.0001
    124  CH2      -22.9350   41.4440   48.1380 C.ar  266  TRP266      0.0015
    125  N        -15.0300   40.3410   49.6010 N.am  267  THR267     -0.1953
    126  CA       -13.7460   39.8030   49.1770 C.3   267  THR267      0.1897
    127  C        -13.6570   38.2930   49.3640 C.2   267  THR267      0.2313
    128  O        -13.1000   37.6060   48.5160 O.2   267  THR267     -0.2863
    129  CB       -12.5880   40.4730   49.9180 C.3   267  THR267      0.1794
    130  OG1      -12.6080   41.8810   49.6470 O.3   267  THR267     -0.2208
    131  CG2      -11.2600   39.8990   49.4570 C.3   267  THR267      0.0378
    132  N        -15.7190   36.6170   46.4080 N.3   270  ILE270     -0.1231
    133  CA       -15.1160   36.6510   45.0880 C.3   270  ILE270      0.1692
    134  C        -13.9300   35.6880   45.0200 C.2   270  ILE270      0.2591
    135  O        -13.7110   35.0370   43.9960 O.2   270  ILE270     -0.2718
    136  CB       -14.6780   38.0950   44.7030 C.3   270  ILE270      0.0266
    137  CG1      -14.2340   38.1440   43.2420 C.3   270  ILE270      0.0019
    138  CG2      -13.5390   38.5570   45.5820 C.3   270  ILE270      0.0020
    139  CD1      -15.3540   37.8880   42.2370 C.3   270  ILE270      0.0001
    140  N        -13.1710   35.5790   46.1090 N.am  271  MET271     -0.1979
    141  CA       -12.0240   34.6700   46.1400 C.3   271  MET271      0.1605
    142  C        -12.5060   33.2250   46.0840 C.2   271  MET271      0.2287
    143  O        -11.9210   32.3800   45.4050 O.2   271  MET271     -0.2864
    144  CB       -11.1950   34.8730   47.4100 C.3   271  MET271      0.0413
    145  CG       -10.4210   36.1820   47.4680 C.3   271  MET271      0.0598
    146  SD        -9.5590   36.6020   45.9280 S.3   271  MET271     -0.1393
    147  CE        -8.3890   35.2630   45.7680 C.3   271  MET271      0.0692
    148  N        -13.5280   32.4880   42.5000 N.3   274  PHE274     -0.1241
    149  CA       -12.3510   32.3610   41.6490 C.3   274  PHE274      0.1605
    150  C        -11.7030   30.9960   41.8720 C.2   274  PHE274      0.2264
    151  O        -11.2410   30.3700   40.9160 O.2   274  PHE274     -0.2867
    152  CB       -11.3460   33.4790   41.9440 C.3   274  PHE274      0.0534
    153  CG       -11.6600   34.7780   41.2490 C.ar  274  PHE274     -0.0203
    154  CD1      -12.9300   35.0250   40.7270 C.ar  274  PHE274     -0.0042
    155  CD2      -10.6880   35.7660   41.1330 C.ar  274  PHE274     -0.0042
    156  CE1      -13.2250   36.2380   40.1000 C.ar  274  PHE274     -0.0003
    157  CE2      -10.9680   36.9840   40.5090 C.ar  274  PHE274     -0.0003
    158  CZ       -12.2370   37.2220   39.9920 C.ar  274  PHE274     -0.0000
    159  N         -5.0770   33.9930   40.0090 N.3   291  MET291     -0.1245
    160  CA        -5.8960   34.2100   41.1890 C.3   291  MET291      0.1570
    161  C         -6.9540   33.1550   41.3900 C.2   291  MET291      0.2261
    162  O         -7.7450   33.2450   42.3230 O.2   291  MET291     -0.2867
    163  CB        -6.5480   35.5830   41.1340 C.3   291  MET291      0.0387
    164  CG        -5.5450   36.7010   41.1110 C.3   291  MET291      0.0595
    165  SD        -6.3720   38.2760   41.0630 S.3   291  MET291     -0.1393
    166  CE        -6.5970   38.4930   39.2520 C.3   291  MET291      0.0692
    167  N         -3.7310   41.4270   46.2030 N.3   302  SER302     -0.1202
    168  CA        -4.6210   41.5710   45.0550 C.3   302  SER302      0.2020
    169  C         -5.6530   42.6860   45.2390 C.2   302  SER302      0.2618
    170  O         -5.9160   43.4560   44.3130 O.2   302  SER302     -0.2717
    171  CB        -5.3290   40.2470   44.7730 C.3   302  SER302      0.2103
    172  OG        -4.4000   39.2570   44.3700 O.3   302  SER302     -0.2182
    173  N         -6.2420   42.7760   46.4260 N.am  303  GLN303     -0.1979
    174  CA        -7.2120   43.8290   46.6700 C.3   303  GLN303      0.1601
    175  C         -6.5810   45.1940   46.4620 C.2   303  GLN303      0.2287
    176  O         -7.1610   46.0610   45.8000 O.2   303  GLN303     -0.2864
    177  CB        -7.7770   43.7300   48.0860 C.3   303  GLN303      0.0394
    178  CG        -8.8330   42.6630   48.2180 C.3   303  GLN303      0.0908
    179  CD        -9.8810   42.7850   47.1300 C.2   303  GLN303      0.2608
    180  OE1      -10.5370   43.8260   46.9970 O.2   303  GLN303     -0.2717
    181  NE2      -10.0370   41.7280   46.3340 N.am  303  GLN303     -0.0878
    182  N         -6.2310   45.8510   42.8980 N.3   306  PHE306     -0.1241
    183  CA        -7.5570   46.0470   42.3130 C.3   306  PHE306      0.1605
    184  C         -7.9620   47.4960   42.5720 C.2   306  PHE306      0.2264
    185  O         -8.4970   48.1670   41.6980 O.2   306  PHE306     -0.2867
    186  CB        -8.5490   45.0660   42.9610 C.3   306  PHE306      0.0534
    187  CG        -9.9810   45.2110   42.4940 C.ar  306  PHE306     -0.0203
    188  CD1      -10.3100   45.1680   41.1360 C.ar  306  PHE306     -0.0042
    189  CD2      -11.0150   45.3240   43.4280 C.ar  306  PHE306     -0.0042
    190  CE1      -11.6440   45.2320   40.7170 C.ar  306  PHE306     -0.0003
    191  CE2      -12.3580   45.3880   43.0210 C.ar  306  PHE306     -0.0003
    192  CZ       -12.6710   45.3410   41.6660 C.ar  306  PHE306     -0.0000
    193  N         -7.7960   49.6990   39.2300 N.3   310  ILE310     -0.1245
    194  CA        -9.1760   49.7450   38.7720 C.3   310  ILE310      0.1561
    195  C        -10.1860   50.5950   39.5410 C.2   310  ILE310      0.2260
    196  O        -10.7310   51.5580   38.9940 O.2   310  ILE310     -0.2867
    197  CB        -9.7090   48.3050   38.6390 C.3   310  ILE310      0.0252
    198  CG1       -8.8320   47.5520   37.6300 C.3   310  ILE310      0.0019
    199  CG2      -11.1550   48.3100   38.1750 C.3   310  ILE310      0.0019
    200  CD1       -9.1610   46.0890   37.4970 C.3   310  ILE310      0.0001
@<TRIPOS>BOND
     1    43    44    2
     2    43    42    1
     3    45    42    1
     4    45    46    1
     5    48    47   ar
     6    42    41    1
     7    46    47    1
     8    47    49   ar
     9    59    60    2
    10    59    58    1
    11    50    51    1
    12    57    58    1
    13    58    61    1
    14    52    51    1
    15    52    53    2
    16    51    54    1
    17    55    54    1
    18    61    62    1
    19    54    56    1
    20    62    63    1
    21    74    72   ar
    22    74    73   ar
    23    72    70   ar
    24    73    71   ar
    25    70    69    1
    26    70    71   ar
    27    69    66    1
    28    63    64    1
    29    32    31    1
    30    32    33    1
    31    32    35    1
    32    29    28   ar
    33    23    24    1
    34    40    38   ar
    35    40    39   ar
    36    24    25    1
    37    24    27    1
    38    38    36   ar
    39    65    66    1
    40    66    67    1
    41    33    34    2
    42    25    26    2
    43    39    37   ar
    44    36    37   ar
    45    36    35    1
    46    28    27    1
    47    28    30   ar
    48    81    80   ar
    49   200   198    1
    50   198   197    1
    51    67    68    2
    52   199   197    1
    53    89    88    1
    54    80    79    1
    55    80    82   ar
    56    79    76    1
    57   197   194    1
    58   194   193    1
    59   194   195    1
    60   196   195    2
    61    22    20   ar
    62    22    21   ar
    63    88    90    1
    64    88    87    1
    65    20    18   ar
    66   166   165    1
    67    21    19   ar
    68    18    19   ar
    69    18    17    1
    70    17    14    1
    71   158   156   ar
    72   158   157   ar
    73   159   160    1
    74    76    75    1
    75    76    77    1
    76   156   154   ar
    77    87    84    1
    78   157   155   ar
    79    16    15    2
    80   190   188   ar
    81   190   192   ar
    82   154   153   ar
    83    83    77   am
    84    83    84    1
    85    77    78    2
    86   151   150    2
    87   165   164    1
    88   164   163    1
    89   155   153   ar
    90   163   160    1
    91   188   187   ar
    92   160   161    1
    93   153   152    1
    94    84    85    1
    95   161   162    2
    96    14    15    1
    97    14    13    1
    98   149   150    1
    99   149   152    1
   100   149   148    1
   101   192   191   ar
   102   185   184    2
   103   139   137    1
   104   183   184    1
   105   183   182    1
   106   183   186    1
   107    13     3   am
   108   187   186    1
   109   187   189   ar
   110    10     8   ar
   111    10    11   ar
   112    85    86    2
   113     8     6   ar
   114   191   189   ar
   115   137   136    1
   116    12    11    1
   117     3     4    2
   118     3     2    1
   119    11     9   ar
   120     6     5    1
   121     6     7   ar
   122     5     2    1
   123   135   134    2
   124   170   169    2
   125   172   171    1
   126     2     1    1
   127   136   133    1
   128   136   138    1
   129   171   168    1
   130     9     7   ar
   131   134   133    1
   132   134   140   am
   133   168   169    1
   134   168   167    1
   135   133   132    1
   136   169   173   am
   137   143   142    2
   138    97    96    2
   139   147   146    1
   140   176   175    2
   141    91    92    1
   142   146   145    1
   143   142   141    1
   144   140   141    1
   145   141   144    1
   146    96    98   am
   147    96    95    1
   148   181   179   am
   149   173   174    1
   150   175   174    1
   151   174   177    1
   152    95    92    1
   153   180   179    2
   154    92    93    1
   155   179   178    1
   156   144   145    1
   157   123   121   ar
   158   123   124   ar
   159   114   113    2
   160    93    94    2
   161   121   118   ar
   162   177   178    1
   163   124   122   ar
   164   110   109    1
   165   128   127    2
   166   118   120   ar
   167   118   116   ar
   168   122   120   ar
   169   115   116    1
   170   115   112    1
   171   113   112    1
   172   113   125   am
   173   107   109   ar
   174   107   105   ar
   175   120   119   ar
   176   116   117   ar
   177   126   127    1
   178   126   125    1
   179   126   129    1
   180   109   108   ar
   181   131   129    1
   182   112   111    1
   183   119   117   ar
   184   130   129    1
   185   105   104   ar
   186   108   106   ar
   187   104   106   ar
   188   104   103    1
   189   102   101    2
   190   100   103    1
   191   100   101    1
   192   100    99    1
