@<TRIPOS>MOLECULE
tmp/3ly4A00.pdb
 132 126 0 0 0
SMALL
GASTEIGER

@<TRIPOS>ATOM
      1  N          4.8400   -1.4290  -12.8760 N.3    39  ALA39      -0.1231
      2  CA         4.6450   -2.5560  -11.9450 C.3    39  ALA39       0.1694
      3  C          5.7940   -3.5770  -12.1400 C.2    39  ALA39       0.2592
      4  O          6.9510   -3.1710  -12.3620 O.2    39  ALA39      -0.2718
      5  CB         3.2390   -3.1600  -12.1490 C.3    39  ALA39       0.0304
      6  N          5.5260   -4.8820  -12.0670 N.am   40  SER40      -0.1952
      7  CA         6.6090   -5.8690  -12.0790 C.3    40  SER40       0.1924
      8  C          7.3300   -6.0990  -13.4100 C.2    40  SER40       0.2314
      9  O          8.2620   -6.8590  -13.4420 O.2    40  SER40      -0.2863
     10  CB         6.1230   -7.2280  -11.5860 C.3    40  SER40       0.2116
     11  OG         5.9170   -7.1830  -10.1840 O.3    40  SER40      -0.2180
     12  N          4.9320   -9.0530    0.6370 N.3    72  ASN72      -0.1225
     13  CA         3.6690   -9.6600    0.1500 C.3    72  ASN72       0.1785
     14  C          3.7560  -11.0270   -0.5730 C.2    72  ASN72       0.2597
     15  O          3.2800  -12.0470   -0.0200 O.2    72  ASN72      -0.2718
     16  CB         2.7020   -8.6520   -0.5520 C.3    72  ASN72       0.1169
     17  CG         3.4020   -7.6900   -1.5850 C.2    72  ASN72       0.2627
     18  OD1        4.4830   -7.1310   -1.3330 O.2    72  ASN72      -0.2716
     19  ND2        2.7400   -7.4810   -2.7400 N.am   72  ASN72      -0.0877
     20  N          4.4080  -11.0320   -1.7500 N.am   73  TYR73      -0.1976
     21  CA         4.3170  -12.0920   -2.7610 C.3    73  TYR73       0.1639
     22  C          5.6990  -12.6670   -3.0700 C.2    73  TYR73       0.2290
     23  O          6.3380  -12.3050   -4.1100 O.2    73  TYR73      -0.2864
     24  CB         3.7270  -11.5100   -4.0710 C.3    73  TYR73       0.0560
     25  CG         2.2070  -11.3620   -4.1050 C.ar   73  TYR73      -0.0198
     26  CD1        1.4080  -12.3620   -4.6580 C.ar   73  TYR73      -0.0009
     27  CD2        1.5720  -10.2290   -3.5850 C.ar   73  TYR73      -0.0009
     28  CE1        0.0130  -12.2460   -4.6930 C.ar   73  TYR73       0.0417
     29  CE2        0.1700  -10.1050   -3.6100 C.ar   73  TYR73       0.0417
     30  CZ        -0.6010  -11.1240   -4.1670 C.ar   73  TYR73       0.1957
     31  OH        -1.9900  -11.0350   -4.2090 O.3    73  TYR73      -0.2866
     32  N          8.9500  -16.0190  -11.3220 N.3    97  TYR97      -0.1227
     33  CA         7.8680  -16.0920  -10.3840 C.3    97  TYR97       0.1736
     34  C          7.3220  -14.7510   -9.9600 C.2    97  TYR97       0.2596
     35  O          6.3700  -14.7160   -9.2270 O.2    97  TYR97      -0.2718
     36  CB         8.3200  -16.8840   -9.1360 C.3    97  TYR97       0.0548
     37  CG         8.3860  -18.3440   -9.4530 C.ar   97  TYR97      -0.0200
     38  CD1        9.5760  -18.9230   -9.8330 C.ar   97  TYR97      -0.0009
     39  CD2        7.2170  -19.1270   -9.4270 C.ar   97  TYR97      -0.0009
     40  CE1        9.6360  -20.2700  -10.1800 C.ar   97  TYR97       0.0417
     41  CE2        7.2610  -20.4870   -9.7580 C.ar   97  TYR97       0.0417
     42  CZ         8.4660  -21.0410  -10.1190 C.ar   97  TYR97       0.1957
     43  OH         8.5180  -22.3760  -10.4670 O.3    97  TYR97      -0.2866
     44  N          7.9160  -13.6720  -10.4590 N.am   98  SER98      -0.1952
     45  CA         7.7270  -12.2790   -9.9700 C.3    98  SER98       0.1924
     46  C          7.8060  -12.2310   -8.4530 C.2    98  SER98       0.2314
     47  O          6.8980  -11.6790   -7.7830 O.2    98  SER98      -0.2863
     48  CB         6.4310  -11.6610  -10.4880 C.3    98  SER98       0.2116
     49  OG         6.4830  -10.2620  -10.5250 O.3    98  SER98      -0.2180
     50  N          8.6500  -10.6580   -5.3700 N.3   100  ASN100     -0.1240
     51  CA         8.8540   -9.2590   -5.0430 C.3   100  ASN100      0.1653
     52  C         10.1190   -8.9650   -4.2160 C.2   100  ASN100      0.2266
     53  O         10.8330   -7.9810   -4.4730 O.2   100  ASN100     -0.2867
     54  CB         7.6030   -8.6740   -4.3900 C.3   100  ASN100      0.1155
     55  CG         6.4910   -8.3730   -5.3860 C.2   100  ASN100      0.2627
     56  OD1        6.7420   -8.0370   -6.5580 O.2   100  ASN100     -0.2716
     57  ND2        5.2550   -8.4470   -4.9140 N.am  100  ASN100     -0.0877
     58  N          5.2710   -1.3810   -5.5300 N.3   136  GLU136     -0.1245
     59  CA         3.9730   -2.0440   -5.3040 C.3   136  GLU136      0.1567
     60  C          3.3750   -1.7160   -3.9430 C.2   136  GLU136      0.2260
     61  O          2.1560   -1.7870   -3.7570 O.2   136  GLU136     -0.2867
     62  CB         4.0940   -3.5780   -5.4460 C.3   136  GLU136      0.0388
     63  CG         4.8290   -4.3200   -4.2720 C.3   136  GLU136      0.1160
     64  CD         6.3340   -4.5210   -4.5170 C.2   136  GLU136      0.3649
     65  OE1        7.0230   -5.1380   -3.6810 O.co2 136  GLU136     -0.2457
     66  OE2        6.8320   -4.0660   -5.5590 O.co2 136  GLU136     -0.2457
     67  N          4.3090  -16.9150  -14.8640 N.3   184  THR184     -0.1218
     68  CA         3.2320  -16.0250  -14.4140 C.3   184  THR184      0.1862
     69  C          2.3630  -15.4650  -15.5450 C.2   184  THR184      0.2287
     70  O          1.4290  -14.6930  -15.3140 O.2   184  THR184     -0.2866
     71  CB         3.7560  -14.7770  -13.6190 C.3   184  THR184      0.1770
     72  OG1        4.5080  -13.9270  -14.4920 O.3   184  THR184     -0.2211
     73  CG2        4.6070  -15.1460  -12.3860 C.3   184  THR184      0.0375
     74  N          7.4350  -10.8230  -19.3150 N.3   202  LYS202     -0.1231
     75  CA         7.3600  -10.4010  -17.9300 C.3   202  LYS202      0.1693
     76  C          6.0730   -9.6230  -17.6540 C.2   202  LYS202      0.2593
     77  O          5.8180   -8.5800  -18.2620 O.2   202  LYS202     -0.2718
     78  CB         8.5840   -9.5760  -17.5030 C.3   202  LYS202      0.0285
     79  CG         8.5060   -9.2080  -15.9940 C.3   202  LYS202      0.0035
     80  CD         8.7730  -10.4320  -15.1360 C.3   202  LYS202      0.0206
     81  CE         8.4030  -10.2060  -13.6470 C.3   202  LYS202      0.1093
     82  NZ         6.9130  -10.4790  -13.5180 N.3   202  LYS202     -0.1314
     83  N          5.3110  -10.1020  -16.6660 N.am  203  THR203     -0.1939
     84  CA         4.0180   -9.5500  -16.2620 C.3   203  THR203      0.2028
     85  C          4.1560   -8.5490  -15.1010 C.2   203  THR203      0.2643
     86  O          5.2170   -8.4160  -14.4570 O.2   203  THR203     -0.2714
     87  CB         3.0920  -10.6950  -15.7250 C.3   203  THR203      0.1808
     88  OG1        3.7820  -11.3510  -14.6660 O.3   203  THR203     -0.2208
     89  CG2        2.7480  -11.7280  -16.8180 C.3   203  THR203      0.0379
     90  N          3.0710   -7.8260  -14.8610 N.am  204  GLY204     -0.1939
     91  CA         2.9890   -6.8920  -13.7900 C.3   204  GLY204      0.2014
     92  C          1.5150   -6.6510  -13.4830 C.2   204  GLY204      0.2639
     93  O          0.6320   -6.8980  -14.2870 O.2   204  GLY204     -0.2714
     94  N          1.2590   -6.2080  -12.2660 N.am  205  ALA205     -0.1963
     95  CA        -0.1020   -5.9720  -11.8170 C.3   205  ALA205      0.1728
     96  C          0.0600   -4.9500  -10.7170 C.2   205  ALA205      0.2616
     97  O          0.9990   -5.0070   -9.9160 O.2   205  ALA205     -0.2715
     98  CB        -0.7700   -7.2680  -11.2810 C.3   205  ALA205      0.0334
     99  N         -0.7420   -3.7860  -10.5890 N.am  206  ALA206     -0.1963
    100  CA        -0.6690   -2.8250   -9.5370 C.3   206  ALA206      0.1728
    101  C         -2.0710   -2.4590   -9.1300 C.2   206  ALA206      0.2616
    102  O         -3.0000   -2.5600   -9.9330 O.2   206  ALA206     -0.2715
    103  CB         0.1380   -1.6100   -9.9680 C.3   206  ALA206      0.0334
    104  N         -2.1870   -1.3990   -8.3960 N.am  207  SER207     -0.1950
    105  CA        -3.5070   -0.8130   -8.1880 C.3   207  SER207      0.1924
    106  C         -4.0050   -0.1160   -9.4520 C.2   207  SER207      0.2314
    107  O         -3.2820   -0.0210  -10.4640 O.2   207  SER207     -0.2863
    108  CB        -3.4410    0.1670   -7.0310 C.3   207  SER207      0.2116
    109  OG        -2.4420    1.1280   -7.2810 O.3   207  SER207     -0.2180
    110  N         -2.7110   -3.8310  -15.3890 N.3   211  ARG211     -0.1245
    111  CA        -2.3930   -5.1820  -15.8010 C.3   211  ARG211      0.1563
    112  C         -1.5420   -5.1160  -17.0590 C.2   211  ARG211      0.2260
    113  O         -1.9890   -4.6360  -18.0680 O.2   211  ARG211     -0.2867
    114  CB        -3.6760   -5.9910  -15.9750 C.3   211  ARG211      0.0307
    115  CG        -3.4310   -7.4790  -16.1320 C.3   211  ARG211      0.0489
    116  CD        -2.5010   -7.9830  -15.0800 C.3   211  ARG211      0.2205
    117  NE        -2.5810   -9.4250  -14.9550 N.pl3 211  ARG211     -0.0865
    118  CZ        -1.6290  -10.2020  -14.4240 C.cat 211  ARG211      0.5346
    119  NH1       -0.4510   -9.6840  -14.0170 N.pl3 211  ARG211      0.1354
    120  NH2       -1.8380  -11.5190  -14.3330 N.pl3 211  ARG211      0.1354
    121  N         -8.7290   -6.1910  -12.5680 N.3   240  TYR240     -0.1241
    122  CA        -8.2810   -6.3700  -13.9670 C.3   240  TYR240      0.1605
    123  C         -8.7900   -7.6970  -14.5640 C.2   240  TYR240      0.2264
    124  O         -9.2020   -8.5860  -13.8540 O.2   240  TYR240     -0.2867
    125  CB        -6.7460   -6.2580  -14.1050 C.3   240  TYR240      0.0534
    126  CG        -5.9900   -7.3000  -13.3080 C.ar  240  TYR240     -0.0201
    127  CD1       -5.9210   -8.6240  -13.7370 C.ar  240  TYR240     -0.0009
    128  CD2       -5.3280   -6.9520  -12.1210 C.ar  240  TYR240     -0.0009
    129  CE1       -5.2210   -9.5870  -12.9900 C.ar  240  TYR240      0.0417
    130  CE2       -4.6310   -7.9020  -11.3780 C.ar  240  TYR240      0.0417
    131  CZ        -4.5870   -9.2050  -11.8230 C.ar  240  TYR240      0.1957
    132  OH        -3.9050  -10.1200  -11.0740 O.3   240  TYR240     -0.2866
@<TRIPOS>BOND
     1    74    75    1
     2    77    76    2
     3   113   112    2
     4    75    76    1
     5    75    78    1
     6    76    83   am
     7    78    79    1
     8   112   111    1
     9    89    87    1
    10    83    84    1
    11    84    87    1
    12    84    85    1
    13   115   114    1
    14   115   116    1
    15    79    80    1
    16   114   111    1
    17   111   110    1
    18    87    88    1
    19    69    70    2
    20    69    68    1
    21    80    81    1
    22    85    90   am
    23    85    86    2
    24   116   117    1
    25   117   118    2
    26    67    68    1
    27    90    91    1
    28   123   122    1
    29   123   124    2
    30    72    71    1
    31   118   120    1
    32   118   119    1
    33    68    71    1
    34    93    92    2
    35   125   122    1
    36   125   126    1
    37   122   121    1
    38    91    92    1
    39   127   126   ar
    40   127   129   ar
    41    81    82    1
    42    71    73    1
    43    92    94   am
    44     9     8    2
    45     8     7    1
    46   126   128   ar
    47   129   131   ar
    48     1     2    1
    49     4     3    2
    50    94    95    1
    51     5     2    1
    52     3     6   am
    53     3     2    1
    54   128   130   ar
    55     7     6    1
    56     7    10    1
    57   131   130   ar
    58   131   132    1
    59    95    98    1
    60    95    96    1
    61    10    11    1
    62    32    33    1
    63    96    99   am
    64    96    97    2
    65    99   100    1
    66    49    48    1
    67    48    45    1
    68    43    42    1
    69   107   106    2
    70    44    45    1
    71    44    34   am
    72    33    34    1
    73    33    36    1
    74    40    42   ar
    75    40    38   ar
    76    42    41   ar
    77    45    46    1
    78   103   100    1
    79    34    35    2
    80   102   101    2
    81    38    37   ar
    82    41    39   ar
    83   100   101    1
    84    37    39   ar
    85    37    36    1
    86   106   105    1
    87   101   104   am
    88    46    47    2
    89   104   105    1
    90   105   108    1
    91   109   108    1
    92    56    55    2
    93    66    64   ar
    94    58    59    1
    95    62    59    1
    96    62    63    1
    97    55    57   am
    98    55    54    1
    99    50    51    1
   100    59    60    1
   101    51    54    1
   102    51    52    1
   103    28    26   ar
   104    28    30   ar
   105    26    25   ar
   106    64    63    1
   107    64    65   ar
   108    53    52    2
   109    31    30    1
   110    30    29   ar
   111    23    22    2
   112    25    24    1
   113    25    27   ar
   114    24    21    1
   115    60    61    2
   116    29    27   ar
   117    22    21    1
   118    21    20    1
   119    19    17   am
   120    20    14   am
   121    17    18    2
   122    17    16    1
   123    14    15    2
   124    14    13    1
   125    16    13    1
   126    13    12    1
