@<TRIPOS>MOLECULE
tmp/3lz6A01.pdb
 155 148 0 0 0
SMALL
GASTEIGER

@<TRIPOS>ATOM
      1  N         19.8070   22.9010   50.4330 N.3    96  VAL96      -0.1245
      2  CA        19.0770   24.0000   49.7500 C.3    96  VAL96       0.1561
      3  C         18.6570   25.0310   50.7440 C.2    96  VAL96       0.2260
      4  O         18.4900   24.7070   51.9280 O.2    96  VAL96      -0.2867
      5  CB        17.8360   23.4710   48.9530 C.3    96  VAL96       0.0252
      6  CG1       16.5660   23.2030   49.8670 C.3    96  VAL96       0.0019
      7  CG2       17.5490   24.3670   47.7320 C.3    96  VAL96       0.0019
      8  N         16.2060   27.5950   52.6730 N.3    98  TYR98      -0.1227
      9  CA        14.7490   27.6210   52.9420 C.3    98  TYR98       0.1736
     10  C         14.1180   28.8270   52.2680 C.2    98  TYR98       0.2595
     11  O         14.6640   29.9070   52.2560 O.2    98  TYR98      -0.2718
     12  CB        14.3190   27.5740   54.4320 C.3    98  TYR98       0.0548
     13  CG        12.7680   27.5310   54.4840 C.ar   98  TYR98      -0.0200
     14  CD1       12.0640   28.5360   55.1200 C.ar   98  TYR98      -0.0009
     15  CD2       12.0120   26.5410   53.7770 C.ar   98  TYR98      -0.0009
     16  CE1       10.6560   28.5690   55.1320 C.ar   98  TYR98       0.0417
     17  CE2       10.5730   26.5580   53.7890 C.ar   98  TYR98       0.0417
     18  CZ         9.9110   27.6040   54.4810 C.ar   98  TYR98       0.1957
     19  OH         8.5220   27.7750   54.5750 O.3    98  TYR98      -0.2866
     20  N         12.9890   28.6060   51.6410 N.am   99  ASN99      -0.1974
     21  CA        12.2910   29.6440   50.8870 C.3    99  ASN99       0.1688
     22  C         10.7930   29.4350   51.0520 C.2    99  ASN99       0.2292
     23  O         10.3060   28.3200   50.8040 O.2    99  ASN99      -0.2864
     24  CB        12.6490   29.5910   49.3830 C.3    99  ASN99       0.1181
     25  CG        12.3230   28.2150   48.7180 C.2    99  ASN99       0.2629
     26  OD1       11.6070   28.1410   47.6830 O.2    99  ASN99      -0.2716
     27  ND2       12.8820   27.1180   49.3010 N.am   99  ASN99      -0.0877
     28  N          6.7280   30.3560   49.9690 N.3   101  LEU101     -0.1245
     29  CA         6.0440   30.4520   48.7060 C.3   101  LEU101      0.1561
     30  C          5.2370   31.7440   48.6750 C.2   101  LEU101      0.2260
     31  O          4.1860   31.8740   49.3620 O.2   101  LEU101     -0.2867
     32  CB         5.0940   29.2890   48.5130 C.3   101  LEU101      0.0270
     33  CG         5.5170   27.8180   48.6320 C.3   101  LEU101      0.0019
     34  CD1        4.7780   27.0020   47.6300 C.3   101  LEU101      0.0001
     35  CD2        7.0380   27.5820   48.5590 C.3   101  LEU101      0.0001
     36  N         14.9060   19.1150   41.3170 N.3   145  SER145     -0.1202
     37  CA        13.4680   19.1540   41.5120 C.3   145  SER145      0.2020
     38  C         12.7580   19.1670   40.1440 C.2   145  SER145      0.2619
     39  O         13.3500   19.5660   39.1750 O.2   145  SER145     -0.2717
     40  CB        13.0690   20.4230   42.2300 C.3   145  SER145      0.2103
     41  OG        11.6330   20.5440   42.3540 O.3   145  SER145     -0.2182
     42  N         11.4790   18.8060   40.1090 N.am  146  VAL146     -0.1965
     43  CA        10.6410   19.0220   38.9350 C.3   146  VAL146      0.1727
     44  C         10.7170   20.5470   38.5960 C.2   146  VAL146      0.2616
     45  O         10.6920   20.9340   37.4230 O.2   146  VAL146     -0.2715
     46  CB         9.2170   18.4350   39.1650 C.3   146  VAL146      0.0290
     47  CG1        8.2190   18.7250   38.0060 C.3   146  VAL146      0.0023
     48  CG2        9.3130   16.9300   39.4080 C.3   146  VAL146      0.0023
     49  N         10.8970   21.3790   39.6090 N.am  147  ALA147     -0.1977
     50  CA        11.0270   22.8170   39.4690 C.3   147  ALA147      0.1597
     51  C         12.3950   23.2730   38.8950 C.2   147  ALA147      0.2287
     52  O         12.6090   24.4980   38.7000 O.2   147  ALA147     -0.2864
     53  CB        10.7840   23.4960   40.8020 C.3   147  ALA147      0.0319
     54  N          7.1600   26.7590   38.3980 N.3   152  TYR152     -0.1228
     55  CA         6.0240   26.8130   39.3000 C.3   152  TYR152      0.1721
     56  C          5.8870   28.2050   39.8680 C.2   152  TYR152      0.2437
     57  O          6.8530   28.7570   40.4620 O.2   152  TYR152     -0.2733
     58  CB         6.2600   25.9130   40.4780 C.3   152  TYR152      0.0547
     59  CG         6.1890   24.4160   40.2210 C.ar  152  TYR152     -0.0200
     60  CD1        7.2800   23.7040   39.6880 C.ar  152  TYR152     -0.0009
     61  CD2        5.0460   23.7120   40.5320 C.ar  152  TYR152     -0.0009
     62  CE1        7.1870   22.3220   39.4730 C.ar  152  TYR152      0.0417
     63  CE2        4.9700   22.3240   40.3690 C.ar  152  TYR152      0.0417
     64  CZ         6.0630   21.6630   39.8210 C.ar  152  TYR152      0.1957
     65  OH         6.0320   20.3200   39.6430 O.3   152  TYR152     -0.2866
     66  N          4.6820   28.7560   39.8420 N.am  153  PRO153     -0.2729
     67  CA         4.4440   29.9750   40.6250 C.3   153  PRO153      0.1401
     68  C          4.9150   29.9060   42.0750 C.2   153  PRO153      0.2269
     69  O          4.7520   28.8420   42.7200 O.2   153  PRO153     -0.2865
     70  CB         2.9250   30.1390   40.5570 C.3   153  PRO153      0.0296
     71  CG         2.6200   29.6340   39.2420 C.3   153  PRO153      0.0237
     72  CD         3.4580   28.2990   39.1620 C.3   153  PRO153      0.0939
     73  N          8.0380   30.3680   43.4800 N.3   155  ILE155     -0.1245
     74  CA         9.3650   29.8970   43.8430 C.3   155  ILE155      0.1561
     75  C         10.4370   30.2660   42.8030 C.2   155  ILE155      0.2260
     76  O         11.4470   29.5590   42.6310 O.2   155  ILE155     -0.2867
     77  CB         9.3760   28.3710   44.2010 C.3   155  ILE155      0.0252
     78  CG1        8.7260   27.5340   43.0780 C.3   155  ILE155      0.0019
     79  CG2        8.6720   28.1130   45.5020 C.3   155  ILE155      0.0019
     80  CD1        8.9580   26.0010   43.1640 C.3   155  ILE155      0.0001
     81  N         14.2070   29.9770   43.6820 N.3   158  TYR158     -0.1241
     82  CA        14.6030   28.5940   43.7990 C.3   158  TYR158      0.1605
     83  C         14.7240   27.8450   42.4810 C.2   158  TYR158      0.2264
     84  O         15.7120   27.1890   42.1900 O.2   158  TYR158     -0.2867
     85  CB        13.6710   27.9120   44.7360 C.3   158  TYR158      0.0534
     86  CG        13.6940   26.4000   44.8360 C.ar  158  TYR158     -0.0201
     87  CD1       12.8830   25.6390   44.0180 C.ar  158  TYR158     -0.0009
     88  CD2       14.2930   25.7850   45.8970 C.ar  158  TYR158     -0.0009
     89  CE1       12.7660   24.2470   44.1900 C.ar  158  TYR158      0.0417
     90  CE2       14.1310   24.4540   46.1050 C.ar  158  TYR158      0.0417
     91  CZ        13.3950   23.6830   45.2260 C.ar  158  TYR158      0.1957
     92  OH        13.2070   22.3420   45.4520 O.3   158  TYR158     -0.2866
     93  N         13.2720   15.4230   41.7600 N.3   190  LEU190     -0.1231
     94  CA        12.3280   14.9880   42.7840 C.3   190  LEU190      0.1693
     95  C         11.0010   15.7480   42.6240 C.2   190  LEU190      0.2593
     96  O         11.0300   16.9450   42.4000 O.2   190  LEU190     -0.2718
     97  CB        12.8800   15.2900   44.1900 C.3   190  LEU190      0.0284
     98  CG        14.3290   14.8790   44.4530 C.3   190  LEU190      0.0019
     99  CD1       14.6870   15.0210   45.9810 C.3   190  LEU190      0.0001
    100  CD2       14.5850   13.4690   44.0310 C.3   190  LEU190      0.0001
    101  N          9.8600   15.0440   42.6940 N.am  191  GLY191     -0.1942
    102  CA         8.5580   15.7030   42.8600 C.3   191  GLY191      0.2014
    103  C          8.4080   16.0740   44.3300 C.2   191  GLY191      0.2638
    104  O          9.3890   16.0720   45.0610 O.2   191  GLY191     -0.2714
    105  N          7.1930   16.4150   44.7730 N.am  192  LEU192     -0.1977
    106  CA         6.9560   16.7860   46.1900 C.3   192  LEU192      0.1596
    107  C          7.2210   15.6290   47.1300 C.2   192  LEU192      0.2287
    108  O          6.7260   14.5200   46.8830 O.2   192  LEU192     -0.2864
    109  CB         5.5070   17.1890   46.3750 C.3   192  LEU192      0.0297
    110  CG         5.0880   18.3870   47.2280 C.3   192  LEU192      0.0022
    111  CD1        3.7300   18.1230   47.9240 C.3   192  LEU192      0.0001
    112  CD2        6.1340   19.0660   48.0870 C.3   192  LEU192      0.0001
    113  N          8.7900   15.7890   53.5020 N.3   195  THR195     -0.1218
    114  CA         9.6910   16.3030   54.5290 C.3   195  THR195      0.1862
    115  C          8.8810   17.3370   55.3150 C.2   195  THR195      0.2287
    116  O          7.9470   17.8960   54.7820 O.2   195  THR195     -0.2866
    117  CB        10.9770   16.9320   53.9640 C.3   195  THR195      0.1770
    118  OG1       10.7070   18.1170   53.1740 O.3   195  THR195     -0.2211
    119  CG2       11.6880   15.9290   53.0240 C.3   195  THR195      0.0375
    120  N          9.7980   20.2950   56.1200 N.3   197  THR197     -0.1203
    121  CA         9.8800   21.5710   55.4410 C.3   197  THR197      0.1994
    122  C          8.8630   21.7280   54.2810 C.2   197  THR197      0.2617
    123  O          8.2480   22.8260   54.0930 O.2   197  THR197     -0.2717
    124  CB        11.3060   21.7810   54.9190 C.3   197  THR197      0.1784
    125  OG1       11.7290   20.5710   54.2710 O.3   197  THR197     -0.2211
    126  CG2       12.2370   21.9220   56.0120 C.3   197  THR197      0.0376
    127  N          8.7260   20.6960   53.4410 N.am  198  ALA198     -0.1979
    128  CA         7.7540   20.7820   52.3510 C.3   198  ALA198      0.1597
    129  C          6.2820   20.8040   52.8190 C.2   198  ALA198      0.2287
    130  O          5.4520   21.5110   52.2400 O.2   198  ALA198     -0.2864
    131  CB         7.9660   19.6280   51.3460 C.3   198  ALA198      0.0319
    132  N          5.6260   24.3190   54.2830 N.3   201  ALA201     -0.1231
    133  CA         5.7240   25.3050   53.2040 C.3   201  ALA201      0.1694
    134  C          4.5840   25.1890   52.2100 C.2   201  ALA201      0.2592
    135  O          4.1360   26.2000   51.6880 O.2   201  ALA201     -0.2718
    136  CB         7.1330   25.1870   52.4840 C.3   201  ALA201      0.0304
    137  N          4.0690   23.9910   51.9090 N.am  202  THR202     -0.1953
    138  CA         2.9800   23.9530   50.9330 C.3   202  THR202      0.1897
    139  C          1.5650   24.0380   51.5640 C.2   202  THR202      0.2313
    140  O          0.5980   24.2880   50.8430 O.2   202  THR202     -0.2863
    141  CB         3.1000   22.7320   50.0850 C.3   202  THR202      0.1794
    142  OG1        3.1320   21.5770   50.9260 O.3   202  THR202     -0.2208
    143  CG2        4.4540   22.7520   49.3530 C.3   202  THR202      0.0378
    144  N         -0.1510   24.7180   48.0350 N.3   206  TYR206     -0.1241
    145  CA         0.0660   23.7290   46.9870 C.3   206  TYR206      0.1605
    146  C         -0.3530   22.3750   47.5530 C.2   206  TYR206      0.2264
    147  O          0.1730   21.9180   48.5610 O.2   206  TYR206     -0.2867
    148  CB         1.5040   23.7250   46.5090 C.3   206  TYR206      0.0534
    149  CG         1.7020   22.7740   45.3700 C.ar  206  TYR206     -0.0201
    150  CD1        1.4490   23.1630   44.0640 C.ar  206  TYR206     -0.0009
    151  CD2        2.1140   21.4690   45.6090 C.ar  206  TYR206     -0.0009
    152  CE1        1.6230   22.2580   43.0280 C.ar  206  TYR206      0.0417
    153  CE2        2.2960   20.5780   44.5930 C.ar  206  TYR206      0.0417
    154  CZ         2.0210   20.9680   43.3240 C.ar  206  TYR206      0.1957
    155  OH         2.1730   20.0850   42.3360 O.3   206  TYR206     -0.2866
@<TRIPOS>BOND
     1    45    44    2
     2    47    46    1
     3    54    55    1
     4    44    43    1
     5    44    49   am
     6    52    51    2
     7    51    50    1
     8    43    46    1
     9    43    42    1
    10    72    71    1
    11    72    66    1
    12    46    48    1
    13    39    38    2
    14    71    70    1
    15    55    56    1
    16    55    58    1
    17    50    49    1
    18    50    53    1
    19    62    60   ar
    20    62    64   ar
    21    65    64    1
    22    60    59   ar
    23    64    63   ar
    24    66    56   am
    25    66    67    1
    26    56    57    2
    27    42    38   am
    28    38    37    1
    29    59    58    1
    30    59    61   ar
    31    63    61   ar
    32    70    67    1
    33    67    68    1
    34    36    37    1
    35    37    40    1
    36    93    94    1
    37    68    69    2
    38    84    83    2
    39    40    41    1
    40   155   154    1
    41    96    95    2
    42    83    82    1
    43    95   101   am
    44    95    94    1
    45    76    75    2
    46   101   102    1
    47    94    97    1
    48    75    74    1
    49   102   103    1
    50   152   154   ar
    51   152   150   ar
    52    78    80    1
    53    78    77    1
    54   154   153   ar
    55    73    74    1
    56    81    82    1
    57    82    85    1
    58    74    77    1
    59    87    89   ar
    60    87    86   ar
    61   100    98    1
    62   150   149   ar
    63    89    91   ar
    64    97    98    1
    65    77    79    1
    66   103   105   am
    67   103   104    2
    68    98    99    1
    69   153   151   ar
    70    85    86    1
    71   105   106    1
    72    86    88   ar
    73    91    92    1
    74    91    90   ar
    75   149   151   ar
    76   149   148    1
    77    88    90   ar
    78   106   109    1
    79   106   107    1
    80   109   110    1
    81   148   145    1
    82   108   107    2
    83   145   146    1
    84   145   144    1
    85   110   111    1
    86   110   112    1
    87   146   147    2
    88    34    33    1
    89    26    25    2
    90     7     5    1
    91    32    33    1
    92    32    29    1
    93    35    33    1
    94    30    29    1
    95    30    31    2
    96    29    28    1
    97    25    27   am
    98    25    24    1
    99     5     2    1
   100     5     6    1
   101   143   141    1
   102    24    21    1
   103     2     1    1
   104     2     3    1
   105   141   142    1
   106   141   138    1
   107     3     4    2
   108    23    22    2
   109   140   139    2
   110    21    22    1
   111    21    20    1
   112   138   139    1
   113   138   137    1
   114   131   128    1
   115    20    10   am
   116   135   134    2
   117   137   134   am
   118   134   133    1
   119   130   129    2
   120    11    10    2
   121    10     9    1
   122   128   129    1
   123   128   127    1
   124   136   133    1
   125     8     9    1
   126     9    12    1
   127   119   117    1
   128   118   117    1
   129   133   132    1
   130   127   122   am
   131   113   114    1
   132    15    17   ar
   133    15    13   ar
   134    17    18   ar
   135   117   114    1
   136   123   122    2
   137   125   124    1
   138   122   121    1
   139    12    13    1
   140    18    19    1
   141    18    16   ar
   142    13    14   ar
   143   114   115    1
   144   116   115    2
   145   124   121    1
   146   124   126    1
   147    14    16   ar
   148   121   120    1
