@<TRIPOS>MOLECULE
tmp/3lzbA00.pdb
 204 193 0 0 0
SMALL
GASTEIGER

@<TRIPOS>ATOM
      1  N         14.0790   17.0520   -0.6120 N.3    16  LEU16      -0.1231
      2  CA        13.6950   16.4250    0.6370 C.3    16  LEU16       0.1693
      3  C         14.9110   16.3080    1.5350 C.2    16  LEU16       0.2592
      4  O         14.7600   16.2750    2.7590 O.2    16  LEU16      -0.2718
      5  CB        13.0870   15.0430    0.3640 C.3    16  LEU16       0.0284
      6  CG        11.7400   15.0700   -0.3620 C.3    16  LEU16       0.0019
      7  CD1       11.3140   13.6870   -0.7610 C.3    16  LEU16       0.0001
      8  CD2       10.6620   15.8050    0.4380 C.3    16  LEU16       0.0001
      9  N         16.1050   16.2240    0.9390 N.am   17  GLY17      -0.1957
     10  CA        17.3220   16.1220    1.7150 C.3    17  GLY17       0.1869
     11  C         18.5490   15.9990    0.8420 C.2    17  GLY17       0.2309
     12  O         18.4450   15.7330   -0.3440 O.2    17  GLY17      -0.2863
     13  N         18.0050   14.2440   -2.6080 N.3    24  VAL24      -0.1245
     14  CA        16.7510   13.5440   -2.6970 C.3    24  VAL24       0.1561
     15  C         15.5890   14.5010   -2.9140 C.2    24  VAL24       0.2260
     16  O         15.4420   15.4800   -2.2050 O.2    24  VAL24      -0.2867
     17  CB        16.5280   12.5640   -1.4920 C.3    24  VAL24       0.0252
     18  CG1       15.2310   11.7510   -1.7170 C.3    24  VAL24       0.0019
     19  CG2       17.6930   11.6310   -1.3330 C.3    24  VAL24       0.0019
     20  N         10.1610    9.1190   -5.7600 N.3    41  ALA41      -0.1245
     21  CA        11.3210    9.6210   -5.0380 C.3    41  ALA41       0.1562
     22  C         12.3870    9.6390   -6.1100 C.2    41  ALA41       0.2260
     23  O         12.5140    8.6860   -6.8860 O.2    41  ALA41      -0.2867
     24  CB        11.7210    8.6810   -3.9500 C.3    41  ALA41       0.0290
     25  N         16.5050   10.3950   -6.6670 N.3    43  LYS43      -0.1245
     26  CA        17.8040   10.6930   -6.0640 C.3    43  LYS43       0.1561
     27  C         18.7590   11.0810   -7.1890 C.2    43  LYS43       0.2260
     28  O         19.0820   10.2840   -8.0670 O.2    43  LYS43      -0.2867
     29  CB        18.3750    9.5300   -5.2790 C.3    43  LYS43       0.0271
     30  CG        19.5940    9.9260   -4.4480 C.3    43  LYS43       0.0035
     31  CD        20.3170    8.7150   -3.8250 C.3    43  LYS43       0.0206
     32  CE        19.9100    8.5310   -2.3890 C.3    43  LYS43       0.1093
     33  NZ        20.0360    7.1030   -1.9640 N.3    43  LYS43      -0.1314
     34  N         20.6480   -3.4690   -9.7740 N.3    64  MET64      -0.1245
     35  CA        19.9110   -2.9090   -8.6520 C.3    64  MET64       0.1570
     36  C         18.4130   -2.8810   -8.9040 C.2    64  MET64       0.2261
     37  O         17.6300   -2.7790   -7.9920 O.2    64  MET64      -0.2867
     38  CB        20.3890   -1.5080   -8.3510 C.3    64  MET64       0.0387
     39  CG        21.8610   -1.2960   -8.5120 C.3    64  MET64       0.0595
     40  SD        22.0860    0.3800   -9.1440 S.3    64  MET64      -0.1393
     41  CE        23.8930    0.7290   -8.7650 C.3    64  MET64       0.0692
     42  N         15.6340   -1.8360   -0.8670 N.3    73  CYS73      -0.1221
     43  CA        15.0360   -0.8300   -1.7030 C.3    73  CYS73       0.1808
     44  C         15.4540   -1.0780   -3.1440 C.2    73  CYS73       0.2601
     45  O         16.6500   -1.1450   -3.4370 O.2    73  CYS73      -0.2717
     46  CB        15.5280    0.5260   -1.2400 C.3    73  CYS73       0.0970
     47  SG        14.8210    1.8500   -2.1930 S.3    73  CYS73      -0.0800
     48  N         14.4690   -1.2100   -4.0340 N.am   74  ARG74      -0.1965
     49  CA        14.6990   -1.5030   -5.4590 C.3    74  ARG74       0.1729
     50  C         14.7860   -0.2880   -6.3680 C.2    74  ARG74       0.2616
     51  O         13.9610    0.5910   -6.2710 O.2    74  ARG74      -0.2715
     52  CB        13.5150   -2.3350   -5.9650 C.3    74  ARG74       0.0348
     53  CG        13.8180   -3.2190   -7.1450 C.3    74  ARG74       0.0492
     54  CD        12.5390   -3.7550   -7.7900 C.3    74  ARG74       0.2205
     55  NE        12.6140   -3.6010   -9.2360 N.pl3  74  ARG74      -0.0865
     56  CZ        11.5640   -3.5380  -10.0520 C.cat  74  ARG74       0.5346
     57  NH1       10.3450   -3.6710   -9.5650 N.pl3  74  ARG74       0.1354
     58  NH2       11.7370   -3.3600  -11.3620 N.pl3  74  ARG74       0.1354
     59  N         15.7000   -0.2660   -7.3220 N.am   75  LEU75      -0.1977
     60  CA        15.7000    0.8210   -8.3230 C.3    75  LEU75       0.1596
     61  C         14.5200    0.6280   -9.3110 C.2    75  LEU75       0.2287
     62  O         14.4600   -0.3920  -10.0280 O.2    75  LEU75      -0.2864
     63  CB        16.9580    0.7340   -9.1910 C.3    75  LEU75       0.0297
     64  CG        17.2950    1.9370  -10.0750 C.3    75  LEU75       0.0022
     65  CD1       16.9870    3.1510   -9.2360 C.3    75  LEU75       0.0001
     66  CD2       18.7690    1.9180  -10.3740 C.3    75  LEU75       0.0001
     67  N         18.0650    8.4440   -9.9950 N.3    86  LEU86      -0.1245
     68  CA        17.4850    7.1720   -9.5760 C.3    86  LEU86       0.1561
     69  C         16.0730    7.3810   -9.0400 C.2    86  LEU86       0.2260
     70  O         15.8460    8.2320   -8.1750 O.2    86  LEU86      -0.2867
     71  CB        18.3550    6.5420   -8.5010 C.3    86  LEU86       0.0270
     72  CG        19.8020    6.4060   -8.9570 C.3    86  LEU86       0.0019
     73  CD1       20.6460    5.9170   -7.7800 C.3    86  LEU86       0.0001
     74  CD2       19.9320    5.4560  -10.1750 C.3    86  LEU86       0.0001
     75  N         12.5200    5.7080   -7.3660 N.3    88  THR88      -0.1203
     76  CA        11.9580    4.6360   -6.5730 C.3    88  THR88       0.1994
     77  C         10.6260    5.1160   -5.9630 C.2    88  THR88       0.2618
     78  O         10.1820    6.2670   -6.1290 O.2    88  THR88      -0.2717
     79  CB        12.9530    4.1270   -5.5170 C.3    88  THR88       0.1784
     80  OG1       12.3650    3.0600   -4.7860 O.3    88  THR88      -0.2211
     81  CG2       13.2720    5.2330   -4.5720 C.3    88  THR88       0.0376
     82  N          9.9680    4.1910   -5.2980 N.am   89  GLN89      -0.1965
     83  CA         8.7290    4.4780   -4.6370 C.3    89  GLN89       0.1733
     84  C          9.0330    5.4520   -3.5000 C.2    89  GLN89       0.2616
     85  O          9.9700    5.2730   -2.7230 O.2    89  GLN89      -0.2715
     86  CB         8.1370    3.1710   -4.1070 C.3    89  GLN89       0.0408
     87  CG         7.0220    3.3180   -3.1110 C.3    89  GLN89       0.0908
     88  CD         6.4260    1.9730   -2.7140 C.2    89  GLN89       0.2608
     89  OE1        6.4980    1.5710   -1.5550 O.2    89  GLN89      -0.2717
     90  NE2        5.8290    1.2790   -3.6730 N.am   89  GLN89      -0.0878
     91  N          8.2690    6.5350   -3.4740 N.am   90  LEU90      -0.1963
     92  CA         8.4110    7.5700   -2.4710 C.3    90  LEU90       0.1728
     93  C          7.9580    7.0400   -1.1270 C.2    90  LEU90       0.2616
     94  O          6.9350    6.3730   -1.0200 O.2    90  LEU90      -0.2715
     95  CB         7.5510    8.7670   -2.8650 C.3    90  LEU90       0.0311
     96  CG         7.3900    9.9350   -1.8820 C.3    90  LEU90       0.0022
     97  CD1        8.7030   10.7570   -1.7140 C.3    90  LEU90       0.0001
     98  CD2        6.2360   10.8360   -2.4040 C.3    90  LEU90       0.0001
     99  N          8.7110    7.3320   -0.0900 N.am   91  MET91      -0.1964
    100  CA         8.3220    6.9130    1.2260 C.3    91  MET91       0.1722
    101  C          8.2710    8.1970    2.0020 C.2    91  MET91       0.2458
    102  O          8.9690    9.1380    1.7010 O.2    91  MET91      -0.2730
    103  CB         9.3900    5.9950    1.8330 C.3    91  MET91       0.0427
    104  CG         9.6920    4.7250    1.0180 C.3    91  MET91       0.0599
    105  SD        11.0060    3.8350    1.8270 S.3    91  MET91      -0.1393
    106  CE        12.0860    3.6100    0.3640 C.3    91  MET91       0.0692
    107  N          7.4520    8.2470    3.0380 N.am   92  PRO92      -0.2716
    108  CA         7.2750    9.4270    3.8820 C.3    92  PRO92       0.1536
    109  C          8.3220    9.6310    4.9530 C.2    92  PRO92       0.2599
    110  O          8.2490   10.6270    5.6730 O.2    92  PRO92      -0.2715
    111  CB         5.9500    9.1270    4.5950 C.3    92  PRO92       0.0310
    112  CG         5.8510    7.6240    4.6170 C.3    92  PRO92       0.0237
    113  CD         6.4500    7.1990    3.3130 C.3    92  PRO92       0.0939
    114  N          9.2630    8.6920    5.1060 N.am   93  PHE93      -0.1960
    115  CA        10.1810    8.7370    6.2290 C.3    93  PHE93       0.1771
    116  C         11.6520    8.9030    6.0430 C.2    93  PHE93       0.2620
    117  O         12.3570    9.0000    7.0520 O.2    93  PHE93      -0.2715
    118  CB         9.9500    7.5490    7.1720 C.3    93  PHE93       0.0574
    119  CG         8.7540    7.6890    8.0540 C.ar   93  PHE93      -0.0200
    120  CD1        8.8030    8.4860    9.1810 C.ar   93  PHE93      -0.0042
    121  CD2        7.5910    6.9830    7.7940 C.ar   93  PHE93      -0.0042
    122  CE1        7.6930    8.5950   10.0490 C.ar   93  PHE93      -0.0003
    123  CE2        6.4900    7.0870    8.6350 C.ar   93  PHE93      -0.0003
    124  CZ         6.5440    7.8810    9.7750 C.ar   93  PHE93      -0.0000
    125  N         12.1960    8.8830    4.8420 N.am   94  GLY94      -0.1940
    126  CA        13.6650    9.0700    4.7960 C.3    94  GLY94       0.2014
    127  C         14.5320    8.0690    5.5900 C.2    94  GLY94       0.2639
    128  O         14.0590    7.0020    5.9070 O.2    94  GLY94      -0.2714
    129  N         15.7800    8.3810    5.9030 N.am   95  CYS95      -0.1967
    130  CA        16.7060    7.4180    6.5250 C.3    95  CYS95       0.1712
    131  C         16.4960    7.0350    8.0050 C.2    95  CYS95       0.2296
    132  O         15.9610    7.8280    8.7910 O.2    95  CYS95      -0.2864
    133  CB        18.1840    7.8060    6.2370 C.3    95  CYS95       0.0983
    134  SG        18.7910    9.3160    7.1210 S.3    95  CYS95      -0.0798
    135  N         18.3150    9.5500   10.8720 N.3    98  ASP98      -0.1239
    136  CA        17.5400   10.7200   11.2850 C.3    98  ASP98       0.1674
    137  C         16.3660   10.2880   12.1240 C.2    98  ASP98       0.2266
    138  O         16.0860   10.8970   13.1500 O.2    98  ASP98      -0.2867
    139  CB        17.0270   11.4640   10.0630 C.3    98  ASP98       0.1410
    140  CG        18.1180   12.2890    9.3860 C.2    98  ASP98       0.3668
    141  OD1       17.7950   12.9130    8.3530 O.co2  98  ASP98      -0.2456
    142  OD2       19.2960   12.3050    9.8570 O.co2  98  ASP98      -0.2456
    143  N         15.6330   11.6840   15.7330 N.3   102  GLU102     -0.1245
    144  CA        14.4100   12.4100   16.0380 C.3   102  GLU102      0.1567
    145  C         13.6770   11.7960   17.1810 C.2   102  GLU102      0.2260
    146  O         12.9730   12.4670   17.8970 O.2   102  GLU102     -0.2867
    147  CB        13.4700   12.4410   14.8580 C.3   102  GLU102      0.0388
    148  CG        13.5740   13.6990   14.0220 C.3   102  GLU102      0.1160
    149  CD        13.3000   13.4140   12.5640 C.2   102  GLU102      0.3649
    150  OE1       12.3800   12.6000   12.3010 O.co2 102  GLU102     -0.2457
    151  OE2       14.0430   13.9410   11.6990 O.co2 102  GLU102     -0.2457
    152  N         22.4700    5.6320    7.6090 N.3   139  ARG139     -0.1245
    153  CA        22.1320    6.6760    6.6500 C.3   139  ARG139      0.1563
    154  C         21.6860    6.0060    5.3660 C.2   139  ARG139      0.2260
    155  O         21.0480    6.6230    4.5300 O.2   139  ARG139     -0.2867
    156  CB        23.3470    7.6080    6.3870 C.3   139  ARG139      0.0307
    157  CG        24.4580    6.9800    5.5500 C.3   139  ARG139      0.0489
    158  CD        25.7110    7.8700    5.3200 C.3   139  ARG139      0.2205
    159  NE        26.8450    7.0600    4.8440 N.pl3 139  ARG139     -0.0865
    160  CZ        27.8360    6.6170    5.6230 C.cat 139  ARG139      0.5346
    161  NH1       27.9050    6.9580    6.9070 N.pl3 139  ARG139      0.1354
    162  NH2       28.7720    5.8280    5.1200 N.pl3 139  ARG139      0.1354
    163  N         16.5240    3.0300    4.7070 N.3   142  LEU142     -0.1245
    164  CA        15.3300    3.8570    4.5930 C.3   142  LEU142      0.1561
    165  C         14.2100    3.3000    5.4420 C.2   142  LEU142      0.2260
    166  O         14.1680    2.1030    5.7370 O.2   142  LEU142     -0.2867
    167  CB        14.8900    3.9550    3.1380 C.3   142  LEU142      0.0270
    168  CG        15.9770    4.2530    2.1070 C.3   142  LEU142      0.0019
    169  CD1       15.4110    4.2600    0.7360 C.3   142  LEU142      0.0001
    170  CD2       16.7080    5.5470    2.3590 C.3   142  LEU142      0.0001
    171  N         19.2670    0.6550    1.1600 N.3   152  THR152     -0.1203
    172  CA        19.4750    1.2660   -0.1550 C.3   152  THR152      0.1994
    173  C         20.9580    1.4580   -0.4940 C.2   152  THR152      0.2618
    174  O         21.8340    1.2530    0.3490 O.2   152  THR152     -0.2717
    175  CB        18.7110    2.6230   -0.2780 C.3   152  THR152      0.1784
    176  OG1       18.8760    3.1770   -1.5970 O.3   152  THR152     -0.2211
    177  CG2       19.2000    3.6200    0.7290 C.3   152  THR152      0.0376
    178  N         21.2220    1.9400   -1.7030 N.am  153  ASP153     -0.1959
    179  CA        22.5810    2.2840   -2.1480 C.3   153  ASP153      0.1840
    180  C         23.6270    1.2390   -2.0870 C.2   153  ASP153      0.2622
    181  O         24.7530    1.5250   -1.8470 O.2   153  ASP153     -0.2715
    182  CB        23.1050    3.6430   -1.6370 C.3   153  ASP153      0.1450
    183  CG        22.0460    4.7840   -1.7350 C.2   153  ASP153      0.3671
    184  OD1       21.0060    4.6610   -2.4720 O.co2 153  ASP153     -0.2456
    185  OD2       22.2420    5.7830   -1.0120 O.co2 153  ASP153     -0.2456
    186  N         23.2830    0.0200   -2.4400 N.am  154  PHE154     -0.1974
    187  CA        24.3130   -1.0000   -2.5110 C.3   154  PHE154      0.1639
    188  C         24.9580   -0.8630   -3.8920 C.2   154  PHE154      0.2290
    189  O         24.2680   -0.6500   -4.8880 O.2   154  PHE154     -0.2864
    190  CB        23.7550   -2.4190   -2.2750 C.3   154  PHE154      0.0560
    191  CG        22.4820   -2.6870   -2.9610 C.ar  154  PHE154     -0.0200
    192  CD1       22.4460   -3.4230   -4.1280 C.ar  154  PHE154     -0.0042
    193  CD2       21.2950   -2.2250   -2.4250 C.ar  154  PHE154     -0.0042
    194  CE1       21.2300   -3.6130   -4.7970 C.ar  154  PHE154     -0.0003
    195  CE2       20.0900   -2.4520   -3.0440 C.ar  154  PHE154     -0.0003
    196  CZ        20.0590   -3.1200   -4.2460 C.ar  154  PHE154     -0.0000
    197  N         26.8170    1.6200   -5.0280 N.3   156  LEU156     -0.1245
    198  CA        27.0080    2.9780   -5.5400 C.3   156  LEU156      0.1561
    199  C         28.4290    3.2320   -6.1020 C.2   156  LEU156      0.2260
    200  O         29.3700    3.6340   -5.4000 O.2   156  LEU156     -0.2867
    201  CB        26.6230    4.0230   -4.4730 C.3   156  LEU156      0.0270
    202  CG        25.2780    4.7760   -4.6290 C.3   156  LEU156      0.0019
    203  CD1       25.4110    6.2890   -4.8470 C.3   156  LEU156      0.0001
    204  CD2       24.4540    4.1480   -5.6810 C.3   156  LEU156      0.0001
@<TRIPOS>BOND
     1    58    56    1
     2    66    64    1
     3    74    72    1
     4    64    65    1
     5    64    63    1
     6    56    57    1
     7    56    55    2
     8    62    61    2
     9    67    68    1
    10    34    35    1
    11    68    69    1
    12    68    71    1
    13    61    60    1
    14    55    54    1
    15    63    60    1
    16    40    41    1
    17    40    39    1
    18    69    70    2
    19    72    71    1
    20    72    73    1
    21    36    35    1
    22    36    37    2
    23    35    38    1
    24    39    38    1
    25    60    59    1
    26    28    27    2
    27    54    53    1
    28    75    76    1
    29    59    50   am
    30    27    26    1
    31    53    52    1
    32    23    22    2
    33    25    26    1
    34    76    77    1
    35    76    79    1
    36    50    51    2
    37    50    49    1
    38    78    77    2
    39    22    21    1
    40   199   198    1
    41   199   200    2
    42    26    29    1
    43    52    49    1
    44    77    82   am
    45    20    21    1
    46   204   202    1
    47   198   197    1
    48   198   201    1
    49    79    80    1
    50    79    81    1
    51    49    48    1
    52    82    83    1
    53    29    30    1
    54    21    24    1
    55   189   188    2
    56   203   202    1
    57   194   196   ar
    58   194   192   ar
    59    83    86    1
    60    83    84    1
    61   202   201    1
    62    30    31    1
    63   196   195   ar
    64   192   191   ar
    65    86    87    1
    66    48    44   am
    67   188   187    1
    68    31    32    1
    69    90    88   am
    70    84    91   am
    71    84    85    2
    72    91    92    1
    73    45    44    2
    74    44    43    1
    75    87    88    1
    76   195   193   ar
    77   191   193   ar
    78   191   190    1
    79    15    14    1
    80    15    16    2
    81    95    92    1
    82    95    96    1
    83    88    89    2
    84    14    13    1
    85    14    17    1
    86   187   186    1
    87   187   190    1
    88   184   183   ar
    89    92    93    1
    90   186   180   am
    91    98    96    1
    92    32    33    1
    93    47    46    1
    94   179   180    1
    95   179   178    1
    96   179   182    1
    97   180   181    2
    98    96    97    1
    99   183   182    1
   100   183   185   ar
   101    18    17    1
   102   178   173   am
   103    43    46    1
   104    43    42    1
   105   176   175    1
   106    17    19    1
   107    93    94    2
   108    93    99   am
   109     7     6    1
   110     1     2    1
   111   173   172    1
   112   173   174    2
   113     6     5    1
   114     6     8    1
   115    12    11    2
   116   175   172    1
   117   175   177    1
   118   172   171    1
   119    99   100    1
   120     5     2    1
   121   106   105    1
   122     2     3    1
   123   169   168    1
   124    11    10    1
   125     9     3   am
   126     9    10    1
   127   104   105    1
   128   104   103    1
   129   100   103    1
   130   100   101    1
   131     3     4    2
   132   102   101    2
   133   101   107   am
   134   168   170    1
   135   168   167    1
   136   107   113    1
   137   107   108    1
   138   167   164    1
   139   113   112    1
   140   108   111    1
   141   108   109    1
   142   155   154    2
   143   164   163    1
   144   164   165    1
   145   111   112    1
   146   126   125    1
   147   126   127    1
   148   125   116   am
   149   159   158    1
   150   159   160    2
   151   109   114   am
   152   109   110    2
   153   114   115    1
   154   162   160    1
   155   158   157    1
   156   154   153    1
   157   165   166    2
   158   157   156    1
   159   127   129   am
   160   127   128    2
   161   160   161    1
   162   129   130    1
   163   116   115    1
   164   116   117    2
   165   115   118    1
   166   133   130    1
   167   133   134    1
   168   156   153    1
   169   130   131    1
   170   153   152    1
   171   118   119    1
   172   121   119   ar
   173   121   123   ar
   174   131   132    2
   175   119   120   ar
   176   141   140   ar
   177   123   124   ar
   178   120   122   ar
   179   140   142   ar
   180   140   139    1
   181   124   122   ar
   182   139   136    1
   183   135   136    1
   184   136   137    1
   185   151   149   ar
   186   137   138    2
   187   150   149   ar
   188   149   148    1
   189   148   147    1
   190   147   144    1
   191   143   144    1
   192   144   145    1
   193   145   146    2
