@<TRIPOS>MOLECULE
tmp/3lzbD00.pdb
 91 88 0 0 0
SMALL
GASTEIGER

@<TRIPOS>ATOM
      1  N         50.3430   49.7490   67.3960 N.3     3  ARG3       -0.1245
      2  CA        50.5900   50.7750   68.4240 C.3     3  ARG3        0.1563
      3  C         49.5180   51.8420   68.4180 C.2     3  ARG3        0.2260
      4  O         49.3870   52.5840   67.4450 O.2     3  ARG3       -0.2867
      5  CB        51.9260   51.5040   68.2740 C.3     3  ARG3        0.0307
      6  CG        53.0860   50.6420   67.8880 C.3     3  ARG3        0.0489
      7  CD        53.1000   50.4860   66.3860 C.3     3  ARG3        0.2205
      8  NE        54.4190   50.6780   65.7970 N.pl3   3  ARG3       -0.0865
      9  CZ        54.8960   51.8330   65.3420 C.cat   3  ARG3        0.5346
     10  NH1       54.2240   52.9720   65.4760 N.pl3   3  ARG3        0.1354
     11  NH2       56.1030   51.8480   64.8020 N.pl3   3  ARG3        0.1354
     12  N         57.6450   60.5010   64.5580 N.3    29  TRP29      -0.1241
     13  CA        57.3110   59.8290   65.7950 C.3    29  TRP29       0.1605
     14  C         58.4890   60.1670   66.7160 C.2    29  TRP29       0.2264
     15  O         59.6550   59.9950   66.3640 O.2    29  TRP29      -0.2867
     16  CB        57.1340   58.3100   65.5890 C.3    29  TRP29       0.0550
     17  CG        57.4490   57.4560   66.8120 C.ar   29  TRP29       0.0003
     18  CD1       57.8760   57.8850   68.0330 C.ar   29  TRP29       0.0946
     19  CD2       57.2750   56.0490   66.9420 C.ar   29  TRP29       0.0152
     20  NE1       57.9750   56.8510   68.9100 N.ar   29  TRP29      -0.2442
     21  CE2       57.6330   55.7030   68.2640 C.ar   29  TRP29       0.0810
     22  CE3       56.7930   55.0470   66.0880 C.ar   29  TRP29       0.0012
     23  CZ2       57.6050   54.4110   68.7330 C.ar   29  TRP29       0.0191
     24  CZ3       56.7090   53.7580   66.5790 C.ar   29  TRP29       0.0001
     25  CH2       57.1220   53.4540   67.8890 C.ar   29  TRP29       0.0015
     26  N         60.1830   59.0180   69.8830 N.3    31  PRO31      -0.2102
     27  CA        60.2470   57.9820   70.9120 C.3    31  PRO31       0.1504
     28  C         60.5850   58.5990   72.2900 C.2    31  PRO31       0.2575
     29  O         61.4140   59.5210   72.3910 O.2    31  PRO31      -0.2718
     30  CB        61.3620   57.0520   70.4080 C.3    31  PRO31       0.0282
     31  CG        61.8710   57.6470   69.1220 C.3    31  PRO31       0.0208
     32  CD        61.4100   59.0560   69.0750 C.3    31  PRO31       0.0893
     33  N         59.9420   58.0650   73.3350 N.am   32  GLU32      -0.1980
     34  CA        60.0700   58.5400   74.7240 C.3    32  GLU32       0.1602
     35  C         61.4740   58.5690   75.3510 C.2    32  GLU32       0.2287
     36  O         62.1540   57.5560   75.4560 O.2    32  GLU32      -0.2864
     37  CB        59.0800   57.7950   75.6380 C.3    32  GLU32       0.0415
     38  CG        57.5930   58.2170   75.4650 C.3    32  GLU32       0.1163
     39  CD        57.0710   58.2060   73.9960 C.2    32  GLU32       0.3649
     40  OE1       57.0210   57.1150   73.3740 O.co2  32  GLU32      -0.2457
     41  OE2       56.6170   59.2720   73.5020 O.co2  32  GLU32      -0.2457
     42  N         61.5740   60.0910   64.4120 N.3    38  ILE38      -0.1231
     43  CA        61.4670   59.0240   63.4190 C.3    38  ILE38       0.1678
     44  C         60.3380   59.2270   62.4260 C.2    38  ILE38       0.2434
     45  O         59.1670   59.0570   62.7570 O.2    38  ILE38      -0.2733
     46  CB        61.4550   57.5940   64.0040 C.3    38  ILE38       0.0265
     47  CG1       62.8610   57.1740   64.5040 C.3    38  ILE38       0.0019
     48  CG2       60.9240   56.6000   62.9680 C.3    38  ILE38       0.0020
     49  CD1       64.1060   57.9990   64.0010 C.3    38  ILE38       0.0001
     50  N         60.6950   59.4710   61.1570 N.am   39  PRO39      -0.2718
     51  CA        59.7270   59.6830   60.0810 C.3    39  PRO39       0.1535
     52  C         58.6860   58.5660   59.9320 C.2    39  PRO39       0.2598
     53  O         58.9990   57.3790   59.9300 O.2    39  PRO39      -0.2715
     54  CB        60.6100   59.7450   58.8370 C.3    39  PRO39       0.0310
     55  CG        61.9750   60.1030   59.3490 C.3    39  PRO39       0.0237
     56  CD        62.0720   59.3650   60.6300 C.3    39  PRO39       0.0939
     57  N         57.4350   58.9620   59.7520 N.am   40  VAL40      -0.1978
     58  CA        56.3620   58.0100   59.5370 C.3    40  VAL40       0.1596
     59  C         55.4240   58.6290   58.4910 C.2    40  VAL40       0.2287
     60  O         55.5960   59.8130   58.1070 O.2    40  VAL40      -0.2864
     61  CB        55.6340   57.6690   60.8660 C.3    40  VAL40       0.0276
     62  CG1       56.6490   57.1210   61.8620 C.3    40  VAL40       0.0022
     63  CG2       54.9140   58.8960   61.4650 C.3    40  VAL40       0.0022
     64  N         50.8920   47.2500   55.5890 N.3    70  ARG70      -0.1245
     65  CA        50.4320   46.9770   56.9590 C.3    70  ARG70       0.1563
     66  C         50.1580   48.2210   57.8170 C.2    70  ARG70       0.2260
     67  O         50.9870   49.1540   57.8460 O.2    70  ARG70      -0.2867
     68  CB        51.5070   46.1860   57.6850 C.3    70  ARG70       0.0307
     69  CG        50.9940   45.3200   58.8150 C.3    70  ARG70       0.0489
     70  CD        52.1250   44.8350   59.6910 C.3    70  ARG70       0.2205
     71  NE        51.7660   45.0100   61.0890 N.pl3  70  ARG70      -0.0865
     72  CZ        52.6400   45.0890   62.0870 C.cat  70  ARG70       0.5346
     73  NH1       53.9420   44.9950   61.8510 N.pl3  70  ARG70       0.1354
     74  NH2       52.2050   45.2540   63.3270 N.pl3  70  ARG70       0.1354
     75  N         50.4680   50.2020   61.0670 N.3    72  LEU72      -0.1245
     76  CA        51.4060   50.1390   62.2010 C.3    72  LEU72       0.1561
     77  C         50.9030   50.7570   63.5000 C.2    72  LEU72       0.2260
     78  O         51.0240   50.1750   64.5690 O.2    72  LEU72      -0.2867
     79  CB        52.7960   50.7280   61.8460 C.3    72  LEU72       0.0270
     80  CG        53.5960   50.0280   60.7380 C.3    72  LEU72       0.0019
     81  CD1       55.0070   50.5550   60.6710 C.3    72  LEU72       0.0001
     82  CD2       53.5630   48.5260   60.9180 C.3    72  LEU72       0.0001
     83  N         54.9070   52.8910   57.6960 N.3    85  GLN85      -0.1245
     84  CA        56.2620   53.2090   57.2920 C.3    85  GLN85       0.1566
     85  C         56.1650   54.1750   56.1160 C.2    85  GLN85       0.2260
     86  O         55.3890   53.9390   55.1750 O.2    85  GLN85      -0.2867
     87  CB        56.9720   51.9080   56.8890 C.3    85  GLN85       0.0367
     88  CG        58.2640   52.1180   56.1550 C.3    85  GLN85       0.0905
     89  CD        59.0020   50.8300   55.8940 C.2    85  GLN85       0.2608
     90  OE1       59.2190   50.4680   54.7460 O.2    85  GLN85      -0.2717
     91  NE2       59.4190   50.1490   56.9500 N.am   85  GLN85      -0.0878
@<TRIPOS>BOND
     1    90    89    2
     2    86    85    2
     3    64    65    1
     4    89    88    1
     5    89    91   am
     6    85    84    1
     7    88    87    1
     8    87    84    1
     9    65    68    1
    10    65    66    1
    11    84    83    1
    12    68    69    1
    13    66    67    2
    14    60    59    2
    15    59    58    1
    16    69    70    1
    17    54    55    1
    18    54    51    1
    19    55    56    1
    20    58    57    1
    21    58    61    1
    22    70    71    1
    23    57    52   am
    24    53    52    2
    25    52    51    1
    26    51    50    1
    27    56    50    1
    28    81    80    1
    29    80    82    1
    30    80    79    1
    31    61    63    1
    32    61    62    1
    33    75    76    1
    34    71    72    2
    35    50    44   am
    36    79    76    1
    37    73    72    1
    38    72    74    1
    39    76    77    1
    40    44    45    2
    41    44    43    1
    42    48    46    1
    43    43    46    1
    44    43    42    1
    45    77    78    2
    46    49    47    1
    47    46    47    1
    48    12    13    1
    49    11     9    1
    50     9    10    1
    51     9     8    2
    52    16    13    1
    53    16    17    1
    54    13    14    1
    55     8     7    1
    56    22    24   ar
    57    22    19   ar
    58    15    14    2
    59     7     6    1
    60    24    25   ar
    61    17    19   ar
    62    17    18   ar
    63    19    21   ar
    64     1     2    1
    65     4     3    2
    66     6     5    1
    67    25    23   ar
    68    18    20   ar
    69    21    23   ar
    70    21    20   ar
    71     5     2    1
    72     3     2    1
    73    32    31    1
    74    32    26    1
    75    31    30    1
    76    26    27    1
    77    30    27    1
    78    27    28    1
    79    28    29    2
    80    28    33   am
    81    33    34    1
    82    40    39   ar
    83    41    39   ar
    84    39    38    1
    85    34    35    1
    86    34    37    1
    87    35    36    2
    88    38    37    1
