@<TRIPOS>MOLECULE
tmp/3lzgI01.pdb
 94 88 0 0 0
SMALL
GASTEIGER

@<TRIPOS>ATOM
      1  N         23.9730  -14.6600    5.4730 N.3    54  LYS54      -0.1245
      2  CA        24.9410  -13.9260    6.2770 C.3    54  LYS54       0.1561
      3  C         26.3630  -14.4840    5.9880 C.2    54  LYS54       0.2260
      4  O         27.3670  -13.8540    6.3600 O.2    54  LYS54      -0.2867
      5  CB        24.6220  -14.1590    7.7780 C.3    54  LYS54       0.0271
      6  CG        23.1700  -13.9390    8.1960 C.3    54  LYS54       0.0035
      7  CD        23.0350  -14.0640    9.7190 C.3    54  LYS54       0.0206
      8  CE        21.6170  -14.3140   10.1770 C.3    54  LYS54       0.1093
      9  NZ        20.7240  -13.1420    9.9500 N.3    54  LYS54      -0.1314
     10  N         29.0040  -23.0320    9.4830 N.3    64  ASN64      -0.1226
     11  CA        29.0680  -21.9660   10.4760 C.3    64  ASN64       0.1770
     12  C         27.6810  -21.8020   11.1040 C.2    64  ASN64       0.2439
     13  O         26.7060  -21.7600   10.3620 O.2    64  ASN64      -0.2733
     14  CB        29.5320  -20.6780    9.8100 C.3    64  ASN64       0.1168
     15  CG        29.4190  -19.4200   10.6240 C.2    64  ASN64       0.2627
     16  OD1       28.3800  -19.1310   11.2280 O.2    64  ASN64      -0.2716
     17  ND2       30.4450  -18.5730   10.5380 N.am   64  ASN64      -0.0877
     18  N         27.5590  -21.7600   12.4590 N.am   65  PRO65      -0.2718
     19  CA        26.2220  -21.6990   13.0950 C.3    65  PRO65       0.1535
     20  C         25.1860  -20.7340   12.5290 C.2    65  PRO65       0.2598
     21  O         24.0010  -21.0370   12.6010 O.2    65  PRO65      -0.2715
     22  CB        26.5440  -21.4100   14.5590 C.3    65  PRO65       0.0310
     23  CG        27.8760  -22.0160   14.7750 C.3    65  PRO65       0.0237
     24  CD        28.6300  -21.8440   13.4810 C.3    65  PRO65       0.0939
     25  N         25.6270  -19.5990   11.9500 N.am   66  GLU66      -0.1978
     26  CA        24.7700  -18.5850   11.3190 C.3    66  GLU66       0.1602
     27  C         24.2880  -19.0440    9.9610 C.2    66  GLU66       0.2287
     28  O         23.5120  -18.3270    9.3380 O.2    66  GLU66      -0.2864
     29  CB        25.5090  -17.2300   11.1470 C.3    66  GLU66       0.0415
     30  CG        25.8540  -16.4930   12.4340 C.3    66  GLU66       0.1163
     31  CD        24.7180  -16.1350   13.3750 C.2    66  GLU66       0.3649
     32  OE1       23.7770  -15.4320   12.9400 O.co2  66  GLU66      -0.2457
     33  OE2       24.7860  -16.5380   14.5600 O.co2  66  GLU66      -0.2457
     34  N         29.4480  -11.7450    6.0100 N.3    86  ASP86      -0.1225
     35  CA        30.4580  -11.6690    7.0540 C.3    86  ASP86       0.1805
     36  C         30.8280  -13.0380    7.6260 C.2    86  ASP86       0.2598
     37  O         32.0150  -13.3240    7.7720 O.2    86  ASP86      -0.2718
     38  CB        29.9580  -10.7300    8.1780 C.3    86  ASP86       0.1424
     39  CG        30.9450  -10.5420    9.3130 C.2    86  ASP86       0.3668
     40  OD1       30.9760  -11.4160   10.2400 O.co2  86  ASP86      -0.2456
     41  OD2       31.6990   -9.5340    9.2800 O.co2  86  ASP86      -0.2456
     42  N         29.8120  -13.8470    7.9880 N.am   87  ASN87      -0.1960
     43  CA        29.9400  -15.1560    8.6450 C.3    87  ASN87       0.1819
     44  C         30.6420  -16.2330    7.8350 C.2    87  ASN87       0.2621
     45  O         30.0910  -16.7560    6.8800 O.2    87  ASN87      -0.2715
     46  CB        28.5960  -15.5970    9.2290 C.3    87  ASN87       0.1195
     47  CG        28.0790  -14.5970   10.2310 C.2    87  ASN87       0.2630
     48  OD1       27.2180  -13.7560    9.9390 O.2    87  ASN87      -0.2716
     49  ND2       28.6410  -14.6410   11.4130 N.am   87  ASN87      -0.0877
     50  N         31.8750  -16.5320    8.2110 N.am   88  GLY88      -0.1954
     51  CA        32.6810  -17.4890    7.4670 C.3    88  GLY88       0.1869
     52  C         33.4280  -18.4590    8.3330 C.2    88  GLY88       0.2309
     53  O         32.8110  -19.2420    9.0620 O.2    88  GLY88      -0.2863
     54  N         34.9160  -18.6640   11.2940 N.3    90  CYS90      -0.1235
     55  CA        34.8720  -18.0160   12.5960 C.3    90  CYS90       0.1677
     56  C         36.1100  -18.3370   13.4330 C.2    90  CYS90       0.2270
     57  O         36.5830  -17.4610   14.1550 O.2    90  CYS90      -0.2867
     58  CB        33.5730  -18.3280   13.3310 C.3    90  CYS90       0.0956
     59  SG        33.1080  -20.0750   13.3050 S.3    90  CYS90      -0.0801
     60  N         34.3470  -19.5890   21.6200 N.3   134  ALA134     -0.1245
     61  CA        33.7350  -18.2650   21.6450 C.3   134  ALA134      0.1562
     62  C         33.9030  -17.6550   20.2620 C.2   134  ALA134      0.2260
     63  O         33.0970  -16.8140   19.8560 O.2   134  ALA134     -0.2867
     64  CB        34.4030  -17.3940   22.6960 C.3   134  ALA134      0.0290
     65  N         30.3920  -18.4870   17.9710 N.3   137  PRO137     -0.2116
     66  CA        29.1910  -18.5320   18.8020 C.3   137  PRO137      0.1372
     67  C         27.8960  -18.8300   18.0340 C.2   137  PRO137      0.2244
     68  O         27.7920  -18.6480   16.8110 O.2   137  PRO137     -0.2868
     69  CB        29.1560  -17.1380   19.4140 C.3   137  PRO137      0.0268
     70  CG        29.7220  -16.2600   18.3510 C.3   137  PRO137      0.0207
     71  CD        30.6940  -17.0980   17.5520 C.3   137  PRO137      0.0892
     72  N         24.4840  -16.5720   21.5580 N.3   140  GLY140     -0.1225
     73  CA        25.3160  -16.1160   22.6670 C.3   140  GLY140      0.1811
     74  C         25.7870  -17.2470   23.5550 C.2   140  GLY140      0.2280
     75  O         25.3950  -17.3310   24.7290 O.2   140  GLY140     -0.2866
     76  N         39.4060  -12.7670   16.1580 N.3   221  ARG221     -0.1231
     77  CA        38.1900  -13.2050   16.8320 C.3   221  ARG221      0.1694
     78  C         38.5630  -13.8180   18.1860 C.2   221  ARG221      0.2592
     79  O         38.0440  -14.8820   18.5740 O.2   221  ARG221     -0.2718
     80  CB        37.3500  -14.1180   15.9190 C.3   221  ARG221      0.0321
     81  CG        36.8690  -13.4170   14.6370 C.3   221  ARG221      0.0489
     82  CD        35.9690  -14.2850   13.7800 C.3   221  ARG221      0.2205
     83  NE        34.7880  -14.7430   14.5210 N.pl3 221  ARG221     -0.0865
     84  CZ        33.5330  -14.3820   14.2570 C.cat 221  ARG221      0.5346
     85  NH1       33.2660  -13.5780   13.2310 N.pl3 221  ARG221      0.1354
     86  NH2       32.5310  -14.8460   15.0010 N.pl3 221  ARG221      0.1354
     87  N         39.5140  -13.1270   18.8880 N.am  222  ASP222     -0.1974
     88  CA        40.0550  -13.4820   20.2020 C.3   222  ASP222      0.1709
     89  C         40.8550  -14.8070   20.1690 C.2   222  ASP222      0.2293
     90  O         41.0260  -15.4440   21.2000 O.2   222  ASP222     -0.2864
     91  CB        38.9360  -13.4750   21.2770 C.3   222  ASP222      0.1436
     92  CG        39.3800  -13.5420   22.7300 C.2   222  ASP222      0.3671
     93  OD1       39.1240  -14.5860   23.3850 O.co2 222  ASP222     -0.2456
     94  OD2       39.9420  -12.5370   23.2270 O.co2 222  ASP222     -0.2456
@<TRIPOS>BOND
     1     1     2    1
     2     3     2    1
     3     3     4    2
     4    34    35    1
     5     2     5    1
     6    45    44    2
     7    35    36    1
     8    35    38    1
     9    51    50    1
    10    51    52    1
    11    36    37    2
    12    36    42   am
    13     5     6    1
    14    44    50   am
    15    44    43    1
    16    42    43    1
    17    38    39    1
    18     6     7    1
    19    52    53    2
    20    43    46    1
    21    46    47    1
    22    41    39   ar
    23    39    40   ar
    24    28    27    2
    25    10    11    1
    26     7     8    1
    27    14    11    1
    28    14    15    1
    29    48    47    2
    30     9     8    1
    31    27    26    1
    32    47    49   am
    33    13    12    2
    34    11    12    1
    35    17    15   am
    36    15    16    2
    37    12    18   am
    38    29    26    1
    39    29    30    1
    40    54    55    1
    41    26    25    1
    42    25    20   am
    43    30    31    1
    44    18    19    1
    45    18    24    1
    46    20    21    2
    47    20    19    1
    48    55    58    1
    49    55    56    1
    50    32    31   ar
    51    19    22    1
    52    85    84    1
    53    59    58    1
    54    31    33   ar
    55    56    57    2
    56    24    23    1
    57    82    83    1
    58    82    81    1
    59    84    83    2
    60    84    86    1
    61    22    23    1
    62    81    80    1
    63    80    77    1
    64    76    77    1
    65    68    67    2
    66    77    78    1
    67    71    65    1
    68    71    70    1
    69    65    66    1
    70    67    66    1
    71    78    79    2
    72    78    87   am
    73    70    69    1
    74    66    69    1
    75    87    88    1
    76    63    62    2
    77    89    88    1
    78    89    90    2
    79    88    91    1
    80    62    61    1
    81    91    92    1
    82    72    73    1
    83    60    61    1
    84    61    64    1
    85    73    74    1
    86    92    94   ar
    87    92    93   ar
    88    74    75    2
