@<TRIPOS>MOLECULE
tmp/3lzxB01.pdb
 222 217 0 0 0
SMALL
GASTEIGER

@<TRIPOS>ATOM
      1  N          6.5570  -15.9650   21.6320 N.3    47  SER47      -0.1202
      2  CA         5.1900  -16.3450   21.9860 C.3    47  SER47       0.2020
      3  C          4.4030  -16.9490   20.8240 C.2    47  SER47       0.2619
      4  O          3.5630  -17.8180   21.0350 O.2    47  SER47      -0.2717
      5  CB         4.4180  -15.1400   22.5310 C.3    47  SER47       0.2103
      6  OG         5.1020  -14.5620   23.6210 O.3    47  SER47      -0.2182
      7  N          4.6740  -16.4930   19.6050 N.am   48  ALA48      -0.1965
      8  CA         3.9020  -16.9310   18.4410 C.3    48  ALA48       0.1728
      9  C          4.4410  -18.2130   17.8200 C.2    48  ALA48       0.2616
     10  O          3.6610  -19.0560   17.3510 O.2    48  ALA48      -0.2715
     11  CB         3.8550  -15.8220   17.3870 C.3    48  ALA48       0.0334
     12  N          5.7640  -18.3670   17.7960 N.am   49  LEU49      -0.1977
     13  CA         6.3830  -19.4370   17.0040 C.3    49  LEU49       0.1596
     14  C          7.1270  -20.5170   17.7920 C.2    49  LEU49       0.2287
     15  O          7.3620  -21.6080   17.2600 O.2    49  LEU49      -0.2864
     16  CB         7.3160  -18.8340   15.9530 C.3    49  LEU49       0.0297
     17  CG         6.7410  -17.8190   14.9590 C.3    49  LEU49       0.0022
     18  CD1        7.8620  -17.2970   14.0570 C.3    49  LEU49       0.0001
     19  CD2        5.5980  -18.4140   14.1250 C.3    49  LEU49       0.0001
     20  N          6.9050  -20.7980   21.8960 N.3    51  PRO51      -0.2102
     21  CA         6.7590  -20.4330   23.3150 C.3    51  PRO51       0.1504
     22  C          7.2250  -21.5100   24.2920 C.2    51  PRO51       0.2575
     23  O          7.6340  -21.1990   25.4130 O.2    51  PRO51      -0.2718
     24  CB         5.2450  -20.1900   23.4570 C.3    51  PRO51       0.0282
     25  CG         4.6250  -21.0000   22.3620 C.3    51  PRO51       0.0208
     26  CD         5.5920  -20.8870   21.2190 C.3    51  PRO51       0.0893
     27  N          7.1620  -22.7640   23.8630 N.am   52  GLU52      -0.1980
     28  CA         7.4960  -23.8960   24.7030 C.3    52  GLU52       0.1602
     29  C          8.9880  -24.2710   24.7160 C.2    52  GLU52       0.2287
     30  O          9.4130  -25.0690   25.5560 O.2    52  GLU52      -0.2864
     31  CB         6.7080  -25.1160   24.2300 C.3    52  GLU52       0.0415
     32  CG         7.3530  -25.9120   23.0820 C.3    52  GLU52       0.1163
     33  CD         7.1270  -25.3470   21.6750 C.2    52  GLU52       0.3649
     34  OE1        6.7860  -24.1510   21.4950 O.co2  52  GLU52      -0.2457
     35  OE2        7.3000  -26.1400   20.7220 O.co2  52  GLU52      -0.2457
     36  N         -3.1500  -16.2950   10.3370 N.3   127  ARG127     -0.1231
     37  CA        -3.6140  -16.7710    9.0420 C.3   127  ARG127      0.1694
     38  C         -5.1280  -16.9540    9.1560 C.2   127  ARG127      0.2591
     39  O         -5.6160  -17.6070   10.0830 O.2   127  ARG127     -0.2718
     40  CB        -2.9620  -18.0870    8.6450 C.3   127  ARG127      0.0321
     41  CG        -1.4970  -17.9660    8.3040 C.3   127  ARG127      0.0489
     42  CD        -1.0310  -19.1410    7.4370 C.3   127  ARG127      0.2205
     43  NE         0.3880  -19.0200    7.1070 N.pl3 127  ARG127     -0.0865
     44  CZ         0.8800  -18.3750    6.0460 C.cat 127  ARG127      0.5346
     45  NH1        0.0790  -17.7770    5.1580 N.pl3 127  ARG127      0.1354
     46  NH2        2.1980  -18.3290    5.8640 N.pl3 127  ARG127      0.1354
     47  N         -5.8600  -16.3600    8.2230 N.am  128  LYS128     -0.1980
     48  CA        -7.3120  -16.3320    8.2930 C.3   128  LYS128      0.1596
     49  C         -7.9820  -17.3910    7.4220 C.2   128  LYS128      0.2287
     50  O         -7.3770  -17.9310    6.4900 O.2   128  LYS128     -0.2864
     51  CB        -7.8200  -14.9350    7.9390 C.3   128  LYS128      0.0298
     52  CG        -7.3400  -13.8640    8.9190 C.3   128  LYS128      0.0038
     53  CD        -8.2830  -12.6860    8.9710 C.3   128  LYS128      0.0206
     54  CE        -7.8040  -11.6330    9.9590 C.3   128  LYS128      0.1093
     55  NZ        -8.6760  -10.4210    9.9520 N.3   128  LYS128     -0.1314
     56  N         -9.9740  -18.6950    4.5370 N.3   130  GLU130     -0.1245
     57  CA       -10.2410  -18.2730    3.1650 C.3   130  GLU130      0.1567
     58  C        -11.6160  -18.7690    2.7100 C.2   130  GLU130      0.2260
     59  O        -11.7190  -19.6450    1.8470 O.2   130  GLU130     -0.2867
     60  CB        -9.1600  -18.8050    2.2130 C.3   130  GLU130      0.0388
     61  CG        -7.7830  -18.1860    2.4090 C.3   130  GLU130      0.1160
     62  CD        -6.6860  -18.9620    1.6850 C.2   130  GLU130      0.3649
     63  OE1       -6.4120  -20.1240    2.0690 O.co2 130  GLU130     -0.2457
     64  OE2       -6.0810  -18.4050    0.7440 O.co2 130  GLU130     -0.2457
     65  N         -7.4470  -26.5820   12.3690 N.3   161  GLY161     -0.1210
     66  CA        -5.9880  -26.6170   12.3210 C.3   161  GLY161      0.1956
     67  C         -5.4230  -27.8590   12.9590 C.2   161  GLY161      0.2612
     68  O         -6.1150  -28.5470   13.7190 O.2   161  GLY161     -0.2717
     69  N         -4.1570  -28.1510   12.6530 N.am  162  GLY162     -0.1942
     70  CA        -3.5180  -29.3680   13.1420 C.3   162  GLY162      0.2014
     71  C         -2.2290  -29.1960   13.9110 C.2   162  GLY162      0.2639
     72  O         -1.4840  -30.1650   14.0970 O.2   162  GLY162     -0.2714
     73  N         -1.9840  -27.9760   14.3750 N.am  163  GLY163     -0.1939
     74  CA        -0.7840  -27.6410   15.1400 C.3   163  GLY163      0.2014
     75  C         -1.0320  -27.6300   16.6260 C.2   163  GLY163      0.2639
     76  O         -2.1340  -27.9290   17.0970 O.2   163  GLY163     -0.2714
     77  N         -0.0010  -27.2780   17.3820 N.am  164  ASP164     -0.1957
     78  CA        -0.1170  -27.3030   18.8310 C.3   164  ASP164      0.1840
     79  C         -1.1540  -26.3440   19.3580 C.2   164  ASP164      0.2623
     80  O         -1.7900  -26.6530   20.3450 O.2   164  ASP164     -0.2715
     81  CB         1.2370  -27.0810   19.4900 C.3   164  ASP164      0.1450
     82  CG         2.1850  -28.2250   19.2230 C.2   164  ASP164      0.3671
     83  OD1        1.9070  -29.3540   19.6770 O.co2 164  ASP164     -0.2456
     84  OD2        3.2040  -28.0020   18.5520 O.co2 164  ASP164     -0.2456
     85  N         -1.3620  -25.2120   18.6850 N.am  165  SER165     -0.1936
     86  CA        -2.3670  -24.2440   19.1310 C.3   165  SER165      0.2055
     87  C         -3.7640  -24.8580   19.0570 C.2   165  SER165      0.2642
     88  O         -4.5170  -24.8320   20.0290 O.2   165  SER165     -0.2714
     89  CB        -2.2900  -22.9440   18.3190 C.3   165  SER165      0.2130
     90  OG        -1.0770  -22.2350   18.5970 O.3   165  SER165     -0.2179
     91  N         -4.0870  -25.4530   17.9070 N.am  166  ALA166     -0.1977
     92  CA        -5.3790  -26.1250   17.7110 C.3   166  ALA166      0.1597
     93  C         -5.5600  -27.2960   18.6720 C.2   166  ALA166      0.2287
     94  O         -6.5910  -27.3940   19.3470 O.2   166  ALA166     -0.2864
     95  CB        -5.5130  -26.6020   16.2820 C.3   166  ALA166      0.0319
     96  N         -3.9240  -28.0040   21.5160 N.3   168  ASP168     -0.1239
     97  CA        -3.9820  -27.5120   22.8850 C.3   168  ASP168      0.1674
     98  C         -5.3810  -26.9990   23.2270 C.2   168  ASP168      0.2266
     99  O         -5.9360  -27.3710   24.2610 O.2   168  ASP168     -0.2867
    100  CB        -2.9640  -26.3840   23.1240 C.3   168  ASP168      0.1410
    101  CG        -1.5380  -26.8860   23.3260 C.2   168  ASP168      0.3668
    102  OD1       -1.2990  -28.1110   23.3890 O.co2 168  ASP168     -0.2456
    103  OD2       -0.6550  -26.0050   23.4330 O.co2 168  ASP168     -0.2456
    104  N         -8.7930  -31.0300   10.6090 N.3   184  HIS184     -0.1226
    105  CA        -7.4410  -30.8710   10.0660 C.3   184  HIS184      0.1752
    106  C         -7.3460  -31.5480    8.7030 C.2   184  HIS184      0.2596
    107  O         -8.0030  -32.5560    8.4570 O.2   184  HIS184     -0.2718
    108  CB        -6.4110  -31.4210   11.0590 C.3   184  HIS184      0.0759
    109  CG        -4.9980  -31.4160   10.5590 C.ar  184  HIS184      0.0818
    110  ND1       -4.4160  -30.3230    9.9530 N.ar  184  HIS184     -0.2268
    111  CD2       -4.0300  -32.3600   10.6380 C.ar  184  HIS184      0.1154
    112  CE1       -3.1630  -30.6070    9.6560 C.ar  184  HIS184      0.1986
    113  NE2       -2.9050  -31.8390   10.0530 N.ar  184  HIS184     -0.2212
    114  N         -6.5380  -30.9590    7.8240 N.am  185  ARG185     -0.1966
    115  CA        -6.4790  -31.3380    6.4110 C.3   185  ARG185      0.1729
    116  C         -5.5940  -32.5490    6.0780 C.2   185  ARG185      0.2616
    117  O         -5.4390  -32.8810    4.9100 O.2   185  ARG185     -0.2715
    118  CB        -6.0320  -30.1320    5.5730 C.3   185  ARG185      0.0348
    119  CG        -4.6040  -29.6530    5.8120 C.3   185  ARG185      0.0492
    120  CD        -4.2890  -28.4810    4.9070 C.3   185  ARG185      0.2205
    121  NE        -3.0410  -27.8180    5.2810 N.pl3 185  ARG185     -0.0865
    122  CZ        -2.6290  -26.6530    4.7920 C.cat 185  ARG185      0.5346
    123  NH1       -3.3600  -25.9930    3.9060 N.pl3 185  ARG185      0.1354
    124  NH2       -1.4820  -26.1320    5.2010 N.pl3 185  ARG185      0.1354
    125  N         -5.0210  -33.1910    7.0920 N.am  186  ARG186     -0.1977
    126  CA        -4.2280  -34.4060    6.9170 C.3   186  ARG186      0.1597
    127  C         -4.5530  -35.3350    8.0760 C.2   186  ARG186      0.2287
    128  O         -4.9780  -34.8790    9.1320 O.2   186  ARG186     -0.2864
    129  CB        -2.7310  -34.0890    6.9350 C.3   186  ARG186      0.0334
    130  CG        -2.2490  -33.1270    5.8730 C.3   186  ARG186      0.0492
    131  CD        -0.7350  -32.8560    5.9870 C.3   186  ARG186      0.2205
    132  NE        -0.3840  -32.1010    7.2020 N.pl3 186  ARG186     -0.0865
    133  CZ         0.5460  -32.4520    8.0970 C.cat 186  ARG186      0.5346
    134  NH1        1.2590  -33.5680    7.9780 N.pl3 186  ARG186      0.1354
    135  NH2        0.7640  -31.6730    9.1450 N.pl3 186  ARG186      0.1354
    136  N          0.4280  -31.8270   12.9240 N.3   190  ARG190     -0.1245
    137  CA         1.7080  -31.1190   13.0720 C.3   190  ARG190      0.1563
    138  C          2.0920  -30.9520   14.5550 C.2   190  ARG190      0.2260
    139  O          3.2640  -30.7370   14.8980 O.2   190  ARG190     -0.2867
    140  CB         1.5790  -29.7560   12.3970 C.3   190  ARG190      0.0307
    141  CG         2.8370  -28.9380   12.3080 C.3   190  ARG190      0.0489
    142  CD         2.5950  -27.7040   11.4790 C.3   190  ARG190      0.2205
    143  NE         2.4200  -28.0230   10.0640 N.pl3 190  ARG190     -0.0865
    144  CZ         3.4160  -28.3320    9.2360 C.cat 190  ARG190      0.5346
    145  NH1        4.6760  -28.3520    9.6590 N.pl3 190  ARG190      0.1354
    146  NH2        3.1530  -28.6070    7.9640 N.pl3 190  ARG190      0.1354
    147  N          2.6500  -31.8050   18.6480 N.3   192  HIS192     -0.1241
    148  CA         3.5590  -32.7350   19.3060 C.3   192  HIS192      0.1621
    149  C          2.8990  -34.0890   19.5430 C.2   192  HIS192      0.2264
    150  O          1.7230  -34.1670   19.8910 O.2   192  HIS192     -0.2867
    151  CB         4.0650  -32.1520   20.6200 C.3   192  HIS192      0.0745
    152  CG         4.9400  -30.9560   20.4390 C.ar  192  HIS192      0.0817
    153  ND1        4.7720  -29.7940   21.1580 N.ar  192  HIS192     -0.2268
    154  CD2        5.9760  -30.7310   19.5950 C.ar  192  HIS192      0.1154
    155  CE1        5.6800  -28.9120   20.7830 C.ar  192  HIS192      0.1986
    156  NE2        6.4210  -29.4540   19.8330 N.ar  192  HIS192     -0.2212
    157  N          0.7230  -34.9070   22.6760 N.3   195  SER195     -0.1217
    158  CA        -0.5450  -34.1650   22.5940 C.3   195  SER195      0.1889
    159  C         -1.5290  -34.8500   21.6350 C.2   195  SER195      0.2288
    160  O         -2.7260  -34.9490   21.9190 O.2   195  SER195     -0.2866
    161  CB        -0.3040  -32.7180   22.1420 C.3   195  SER195      0.2089
    162  OG         0.4170  -31.9870   23.1200 O.3   195  SER195     -0.2183
    163  N         -9.9230  -33.2540    6.3830 N.3   210  PHE210     -0.1227
    164  CA       -11.0210  -32.3790    5.9480 C.3   210  PHE210      0.1736
    165  C        -10.5860  -30.9210    5.8850 C.2   210  PHE210      0.2595
    166  O         -9.6660  -30.5020    6.6030 O.2   210  PHE210     -0.2718
    167  CB       -12.2160  -32.4930    6.9120 C.3   210  PHE210      0.0547
    168  CG       -12.9990  -33.7630    6.7660 C.ar  210  PHE210     -0.0202
    169  CD1      -12.6300  -34.9080    7.4590 C.ar  210  PHE210     -0.0042
    170  CD2      -14.1150  -33.8130    5.9480 C.ar  210  PHE210     -0.0042
    171  CE1      -13.3550  -36.0880    7.3280 C.ar  210  PHE210     -0.0003
    172  CE2      -14.8490  -34.9970    5.8060 C.ar  210  PHE210     -0.0003
    173  CZ       -14.4640  -36.1350    6.4990 C.ar  210  PHE210     -0.0000
    174  N        -11.2630  -30.1500    5.0350 N.am  211  VAL211     -0.1966
    175  CA       -11.1520  -28.6910    5.0310 C.3   211  VAL211      0.1712
    176  C        -12.5360  -28.0610    5.1550 C.2   211  VAL211      0.2458
    177  O        -13.5300  -28.6680    4.7650 O.2   211  VAL211     -0.2730
    178  CB       -10.4730  -28.1410    3.7510 C.3   211  VAL211      0.0289
    179  CG1       -9.0590  -28.6900    3.6150 C.3   211  VAL211      0.0023
    180  CG2      -11.3060  -28.4580    2.5040 C.3   211  VAL211      0.0023
    181  N        -12.6060  -26.8450    5.7230 N.am  212  PRO212     -0.2727
    182  CA       -13.8760  -26.1290    5.7460 C.3   212  PRO212      0.1402
    183  C        -14.3780  -25.7760    4.3370 C.2   212  PRO212      0.2269
    184  O        -13.6140  -25.2760    3.5200 O.2   212  PRO212     -0.2865
    185  CB       -13.5670  -24.8710    6.5650 C.3   212  PRO212      0.0296
    186  CG       -12.1030  -24.7500    6.6170 C.3   212  PRO212      0.0237
    187  CD       -11.5210  -26.0960    6.3870 C.3   212  PRO212      0.0939
    188  N         -6.9870  -21.8990   14.1680 N.3   245  ASN245     -0.1225
    189  CA        -5.5670  -21.9260   14.5540 C.3   245  ASN245      0.1785
    190  C         -4.7000  -22.3630   13.3830 C.2   245  ASN245      0.2597
    191  O         -4.1580  -23.4780   13.3510 O.2   245  ASN245     -0.2718
    192  CB        -5.3470  -22.8500   15.7470 C.3   245  ASN245      0.1169
    193  CG        -6.1280  -22.4110   16.9680 C.2   245  ASN245      0.2627
    194  OD1       -7.0920  -23.0580   17.3670 O.2   245  ASN245     -0.2716
    195  ND2       -5.7500  -21.2910   17.5280 N.am  245  ASN245     -0.0877
    196  N         -4.5670  -21.4510   12.4260 N.am  246  TYR246     -0.1962
    197  CA        -3.8280  -21.7100   11.1960 C.3   246  TYR246      0.1771
    198  C         -2.4290  -21.0880   11.2160 C.2   246  TYR246      0.2620
    199  O         -1.7820  -20.9840   10.1780 O.2   246  TYR246     -0.2715
    200  CB        -4.6300  -21.1890    9.9880 C.3   246  TYR246      0.0574
    201  CG        -5.7950  -22.0610    9.5280 C.ar  246  TYR246     -0.0198
    202  CD1       -6.0740  -23.3010   10.1080 C.ar  246  TYR246     -0.0009
    203  CD2       -6.5830  -21.6590    8.4480 C.ar  246  TYR246     -0.0009
    204  CE1       -7.1390  -24.0900    9.6510 C.ar  246  TYR246      0.0417
    205  CE2       -7.6460  -22.4410    7.9840 C.ar  246  TYR246      0.0417
    206  CZ        -7.9140  -23.6520    8.5820 C.ar  246  TYR246      0.1957
    207  OH        -8.9570  -24.4130    8.1100 O.3   246  TYR246     -0.2866
    208  N         -1.9630  -20.6930   12.3960 N.am  247  GLY247     -0.1940
    209  CA        -0.6300  -20.1190   12.5430 C.3   247  GLY247      0.2014
    210  C         -0.5780  -18.6290   12.2470 C.2   247  GLY247      0.2638
    211  O         -1.5990  -17.9360   12.2650 O.2   247  GLY247     -0.2714
    212  N          0.6290  -18.1390   11.9790 N.am  248  PHE248     -0.1973
    213  CA         0.8600  -16.7110   11.8260 C.3   248  PHE248      0.1639
    214  C          1.6740  -16.4240   10.5890 C.2   248  PHE248      0.2290
    215  O          2.4610  -17.2630   10.1500 O.2   248  PHE248     -0.2864
    216  CB         1.5810  -16.1570   13.0520 C.3   248  PHE248      0.0560
    217  CG         0.8030  -16.3130   14.3090 C.ar  248  PHE248     -0.0200
    218  CD1       -0.1400  -15.3590   14.6720 C.ar  248  PHE248     -0.0042
    219  CD2        0.9760  -17.4310   15.1100 C.ar  248  PHE248     -0.0042
    220  CE1       -0.8910  -15.5100   15.8240 C.ar  248  PHE248     -0.0003
    221  CE2        0.2350  -17.5880   16.2690 C.ar  248  PHE248     -0.0003
    222  CZ        -0.7040  -16.6270   16.6280 C.ar  248  PHE248     -0.0000
@<TRIPOS>BOND
     1    64    62   ar
     2    62    63   ar
     3    62    61    1
     4    59    58    2
     5    60    61    1
     6    60    57    1
     7   180   178    1
     8    58    57    1
     9    57    56    1
    10   184   183    2
    11   179   178    1
    12   178   175    1
    13   123   122    1
    14   183   182    1
    15   177   176    2
    16   122   124    1
    17   122   121    2
    18   120   121    1
    19   120   119    1
    20   117   116    2
    21   175   174    1
    22   175   176    1
    23   174   165   am
    24   176   181   am
    25    45    44    1
    26   118   119    1
    27   118   115    1
    28   181   182    1
    29   181   187    1
    30   182   185    1
    31   172   170   ar
    32   172   173   ar
    33    46    44    1
    34   130   131    1
    35   130   129    1
    36   165   164    1
    37   165   166    2
    38   170   168   ar
    39   164   163    1
    40   164   167    1
    41   131   132    1
    42    44    43    2
    43   116   115    1
    44   116   125   am
    45   187   186    1
    46   115   114    1
    47    50    49    2
    48   173   171   ar
    49   185   186    1
    50   168   167    1
    51   168   169   ar
    52   126   129    1
    53   126   125    1
    54   126   127    1
    55    43    42    1
    56   132   133    2
    57   171   169   ar
    58    49    48    1
    59    42    41    1
    60   114   106   am
    61    51    48    1
    62    51    52    1
    63   146   144    1
    64   134   133    1
    65   205   203   ar
    66   205   206   ar
    67   127   128    2
    68   133   135    1
    69   207   206    1
    70    47    48    1
    71    47    38   am
    72    41    40    1
    73   203   201   ar
    74   107   106    2
    75   206   204   ar
    76    40    37    1
    77   106   105    1
    78    52    53    1
    79    53    54    1
    80    37    38    1
    81    37    36    1
    82    38    39    2
    83   144   145    1
    84   144   143    2
    85   201   200    1
    86   201   202   ar
    87   204   202   ar
    88   112   110   ar
    89   112   113   ar
    90    55    54    1
    91   110   109   ar
    92   200   197    1
    93   113   111   ar
    94   143   142    1
    95   105   104    1
    96   105   108    1
    97   215   214    2
    98   199   198    2
    99   109   111   ar
   100   109   108    1
   101   214   213    1
   102   197   198    1
   103   197   196    1
   104   198   208   am
   105   142   141    1
   106   213   212    1
   107   213   216    1
   108   212   210   am
   109   210   211    2
   110   210   209    1
   111   141   140    1
   112    66    65    1
   113    66    67    1
   114   208   209    1
   115   140   137    1
   116   196   190   am
   117    69    67   am
   118    69    70    1
   119   136   137    1
   120    67    68    2
   121   216   217    1
   122   137   138    1
   123    70    71    1
   124   191   190    2
   125   190   189    1
   126    71    72    2
   127    71    73   am
   128    18    17    1
   129    19    17    1
   130   188   189    1
   131   217   218   ar
   132   217   219   ar
   133    73    74    1
   134   189   192    1
   135   138   139    2
   136   218   220   ar
   137    17    16    1
   138   219   221   ar
   139    74    75    1
   140   192   193    1
   141   220   222   ar
   142    16    13    1
   143   221   222   ar
   144    95    92    1
   145    75    76    2
   146    75    77   am
   147   193   194    2
   148   193   195   am
   149    13    14    1
   150    13    12    1
   151    15    14    2
   152    10     9    2
   153    77    78    1
   154    11     8    1
   155    92    91    1
   156    92    93    1
   157    12     9   am
   158     9     8    1
   159    91    87   am
   160    89    90    1
   161    89    86    1
   162     8     7    1
   163    84    82   ar
   164   147   148    1
   165    93    94    2
   166    85    86    1
   167    85    79   am
   168    78    79    1
   169    78    81    1
   170    87    86    1
   171    87    88    2
   172    82    81    1
   173    82    83   ar
   174   148   149    1
   175   148   151    1
   176    79    80    2
   177   149   150    2
   178   154   156   ar
   179   154   152   ar
   180     7     3   am
   181   156   155   ar
   182   152   151    1
   183   152   153   ar
   184    35    33   ar
   185   155   153   ar
   186     3     4    2
   187     3     2    1
   188    26    20    1
   189    26    25    1
   190    34    33   ar
   191    96    97    1
   192     1     2    1
   193   159   160    2
   194   159   158    1
   195    33    32    1
   196    20    21    1
   197     2     5    1
   198   161   158    1
   199   161   162    1
   200    25    24    1
   201     5     6    1
   202   158   157    1
   203    97   100    1
   204    97    98    1
   205    32    31    1
   206   100   101    1
   207    98    99    2
   208    21    24    1
   209    21    22    1
   210   101   102   ar
   211   101   103   ar
   212    27    22   am
   213    27    28    1
   214    31    28    1
   215    22    23    2
   216    28    29    1
   217    29    30    2
