@<TRIPOS>MOLECULE
tmp/3lzzA00.pdb
 126 119 0 0 0
SMALL
GASTEIGER

@<TRIPOS>ATOM
      1  N        -21.7320  -17.4510   10.3050 N.3    13  THR13      -0.1218
      2  CA       -22.3480  -17.3290   11.5940 C.3    13  THR13       0.1862
      3  C        -23.8570  -17.3120   11.4040 C.2    13  THR13       0.2287
      4  O        -24.2920  -17.0590   10.3230 O.2    13  THR13      -0.2866
      5  CB       -21.8550  -16.0970   12.2970 C.3    13  THR13       0.1770
      6  OG1      -22.1160  -16.3050   13.6930 O.3    13  THR13      -0.2211
      7  CG2      -22.5820  -14.8290   11.8280 C.3    13  THR13       0.0375
      8  N        -27.7250  -16.1350   10.9560 N.3    15  HIS15      -0.1227
      9  CA       -28.1340  -14.8300   10.3620 C.3    15  HIS15       0.1737
     10  C        -29.0160  -14.0840   11.3720 C.2    15  HIS15       0.2438
     11  O        -29.9340  -14.7200   11.8960 O.2    15  HIS15      -0.2733
     12  CB       -28.8910  -15.1010    9.0290 C.3    15  HIS15       0.0758
     13  CG       -29.1970  -13.8820    8.2040 C.ar   15  HIS15       0.0818
     14  ND1      -30.3160  -13.5400    7.5140 N.ar   15  HIS15      -0.2268
     15  CD2      -28.2760  -12.8790    7.9630 C.ar   15  HIS15       0.1154
     16  CE1      -30.0630  -12.3330    6.9030 C.ar   15  HIS15       0.1986
     17  NE2      -28.8230  -11.9580    7.1850 N.ar   15  HIS15      -0.2212
     18  N        -28.6880  -12.7930   11.7260 N.am   16  PRO16      -0.2729
     19  CA       -29.4490  -12.0960   12.8000 C.3    16  PRO16       0.1401
     20  C        -30.9060  -12.1760   12.5080 C.2    16  PRO16       0.2269
     21  O        -31.6540  -12.6820   13.3320 O.2    16  PRO16      -0.2865
     22  CB       -28.9500  -10.6450   12.7340 C.3    16  PRO16       0.0296
     23  CG       -27.5140  -10.7740   12.2250 C.3    16  PRO16       0.0237
     24  CD       -27.4240  -12.0860   11.4170 C.3    16  PRO16       0.0939
     25  N        -24.3760  -16.9500    7.3730 N.3    22  PHE22      -0.1241
     26  CA       -23.8890  -15.9550    6.4650 C.3    22  PHE22       0.1605
     27  C        -22.5420  -15.4170    6.9160 C.2    22  PHE22       0.2264
     28  O        -22.1060  -15.7150    7.9960 O.2    22  PHE22      -0.2867
     29  CB       -24.9320  -14.8270    6.3250 C.3    22  PHE22       0.0534
     30  CG       -24.7050  -13.7020    7.2350 C.ar   22  PHE22      -0.0203
     31  CD1      -24.2530  -12.4930    6.7400 C.ar   22  PHE22      -0.0042
     32  CD2      -24.8620  -13.8580    8.6260 C.ar   22  PHE22      -0.0042
     33  CE1      -23.9600  -11.4080    7.6330 C.ar   22  PHE22      -0.0003
     34  CE2      -24.5990  -12.7720    9.5390 C.ar   22  PHE22      -0.0003
     35  CZ       -24.1480  -11.5680    9.0350 C.ar   22  PHE22      -0.0000
     36  N        -20.2690  -11.6410    5.4220 N.3    24  GLU24      -0.1245
     37  CA       -19.9930  -10.6580    4.4070 C.3    24  GLU24       0.1567
     38  C        -18.5510  -10.8580    4.0560 C.2    24  GLU24       0.2260
     39  O        -17.6960  -10.7120    4.9120 O.2    24  GLU24      -0.2867
     40  CB       -20.2410   -9.2350    4.9130 C.3    24  GLU24       0.0388
     41  CG       -19.8950   -8.1360    3.9100 C.3    24  GLU24       0.1160
     42  CD       -20.3760   -6.7610    4.3820 C.2    24  GLU24       0.3649
     43  OE1      -21.5800   -6.4610    4.2800 O.co2  24  GLU24      -0.2457
     44  OE2      -19.5680   -5.9330    4.8500 O.co2  24  GLU24      -0.2457
     45  N        -16.7580   -6.0160    0.3780 N.3    27  ARG27      -0.1245
     46  CA       -17.3750   -4.7310    0.3730 C.3    27  ARG27       0.1563
     47  C        -16.4620   -3.8460   -0.4030 C.2    27  ARG27       0.2260
     48  O        -15.3770   -3.6700   -0.0450 O.2    27  ARG27      -0.2867
     49  CB       -17.5180   -4.2130    1.7910 C.3    27  ARG27       0.0307
     50  CG       -18.1200   -2.8710    1.8940 C.3    27  ARG27       0.0489
     51  CD       -18.4890   -2.5020    3.2890 C.3    27  ARG27       0.2205
     52  NE       -19.6470   -3.2170    3.7820 N.pl3  27  ARG27      -0.0865
     53  CZ       -20.8800   -2.7870    3.6660 C.cat  27  ARG27       0.5346
     54  NH1      -21.1210   -1.6640    3.0790 N.pl3  27  ARG27       0.1354
     55  NH2      -21.8630   -3.5040    4.0990 N.pl3  27  ARG27       0.1354
     56  N        -21.5590   -5.3810   -2.2860 N.3    45  THR45      -0.1218
     57  CA       -21.1440   -6.2110   -1.1550 C.3    45  THR45       0.1862
     58  C        -21.5810   -7.6130   -1.5580 C.2    45  THR45       0.2287
     59  O        -22.5070   -7.7600   -2.3730 O.2    45  THR45      -0.2866
     60  CB       -21.8430   -5.8700    0.1810 C.3    45  THR45       0.1770
     61  OG1      -23.2430   -6.0840    0.0150 O.3    45  THR45      -0.2211
     62  CG2      -21.5630   -4.3810    0.6370 C.3    45  THR45       0.0375
     63  N        -22.0710  -11.7380    0.2850 N.3    47  ILE47      -0.1245
     64  CA       -22.0500  -12.6570    1.4440 C.3    47  ILE47       0.1561
     65  C        -22.0780  -14.1030    0.9410 C.2    47  ILE47       0.2260
     66  O        -22.5330  -14.3420   -0.1800 O.2    47  ILE47      -0.2867
     67  CB       -23.3170  -12.4810    2.3300 C.3    47  ILE47       0.0252
     68  CG1      -24.5980  -12.8920    1.5800 C.3    47  ILE47       0.0019
     69  CG2      -23.4520  -11.0040    2.9330 C.3    47  ILE47       0.0019
     70  CD1      -25.8390  -12.7730    2.5310 C.3    47  ILE47       0.0001
     71  N        -31.1390   -7.5500   -5.5990 N.3    66  GLU66      -0.1245
     72  CA       -30.3140   -8.4190   -4.7750 C.3    66  GLU66       0.1567
     73  C        -30.1000   -9.6850   -5.5990 C.2    66  GLU66       0.2260
     74  O        -31.0430  -10.2280   -6.0970 O.2    66  GLU66      -0.2867
     75  CB       -31.0140   -8.6480   -3.4240 C.3    66  GLU66       0.0388
     76  CG       -30.2150   -9.5680   -2.5790 C.3    66  GLU66       0.1160
     77  CD       -30.5310   -9.5160   -1.1000 C.2    66  GLU66       0.3649
     78  OE1      -30.7390  -10.6600   -0.5920 O.co2  66  GLU66      -0.2457
     79  OE2      -30.5760   -8.4060   -0.4700 O.co2  66  GLU66      -0.2457
     80  N        -24.5770  -14.0290   -2.3490 N.3   125  VAL125     -0.1245
     81  CA       -25.6410  -13.0690   -2.5690 C.3   125  VAL125      0.1561
     82  C        -25.0670  -11.6810   -2.6550 C.2   125  VAL125      0.2260
     83  O        -24.2990  -11.2730   -1.7960 O.2   125  VAL125     -0.2867
     84  CB       -26.6460  -13.1550   -1.4650 C.3   125  VAL125      0.0252
     85  CG1      -27.7320  -12.1620   -1.6500 C.3   125  VAL125      0.0019
     86  CG2      -27.2600  -14.5510   -1.4250 C.3   125  VAL125      0.0019
     87  N        -25.4120   -7.4230   -3.4640 N.3   127  VAL127     -0.1245
     88  CA       -26.2990   -6.2960   -3.4290 C.3   127  VAL127      0.1561
     89  C        -25.5830   -5.1030   -3.9900 C.2   127  VAL127      0.2260
     90  O        -24.5050   -4.8440   -3.6200 O.2   127  VAL127     -0.2867
     91  CB       -26.6610   -6.0040   -2.0130 C.3   127  VAL127      0.0252
     92  CG1      -27.4740   -4.8240   -1.9010 C.3   127  VAL127      0.0019
     93  CG2      -27.3260   -7.1280   -1.4410 C.3   127  VAL127      0.0019
     94  N        -24.9600   -3.4950    0.6540 N.3   131  PHE131     -0.1241
     95  CA       -25.8610   -3.6120    1.8050 C.3   131  PHE131      0.1605
     96  C        -25.4990   -2.6240    2.8940 C.2   131  PHE131      0.2264
     97  O        -24.3250   -2.3820    3.1700 O.2   131  PHE131     -0.2867
     98  CB       -25.8020   -5.0240    2.3790 C.3   131  PHE131      0.0534
     99  CG       -26.7660   -5.2720    3.5260 C.ar  131  PHE131     -0.0203
    100  CD1      -28.1010   -5.6530    3.2780 C.ar  131  PHE131     -0.0042
    101  CD2      -26.3420   -5.1320    4.8620 C.ar  131  PHE131     -0.0042
    102  CE1      -29.0060   -5.9100    4.3600 C.ar  131  PHE131     -0.0003
    103  CE2      -27.2100   -5.3580    5.9520 C.ar  131  PHE131     -0.0003
    104  CZ       -28.5520   -5.7430    5.7120 C.ar  131  PHE131     -0.0000
    105  N        -27.6270   -1.5250    6.6650 N.3   133  PHE133     -0.1241
    106  CA       -28.7910   -1.7250    7.5070 C.3   133  PHE133      0.1605
    107  C        -29.8460   -0.6370    7.4790 C.2   133  PHE133      0.2264
    108  O        -30.9810   -0.8920    7.7020 O.2   133  PHE133     -0.2867
    109  CB       -28.3080   -1.9490    8.9170 C.3   133  PHE133      0.0534
    110  CG       -29.1050   -2.9140    9.6780 C.ar  133  PHE133     -0.0203
    111  CD1      -29.1700   -4.2230    9.2970 C.ar  133  PHE133     -0.0042
    112  CD2      -29.7890   -2.5110   10.8250 C.ar  133  PHE133     -0.0042
    113  CE1      -29.9030   -5.1030   10.0170 C.ar  133  PHE133     -0.0003
    114  CE2      -30.5300   -3.3940   11.5650 C.ar  133  PHE133     -0.0003
    115  CZ       -30.5930   -4.6860   11.1680 C.ar  133  PHE133     -0.0000
    116  N        -32.5770   -1.7290    5.0580 N.3   136  PHE136     -0.1241
    117  CA       -33.1820   -3.0330    5.2680 C.3   136  PHE136      0.1605
    118  C        -34.5170   -2.9430    6.0660 C.2   136  PHE136      0.2264
    119  O        -34.6490   -2.2250    7.0810 O.2   136  PHE136     -0.2867
    120  CB       -32.1610   -3.9110    6.0050 C.3   136  PHE136      0.0534
    121  CG       -32.6880   -5.2500    6.4720 C.ar  136  PHE136     -0.0203
    122  CD1      -32.6840   -6.3490    5.6310 C.ar  136  PHE136     -0.0042
    123  CD2      -33.1310   -5.4290    7.7830 C.ar  136  PHE136     -0.0042
    124  CE1      -33.1750   -7.5980    6.0440 C.ar  136  PHE136     -0.0003
    125  CE2      -33.5970   -6.6950    8.2200 C.ar  136  PHE136     -0.0003
    126  CZ       -33.6220   -7.7740    7.3340 C.ar  136  PHE136     -0.0000
@<TRIPOS>BOND
     1    74    73    2
     2    71    72    1
     3    73    72    1
     4    72    75    1
     5    89    90    2
     6    89    88    1
     7    87    88    1
     8    88    91    1
     9    75    76    1
    10    82    81    1
    11    82    83    2
    12    76    77    1
    13    81    80    1
    14    81    84    1
    15    59    58    2
    16    56    57    1
    17    91    92    1
    18    91    93    1
    19    85    84    1
    20    58    57    1
    21    84    86    1
    22    57    60    1
    23    77    78   ar
    24    77    79   ar
    25    47    48    2
    26    47    46    1
    27    66    65    2
    28    61    60    1
    29    60    62    1
    30    63    64    1
    31    46    45    1
    32    46    49    1
    33    94    95    1
    34    65    64    1
    35    64    67    1
    36    68    67    1
    37    68    70    1
    38    49    50    1
    39    95    98    1
    40    95    96    1
    41    50    51    1
    42    67    69    1
    43    98    99    1
    44    96    97    2
    45    54    53    1
    46   100    99   ar
    47   100   102   ar
    48    51    52    1
    49    99   101   ar
    50    53    52    2
    51    53    55    1
    52    41    42    1
    53    41    40    1
    54    38    37    1
    55    38    39    2
    56    43    42   ar
    57   102   104   ar
    58    42    44   ar
    59    37    40    1
    60    37    36    1
    61   101   103   ar
    62   116   117    1
    63   117   120    1
    64   117   118    1
    65   122   124   ar
    66   122   121   ar
    67   104   103   ar
    68   120   121    1
    69   124   126   ar
    70   118   119    2
    71    29    26    1
    72    29    30    1
    73    26    27    1
    74    26    25    1
    75   121   123   ar
    76   105   106    1
    77    31    30   ar
    78    31    33   ar
    79    16    17   ar
    80    16    14   ar
    81    27    28    2
    82    17    15   ar
    83    30    32   ar
    84   126   125   ar
    85   107   106    1
    86   107   108    2
    87   106   109    1
    88    14    13   ar
    89    33    35   ar
    90   123   125   ar
    91    15    13   ar
    92    13    12    1
    93    32    34   ar
    94   109   110    1
    95    12     9    1
    96    35    34   ar
    97   111   110   ar
    98   111   113   ar
    99   110   112   ar
   100   113   115   ar
   101     1     2    1
   102     4     3    2
   103     9     8    1
   104     9    10    1
   105   112   114   ar
   106   115   114   ar
   107    10    18   am
   108    10    11    2
   109     3     2    1
   110    24    18    1
   111    24    23    1
   112     2     5    1
   113    18    19    1
   114     7     5    1
   115    23    22    1
   116     5     6    1
   117    20    19    1
   118    20    21    2
   119    22    19    1
