@<TRIPOS>MOLECULE
tmp/3m04A00.pdb
 179 177 0 0 0
SMALL
GASTEIGER

@<TRIPOS>ATOM
      1  N         29.0990    1.7600   10.1300 N.3     1  TRP1       -0.1241
      2  CA        28.5190    0.7780   11.0120 C.3     1  TRP1        0.1605
      3  C         27.4820   -0.0900   10.3040 C.2     1  TRP1        0.2264
      4  O         26.8800    0.3150    9.3190 O.2     1  TRP1       -0.2867
      5  CB        27.8320    1.4660   12.1980 C.3     1  TRP1        0.0550
      6  CG        26.6080    2.2580   11.9150 C.ar    1  TRP1        0.0003
      7  CD1       26.4500    3.5710   11.5820 C.ar    1  TRP1        0.0946
      8  CD2       25.2750    1.7190   11.9790 C.ar    1  TRP1        0.0152
      9  NE1       25.1320    3.9010   11.4090 N.ar    1  TRP1       -0.2442
     10  CE2       24.3850    2.7660   11.6550 C.ar    1  TRP1        0.0810
     11  CE3       24.7110    0.4850   12.2570 C.ar    1  TRP1        0.0012
     12  CZ2       23.0200    2.5850   11.6160 C.ar    1  TRP1        0.0191
     13  CZ3       23.3500    0.2970   12.2250 C.ar    1  TRP1        0.0001
     14  CH2       22.4980    1.3620   11.9000 C.ar    1  TRP1        0.0015
     15  N         25.7540   -4.4930   10.8300 N.3     3  TYR3       -0.1241
     16  CA        25.3720   -5.6280   11.6650 C.3     3  TYR3        0.1605
     17  C         26.2820   -6.8210   11.4310 C.2     3  TYR3        0.2264
     18  O         26.0160   -7.8790   11.9900 O.2     3  TYR3       -0.2867
     19  CB        23.9020   -6.0080   11.4360 C.3     3  TYR3        0.0534
     20  CG        22.9680   -4.9090   11.8920 C.ar    3  TYR3       -0.0201
     21  CD1       22.6250   -4.8550   13.2340 C.ar    3  TYR3       -0.0009
     22  CD2       22.4290   -3.9730   11.0190 C.ar    3  TYR3       -0.0009
     23  CE1       21.7730   -3.8890   13.7050 C.ar    3  TYR3        0.0417
     24  CE2       21.5690   -2.9950   11.5020 C.ar    3  TYR3        0.0417
     25  CZ        21.2560   -2.9600   12.8420 C.ar    3  TYR3        0.1957
     26  OH        20.3980   -1.9760   13.2980 O.3     3  TYR3       -0.2866
     27  N         17.9220    2.2620    3.5690 N.3    58  ASN58      -0.1240
     28  CA        19.0790    3.0690    3.9440 C.3    58  ASN58       0.1653
     29  C         20.3120    2.2210    4.2390 C.2    58  ASN58       0.2266
     30  O         21.2830    2.7410    4.8070 O.2    58  ASN58      -0.2867
     31  CB        18.7280    3.9600    5.1350 C.3    58  ASN58       0.1155
     32  CG        18.5290    3.1990    6.4160 C.2    58  ASN58       0.2627
     33  OD1       18.5680    1.9680    6.4420 O.2    58  ASN58      -0.2716
     34  ND2       18.3050    3.9060    7.4980 N.am   58  ASN58      -0.0877
     35  N         20.4600   -0.2710    6.2680 N.3    60  HIS60      -0.1226
     36  CA        20.3160   -0.8090    7.5900 C.3    60  HIS60       0.1752
     37  C         18.9390   -1.4550    7.8120 C.2    60  HIS60       0.2595
     38  O         18.8420   -2.4950    8.4640 O.2    60  HIS60      -0.2718
     39  CB        20.4920    0.2480    8.6790 C.3    60  HIS60       0.0759
     40  CG        21.7450    1.0450    8.5390 C.ar   60  HIS60       0.0818
     41  ND1       22.9990    0.4620    8.6690 N.ar   60  HIS60      -0.2268
     42  CD2       21.9890    2.3450    8.2980 C.ar   60  HIS60       0.1154
     43  CE1       23.9380    1.3990    8.5070 C.ar   60  HIS60       0.1986
     44  NE2       23.3560    2.5740    8.2750 N.ar   60  HIS60      -0.2212
     45  N         17.9140   -0.8320    7.2840 N.am   61  ALA61      -0.1980
     46  CA        16.5450   -1.2920    7.2990 C.3    61  ALA61       0.1597
     47  C         15.7960   -0.5890    6.1720 C.2    61  ALA61       0.2287
     48  O         16.4750    0.0660    5.3920 O.2    61  ALA61      -0.2864
     49  CB        15.9170   -0.9750    8.6400 C.3    61  ALA61       0.0319
     50  N         12.7380    2.3120    5.7770 N.3    63  ASN63      -0.1240
     51  CA        12.1180    3.3620    6.5680 C.3    63  ASN63       0.1653
     52  C         10.9280    3.9370    5.8060 C.2    63  ASN63       0.2266
     53  O         11.1080    4.3410    4.6520 O.2    63  ASN63      -0.2867
     54  CB        13.1580    4.4540    6.8470 C.3    63  ASN63       0.1155
     55  CG        14.3640    3.6970    7.4450 C.2    63  ASN63       0.2627
     56  OD1       14.3400    3.4890    8.6210 O.2    63  ASN63      -0.2716
     57  ND2       15.1830    3.1950    6.5340 N.am   63  ASN63      -0.0877
     58  N          7.5100   10.5060   12.8710 N.3    87  ILE87      -0.1231
     59  CA         8.4110   10.8930   11.7930 C.3    87  ILE87       0.1692
     60  C          8.6840    9.7260   10.8510 C.2    87  ILE87       0.2591
     61  O          8.7560    9.9550    9.6320 O.2    87  ILE87      -0.2718
     62  CB         9.7390   11.4870   12.2980 C.3    87  ILE87       0.0266
     63  CG1       10.6500   11.9890   11.1690 C.3    87  ILE87       0.0019
     64  CG2       10.5270   10.5870   13.2480 C.3    87  ILE87       0.0020
     65  CD1       11.8350   12.8260   11.6120 C.3    87  ILE87       0.0001
     66  N          8.8090    8.5100   11.3930 N.am   88  GLN88      -0.1979
     67  CA         9.0390    7.3750   10.5090 C.3    88  GLN88       0.1601
     68  C          8.7780    6.0710   11.2560 C.2    88  GLN88       0.2287
     69  O          8.7290    6.0900   12.4790 O.2    88  GLN88      -0.2864
     70  CB        10.4410    7.3500    9.9170 C.3    88  GLN88       0.0394
     71  CG        11.5840    7.2680   10.9210 C.3    88  GLN88       0.0908
     72  CD        12.2200    5.9000   10.9020 C.2    88  GLN88       0.2608
     73  OE1       11.7180    4.9400   11.4560 O.2    88  GLN88      -0.2717
     74  NE2       13.3220    5.7460   10.1810 N.am   88  GLN88      -0.0878
     75  N         10.1470    1.7770   10.9820 N.3    90  HIS90      -0.1241
     76  CA        11.0170    0.7780   10.4030 C.3    90  HIS90       0.1621
     77  C         10.8770   -0.5220   11.2170 C.2    90  HIS90       0.2264
     78  O         10.2390   -0.5420   12.2620 O.2    90  HIS90      -0.2867
     79  CB        12.4850    1.2080   10.3520 C.3    90  HIS90       0.0745
     80  CG        12.9850    1.4430   11.7440 C.ar   90  HIS90       0.0817
     81  ND1       12.8230    2.6540   12.3920 N.ar   90  HIS90      -0.2268
     82  CD2       13.5860    0.6160   12.6580 C.ar   90  HIS90       0.1154
     83  CE1       13.3280    2.5810   13.6090 C.ar   90  HIS90       0.1986
     84  NE2       13.7870    1.3630   13.7940 N.ar   90  HIS90      -0.2212
     85  N         13.1190   -4.2860   12.4740 N.3    92  HIS92      -0.1241
     86  CA        14.2520   -5.1510   12.6320 C.3    92  HIS92       0.1621
     87  C         13.7850   -6.6070   12.5440 C.2    92  HIS92       0.2264
     88  O         12.6840   -6.9140   13.0490 O.2    92  HIS92      -0.2867
     89  CB        14.9670   -4.9140   13.9610 C.3    92  HIS92       0.0745
     90  CG        15.2350   -3.4760   14.2420 C.ar   92  HIS92       0.0817
     91  ND1       16.4660   -2.9080   13.9890 N.ar   92  HIS92      -0.2268
     92  CD2       14.4520   -2.4930   14.7240 C.ar   92  HIS92       0.1154
     93  CE1       16.4210   -1.6260   14.3220 C.ar   92  HIS92       0.1986
     94  NE2       15.2030   -1.3400   14.7760 N.ar   92  HIS92      -0.2212
     95  N          9.2580   -0.4420   14.9320 N.3   115  HIS115     -0.1241
     96  CA         9.4890    0.7880   15.6700 C.3   115  HIS115      0.1621
     97  C          8.8530    1.9880   14.9810 C.2   115  HIS115      0.2264
     98  O          9.2550    2.2990   13.8610 O.2   115  HIS115     -0.2867
     99  CB        11.0090    1.0690   15.8030 C.3   115  HIS115      0.0745
    100  CG        11.6820    0.0530   16.6830 C.ar  115  HIS115      0.0817
    101  ND1       13.0030   -0.2070   16.7200 N.ar  115  HIS115     -0.2268
    102  CD2       11.1390   -0.7470   17.6070 C.ar  115  HIS115      0.1154
    103  CE1       13.2770   -1.1570   17.6280 C.ar  115  HIS115      0.1986
    104  NE2       12.1120   -1.5050   18.1900 N.ar  115  HIS115     -0.2212
    105  N          8.7240    5.8180   15.3310 N.3   117  VAL117     -0.1245
    106  CA         9.5390    6.8490   15.9720 C.3   117  VAL117      0.1561
    107  C          8.8440    8.2030   15.9710 C.2   117  VAL117      0.2260
    108  O          8.4120    8.6260   14.9050 O.2   117  VAL117     -0.2867
    109  CB        10.8930    6.9450   15.2440 C.3   117  VAL117      0.0252
    110  CG1       11.8300    7.9680   15.8840 C.3   117  VAL117      0.0019
    111  CG2       11.5540    5.5740   15.1610 C.3   117  VAL117      0.0019
    112  N         13.0920   17.6390   14.9430 N.3   126  PHE126     -0.1241
    113  CA        13.6790   16.3740   15.3540 C.3   126  PHE126      0.1605
    114  C         15.1050   16.5440   15.8610 C.2   126  PHE126      0.2264
    115  O         15.5450   15.9480   16.8530 O.2   126  PHE126     -0.2867
    116  CB        13.5790   15.3820   14.1930 C.3   126  PHE126      0.0534
    117  CG        14.2480   14.0420   14.4660 C.ar  126  PHE126     -0.0203
    118  CD1       13.5030   13.0210   15.0270 C.ar  126  PHE126     -0.0042
    119  CD2       15.5750   13.8020   14.1720 C.ar  126  PHE126     -0.0042
    120  CE1       14.0870   11.7980   15.3030 C.ar  126  PHE126     -0.0003
    121  CE2       16.1740   12.5970   14.4780 C.ar  126  PHE126     -0.0003
    122  CZ        15.4200   11.5900   15.0320 C.ar  126  PHE126     -0.0000
    123  N          9.3470    6.0000   21.2180 N.3   138  VAL138     -0.1245
    124  CA         9.3080    4.9440   20.2090 C.3   138  VAL138      0.1561
    125  C          8.2860    3.9060   20.6870 C.2   138  VAL138      0.2260
    126  O          8.3650    3.4030   21.7960 O.2   138  VAL138     -0.2867
    127  CB        10.6480    4.3040   19.8820 C.3   138  VAL138      0.0252
    128  CG1       10.4730    3.2710   18.7760 C.3   138  VAL138      0.0019
    129  CG2       11.6290    5.4000   19.4270 C.3   138  VAL138      0.0019
    130  N         17.9860    5.2550   21.2070 N.3   193  LEU193     -0.1231
    131  CA        18.0090    4.6540   19.8760 C.3   193  LEU193      0.1693
    132  C         18.8120    3.3680   19.9200 C.2   193  LEU193      0.2593
    133  O         19.7730    3.2570   20.6700 O.2   193  LEU193     -0.2718
    134  CB        18.6980    5.6350   18.9200 C.3   193  LEU193      0.0284
    135  CG        17.9870    6.9420   18.6430 C.3   193  LEU193      0.0019
    136  CD1       18.7290    7.7920   17.6420 C.3   193  LEU193      0.0001
    137  CD2       16.5710    6.6980   18.1140 C.3   193  LEU193      0.0001
    138  N         18.4600    2.4020   19.0780 N.am  194  THR194     -0.1939
    139  CA        19.1770    1.1250   19.0750 C.3   194  THR194      0.2028
    140  C         20.1550    1.0010   17.9270 C.2   194  THR194      0.2643
    141  O         20.7680   -0.0560   17.7140 O.2   194  THR194     -0.2714
    142  CB        18.2150   -0.0850   19.0170 C.3   194  THR194      0.1808
    143  OG1       17.5870   -0.0990   17.7220 O.3   194  THR194     -0.2208
    144  CG2       17.1450   -0.0260   20.0820 C.3   194  THR194      0.0379
    145  N         20.3120    2.1020   17.1870 N.am  195  THR195     -0.1937
    146  CA        21.2660    2.2480   16.0980 C.3   195  THR195      0.2013
    147  C         22.1600    3.4520   16.3790 C.2   195  THR195      0.2484
    148  O         21.6570    4.4130   16.9780 O.2   195  THR195     -0.2729
    149  CB        20.5750    2.4390   14.7450 C.3   195  THR195      0.1807
    150  OG1       19.6640    3.5380   14.8330 O.3   195  THR195     -0.2208
    151  CG2       19.8460    1.1650   14.3670 C.3   195  THR195      0.0379
    152  N         23.4130    3.4170   15.9410 N.am  196  PRO196     -0.2715
    153  CA        24.2380    4.6230   16.0100 C.3   196  PRO196      0.1521
    154  C         23.5010    5.8320   15.4760 C.2   196  PRO196      0.2440
    155  O         22.8540    5.6990   14.4110 O.2   196  PRO196     -0.2731
    156  CB        25.3840    4.2340   15.0670 C.3   196  PRO196      0.0310
    157  CG        25.5700    2.7680   15.3890 C.3   196  PRO196      0.0237
    158  CD        24.1490    2.2800   15.3950 C.3   196  PRO196      0.0939
    159  N         23.5580    6.9830   16.1400 N.am  197  PRO197     -0.2727
    160  CA        24.3880    7.3150   17.2920 C.3   197  PRO197      0.1402
    161  C         23.9120    6.9340   18.6830 C.2   197  PRO197      0.2269
    162  O         24.5160    7.3940   19.6610 O.2   197  PRO197     -0.2865
    163  CB        24.4570    8.8530   17.1940 C.3   197  PRO197      0.0296
    164  CG        23.2160    9.2780   16.4820 C.3   197  PRO197      0.0237
    165  CD        22.8210    8.1450   15.5900 C.3   197  PRO197      0.0939
    166  N         10.5790    4.5270   25.7450 N.3   204  TRP204     -0.1241
    167  CA        10.1560    3.3070   25.0500 C.3   204  TRP204      0.1605
    168  C          8.7710    2.9210   25.5190 C.2   204  TRP204      0.2264
    169  O          8.5390    2.8910   26.7280 O.2   204  TRP204     -0.2867
    170  CB        11.1440    2.1370   25.2620 C.3   204  TRP204      0.0550
    171  CG        12.3000    2.2760   24.3030 C.ar  204  TRP204      0.0003
    172  CD1       13.5490    2.8290   24.4670 C.ar  204  TRP204      0.0946
    173  CD2       12.2500    1.8100   22.9380 C.ar  204  TRP204      0.0152
    174  NE1       14.2560    2.7400   23.3080 N.ar  204  TRP204     -0.2442
    175  CE2       13.5000    2.1180   22.3620 C.ar  204  TRP204      0.0810
    176  CE3       11.2730    1.1640   22.1640 C.ar  204  TRP204      0.0012
    177  CZ2       13.8110    1.7980   21.0350 C.ar  204  TRP204      0.0191
    178  CZ3       11.5860    0.8610   20.8540 C.ar  204  TRP204      0.0001
    179  CH2       12.8290    1.1810   20.3180 C.ar  204  TRP204      0.0015
@<TRIPOS>BOND
     1    27    28    1
     2    28    29    1
     3    28    31    1
     4    29    30    2
     5    53    52    2
     6    31    32    1
     7    48    47    2
     8    50    51    1
     9    52    51    1
    10    47    46    1
    11    35    36    1
    12    32    33    2
    13    32    34   am
    14    57    55   am
    15    51    54    1
    16    54    55    1
    17    45    46    1
    18    45    37   am
    19    46    49    1
    20    55    56    2
    21    36    37    1
    22    36    39    1
    23    37    38    2
    24    44    42   ar
    25    44    43   ar
    26    42    40   ar
    27    43    41   ar
    28    40    41   ar
    29    40    39    1
    30     4     3    2
    31    61    60    2
    32    70    67    1
    33    70    71    1
    34     1     2    1
    35    74    72   am
    36     3     2    1
    37    79    76    1
    38    79    80    1
    39    76    75    1
    40    76    77    1
    41    67    68    1
    42    67    66    1
    43    15    16    1
    44    60    66   am
    45    60    59    1
    46    72    71    1
    47    72    73    2
    48     2     5    1
    49    22    24   ar
    50    22    20   ar
    51    63    65    1
    52    63    62    1
    53    77    78    2
    54    68    69    2
    55     9     7   ar
    56     9    10   ar
    57    17    16    1
    58    17    18    2
    59    19    16    1
    60    19    20    1
    61    24    25   ar
    62     7     6   ar
    63    12    10   ar
    64    12    14   ar
    65    10     8   ar
    66    80    81   ar
    67    80    82   ar
    68    59    62    1
    69    59    58    1
    70    20    21   ar
    71    14    13   ar
    72     6     8   ar
    73     6     5    1
    74     8    11   ar
    75    13    11   ar
    76    62    64    1
    77    81    83   ar
    78    85    86    1
    79    87    86    1
    80    87    88    2
    81    86    89    1
    82    82    84   ar
    83    25    26    1
    84    25    23   ar
    85    21    23   ar
    86    83    84   ar
    87    98    97    2
    88    89    90    1
    89    91    90   ar
    90    91    93   ar
    91   119   117   ar
    92   119   121   ar
    93   116   117    1
    94   116   113    1
    95    90    92   ar
    96    93    94   ar
    97   151   149    1
    98   155   154    2
    99   117   118   ar
   100   121   122   ar
   101    92    94   ar
   102   149   150    1
   103   149   146    1
   104   108   107    2
   105    95    96    1
   106   112   113    1
   107    97    96    1
   108   118   120   ar
   109   122   120   ar
   110   156   157    1
   111   156   153    1
   112   111   109    1
   113   109   110    1
   114   109   106    1
   115   105   106    1
   116   113   114    1
   117   157   158    1
   118   158   152    1
   119   154   153    1
   120   154   159   am
   121   165   159    1
   122   165   164    1
   123    96    99    1
   124    99   100    1
   125   114   115    2
   126   152   153    1
   127   152   147   am
   128   107   106    1
   129   146   147    1
   130   146   145    1
   131   159   160    1
   132   147   148    2
   133   164   163    1
   134   100   101   ar
   135   100   102   ar
   136   101   103   ar
   137   145   140   am
   138   163   160    1
   139   160   161    1
   140   102   104   ar
   141   103   104   ar
   142   136   135    1
   143   141   140    2
   144   143   142    1
   145   140   139    1
   146   137   135    1
   147   135   134    1
   148   161   162    2
   149   128   127    1
   150   134   131    1
   151   142   139    1
   152   142   144    1
   153   139   138    1
   154   138   132   am
   155   129   127    1
   156   131   132    1
   157   131   130    1
   158   127   124    1
   159   132   133    2
   160   124   125    1
   161   124   123    1
   162   179   178   ar
   163   179   177   ar
   164   125   126    2
   165   178   176   ar
   166   177   175   ar
   167   176   173   ar
   168   175   173   ar
   169   175   174   ar
   170   173   171   ar
   171   174   172   ar
   172   171   172   ar
   173   171   170    1
   174   167   170    1
   175   167   168    1
   176   167   166    1
   177   168   169    2
