@<TRIPOS>MOLECULE
tmp/3m07A02.pdb
 102 94 0 0 0
SMALL
GASTEIGER

@<TRIPOS>ATOM
      1  N         56.5550    3.6540   -3.9860 N.3   258  ILE258     -0.1245
      2  CA        56.6440    2.9950   -5.2680 C.3   258  ILE258      0.1561
      3  C         55.4540    2.0960   -5.5570 C.2   258  ILE258      0.2260
      4  O         55.2200    1.7750   -6.7000 O.2   258  ILE258     -0.2867
      5  CB        57.9740    2.2580   -5.5000 C.3   258  ILE258      0.0252
      6  CG1       58.2170    1.0940   -4.5320 C.3   258  ILE258      0.0019
      7  CG2       59.1640    3.3160   -5.4600 C.3   258  ILE258      0.0019
      8  CD1       59.1740    0.0680   -5.1440 C.3   258  ILE258      0.0001
      9  N         53.0990    3.6800   -8.0750 N.3   261  ILE261     -0.1245
     10  CA        53.6030    3.9360   -9.4140 C.3   261  ILE261      0.1561
     11  C         53.1180    2.7890  -10.3190 C.2   261  ILE261      0.2260
     12  O         53.7930    1.7850  -10.4930 O.2   261  ILE261     -0.2867
     13  CB        55.1440    4.0860   -9.4150 C.3   261  ILE261      0.0252
     14  CG1       55.5220    5.2490   -8.5160 C.3   261  ILE261      0.0019
     15  CG2       55.6690    4.2590  -10.8080 C.3   261  ILE261      0.0019
     16  CD1       57.0360    5.4600   -8.4120 C.3   261  ILE261      0.0001
     17  N         57.9750   -2.8190  -20.0320 N.3   267  ARG267     -0.1231
     18  CA        59.0800   -2.6300  -19.0970 C.3   267  ARG267      0.1694
     19  C         58.5860   -1.5680  -18.1400 C.2   267  ARG267      0.2592
     20  O         58.2780   -0.4640  -18.5650 O.2   267  ARG267     -0.2718
     21  CB        60.2990   -2.1310  -19.8570 C.3   267  ARG267      0.0321
     22  CG        61.5920   -1.9160  -19.0670 C.3   267  ARG267      0.0489
     23  CD        62.6130   -1.3500  -20.0830 C.3   267  ARG267      0.2205
     24  NE        63.9650   -1.1790  -19.5760 N.pl3 267  ARG267     -0.0865
     25  CZ        64.9420   -0.5510  -20.2300 C.cat 267  ARG267      0.5346
     26  NH1       66.1400   -0.4430  -19.6770 N.pl3 267  ARG267      0.1354
     27  NH2       64.7250   -0.0170  -21.4330 N.pl3 267  ARG267      0.1354
     28  N         58.4490   -1.9170  -16.8700 N.am  268  HIS268     -0.1976
     29  CA        57.9580   -0.9820  -15.8480 C.3   268  HIS268      0.1656
     30  C         58.9190    0.2080  -15.6950 C.2   268  HIS268      0.2291
     31  O         60.1340    0.0390  -15.6730 O.2   268  HIS268     -0.2864
     32  CB        57.7750   -1.6810  -14.4860 C.3   268  HIS268      0.0771
     33  CG        56.9650   -0.9000  -13.5090 C.ar  268  HIS268      0.0820
     34  ND1       57.4710    0.1670  -12.7960 N.ar  268  HIS268     -0.2267
     35  CD2       55.6740   -1.0370  -13.1200 C.ar  268  HIS268      0.1154
     36  CE1       56.5200    0.6620  -12.0280 C.ar  268  HIS268      0.1986
     37  NE2       55.4260   -0.0690  -12.1870 N.ar  268  HIS268     -0.2212
     38  N         59.9270    1.8600  -13.2270 N.3   270  LEU270     -0.1231
     39  CA        60.9560    1.7320  -12.1690 C.3   270  LEU270      0.1693
     40  C         62.1000    0.8420  -12.5590 C.2   270  LEU270      0.2591
     41  O         63.2310    1.1010  -12.1910 O.2   270  LEU270     -0.2718
     42  CB        60.3690    1.2050  -10.8680 C.3   270  LEU270      0.0284
     43  CG        59.4790    2.1990  -10.1340 C.3   270  LEU270      0.0019
     44  CD1       58.7040    1.4550   -9.0430 C.3   270  LEU270      0.0001
     45  CD2       60.2920    3.3740   -9.5680 C.3   270  LEU270      0.0001
     46  N         61.8050   -0.2420  -13.2840 N.am  271  VAL271     -0.1980
     47  CA        62.8560   -1.1190  -13.7700 C.3   271  VAL271      0.1595
     48  C         63.7380   -0.3700  -14.7550 C.2   271  VAL271      0.2287
     49  O         64.9700   -0.4480  -14.6980 O.2   271  VAL271     -0.2864
     50  CB        62.2560   -2.4050  -14.3660 C.3   271  VAL271      0.0276
     51  CG1       63.3310   -3.2450  -15.0660 C.3   271  VAL271      0.0022
     52  CG2       61.5190   -3.1910  -13.2580 C.3   271  VAL271      0.0022
     53  N         67.7240    0.3080  -14.3850 N.3   275  GLN275     -0.1245
     54  CA        68.6260   -0.1880  -15.4250 C.3   275  GLN275      0.1566
     55  C         69.4440    0.9650  -16.0450 C.2   275  GLN275      0.2260
     56  O         70.6480    0.8390  -16.2430 O.2   275  GLN275     -0.2867
     57  CB        67.8500   -0.9440  -16.4870 C.3   275  GLN275      0.0367
     58  CG        67.3310   -2.2820  -16.0050 C.3   275  GLN275      0.0905
     59  CD        66.4580   -2.9750  -17.0520 C.2   275  GLN275      0.2608
     60  OE1       65.7240   -2.3300  -17.7930 O.2   275  GLN275     -0.2717
     61  NE2       66.5100   -4.2960  -17.0710 N.am  275  GLN275     -0.0878
     62  N         54.3120   -3.2460   -0.2160 N.3   294  ARG294     -0.1245
     63  CA        53.8790   -4.5900   -0.6380 C.3   294  ARG294      0.1563
     64  C         54.6930   -5.7430   -0.1210 C.2   294  ARG294      0.2260
     65  O         54.2550   -6.9040   -0.2070 O.2   294  ARG294     -0.2867
     66  CB        53.8450   -4.6840   -2.1460 C.3   294  ARG294      0.0307
     67  CG        52.8190   -3.7270   -2.7530 C.3   294  ARG294      0.0489
     68  CD        52.8950   -3.6310   -4.2420 C.3   294  ARG294      0.2205
     69  NE        54.1230   -2.9600   -4.6510 N.pl3 294  ARG294     -0.0865
     70  CZ        54.5570   -2.8400   -5.8950 C.cat 294  ARG294      0.5346
     71  NH1       53.8570   -3.3480   -6.9140 N.pl3 294  ARG294      0.1354
     72  NH2       55.7140   -2.2190   -6.1130 N.pl3 294  ARG294      0.1354
     73  N         57.2530   -7.0290   -1.4640 N.3   296  ILE296     -0.1245
     74  CA        57.8460   -7.7870   -2.5490 C.3   296  ILE296      0.1561
     75  C         59.3730   -7.6950   -2.4580 C.2   296  ILE296      0.2260
     76  O         59.9050   -6.9120   -1.6520 O.2   296  ILE296     -0.2867
     77  CB        57.3600   -7.3160   -3.9330 C.3   296  ILE296      0.0252
     78  CG1       57.6250   -5.8360   -4.1650 C.3   296  ILE296      0.0019
     79  CG2       55.8570   -7.6570   -4.1080 C.3   296  ILE296      0.0019
     80  CD1       57.5710   -5.4670   -5.6570 C.3   296  ILE296      0.0001
     81  N         61.1530   -8.5020   -5.7900 N.3   298  SER298     -0.1202
     82  CA        61.5450   -8.6190   -7.2010 C.3   298  SER298      0.2020
     83  C         62.3310   -7.4330   -7.7340 C.2   298  SER298      0.2618
     84  O         63.0440   -7.5830   -8.7190 O.2   298  SER298     -0.2717
     85  CB        60.3160   -8.8890   -8.0680 C.3   298  SER298      0.2103
     86  OG        59.4190   -7.8370   -7.9790 O.3   298  SER298     -0.2182
     87  N         62.2110   -6.2620   -7.0840 N.am  299  LEU299     -0.1979
     88  CA        62.9560   -5.0830   -7.5040 C.3   299  LEU299      0.1596
     89  C         64.3290   -4.9880   -6.8220 C.2   299  LEU299      0.2287
     90  O         65.0800   -4.0650   -7.1150 O.2   299  LEU299     -0.2864
     91  CB        62.1360   -3.8260   -7.2290 C.3   299  LEU299      0.0297
     92  CG        60.8830   -3.6800   -8.0700 C.3   299  LEU299      0.0022
     93  CD1       60.0380   -2.5080   -7.5380 C.3   299  LEU299      0.0001
     94  CD2       61.2400   -3.4530   -9.5380 C.3   299  LEU299      0.0001
     95  N         69.3570   -3.7920   -9.8940 N.3   310  LEU310     -0.1245
     96  CA        68.1900   -2.9160   -9.8390 C.3   310  LEU310      0.1561
     97  C         68.3260   -2.1010   -8.5550 C.2   310  LEU310      0.2260
     98  O         69.3300   -1.4010   -8.3950 O.2   310  LEU310     -0.2867
     99  CB        66.8760   -3.7400   -9.9370 C.3   310  LEU310      0.0270
    100  CG        66.7250   -4.5010  -11.2670 C.3   310  LEU310      0.0019
    101  CD1       65.4060   -5.3200  -11.2490 C.3   310  LEU310      0.0001
    102  CD2       66.7900   -3.5540  -12.4720 C.3   310  LEU310      0.0001
@<TRIPOS>BOND
     1    27    25    1
     2    25    26    1
     3    25    24    2
     4    23    24    1
     5    23    22    1
     6    17    18    1
     7    21    18    1
     8    21    22    1
     9    18    19    1
    10    20    19    2
    11    19    28   am
    12    60    59    2
    13    61    59   am
    14    59    58    1
    15    28    29    1
    16    57    58    1
    17    57    54    1
    18    56    55    2
    19    55    54    1
    20    29    30    1
    21    29    32    1
    22    30    31    2
    23    54    53    1
    24    51    50    1
    25    48    49    2
    26    48    47    1
    27    32    33    1
    28    50    47    1
    29    50    52    1
    30    47    46    1
    31    33    35   ar
    32    33    34   ar
    33    46    40   am
    34    38    39    1
    35    35    37   ar
    36    34    36   ar
    37    40    41    2
    38    40    39    1
    39   102   100    1
    40    37    36   ar
    41    39    42    1
    42   100   101    1
    43   100    99    1
    44    42    43    1
    45    15    13    1
    46    12    11    2
    47    11    10    1
    48    43    45    1
    49    43    44    1
    50    99    96    1
    51    95    96    1
    52    96    97    1
    53    94    92    1
    54    13    10    1
    55    13    14    1
    56    10     9    1
    57    84    83    2
    58    97    98    2
    59    14    16    1
    60    92    93    1
    61    92    91    1
    62    85    86    1
    63    85    82    1
    64    83    82    1
    65    83    87   am
    66    88    91    1
    67    88    87    1
    68    88    89    1
    69    82    81    1
    70    90    89    2
    71    71    70    1
    72     4     3    2
    73    72    70    1
    74    70    69    2
    75    80    78    1
    76     3     2    1
    77     5     7    1
    78     5     2    1
    79     5     6    1
    80     2     1    1
    81     8     6    1
    82    69    68    1
    83    68    67    1
    84    78    77    1
    85    79    77    1
    86    77    74    1
    87    67    66    1
    88    74    75    1
    89    74    73    1
    90    75    76    2
    91    66    63    1
    92    63    62    1
    93    63    64    1
    94    65    64    2
