@<TRIPOS>MOLECULE
tmp/3m07A00.pdb
 124 122 0 0 0
SMALL
GASTEIGER

@<TRIPOS>ATOM
      1  N         57.0320   19.5240    3.8360 N.3   156  TRP156     -0.1241
      2  CA        57.8720   18.3180    3.9530 C.3   156  TRP156      0.1605
      3  C         58.6190   18.0020    2.6650 C.2   156  TRP156      0.2264
      4  O         59.7230   17.4460    2.7090 O.2   156  TRP156     -0.2867
      5  CB        57.0230   17.1160    4.2900 C.3   156  TRP156      0.0550
      6  CG        56.5140   17.0550    5.7170 C.ar  156  TRP156      0.0003
      7  CD1       56.5740   18.0190    6.6840 C.ar  156  TRP156      0.0946
      8  CD2       55.8400   15.9360    6.2920 C.ar  156  TRP156      0.0152
      9  NE1       55.9990   17.5330    7.8590 N.ar  156  TRP156     -0.2442
     10  CE2       55.5180   16.2700    7.6230 C.ar  156  TRP156      0.0810
     11  CE3       55.4510   14.6980    5.7960 C.ar  156  TRP156      0.0012
     12  CZ2       54.8560   15.3800    8.4670 C.ar  156  TRP156      0.0191
     13  CZ3       54.7770   13.8010    6.6250 C.ar  156  TRP156      0.0001
     14  CH2       54.4860   14.1530    7.9520 C.ar  156  TRP156      0.0015
     15  N         56.6500   16.5450   -0.1440 N.3   158  TYR158     -0.1227
     16  CA        55.8270   15.6140   -0.9340 C.3   158  TYR158      0.1736
     17  C         54.7540   16.3220   -1.7600 C.2   158  TYR158      0.2595
     18  O         53.9870   15.6460   -2.4470 O.2   158  TYR158     -0.2718
     19  CB        55.2610   14.4700   -0.0450 C.3   158  TYR158      0.0548
     20  CG        56.3980   13.8070    0.7020 C.ar  158  TYR158     -0.0200
     21  CD1       57.1910   12.8570    0.0990 C.ar  158  TYR158     -0.0009
     22  CD2       56.7320   14.2060    1.9920 C.ar  158  TYR158     -0.0009
     23  CE1       58.2980   12.3340    0.7510 C.ar  158  TYR158      0.0417
     24  CE2       57.8150   13.6740    2.6330 C.ar  158  TYR158      0.0417
     25  CZ        58.5990   12.7460    2.0060 C.ar  158  TYR158      0.1957
     26  OH        59.7130   12.2630    2.6770 O.3   158  TYR158     -0.2866
     27  N         54.7040   17.6480   -1.6860 N.am  159  ASP159     -0.1974
     28  CA        53.8310   18.4560   -2.5660 C.3   159  ASP159      0.1709
     29  C         54.6390   19.0600   -3.7190 C.2   159  ASP159      0.2293
     30  O         54.1840   19.9600   -4.4130 O.2   159  ASP159     -0.2864
     31  CB        53.1270   19.5580   -1.7470 C.3   159  ASP159      0.1436
     32  CG        52.0940   18.9960   -0.7920 C.2   159  ASP159      0.3671
     33  OD1       51.5850   17.8910   -1.0460 O.co2 159  ASP159     -0.2456
     34  OD2       51.8130   19.6470    0.2150 O.co2 159  ASP159     -0.2456
     35  N         59.9970   11.9520   -5.4220 N.3   195  VAL195     -0.1245
     36  CA        58.5870   11.6120   -5.5750 C.3   195  VAL195      0.1561
     37  C         58.2450   11.5510   -7.0560 C.2   195  VAL195      0.2260
     38  O         58.2820   12.5940   -7.7260 O.2   195  VAL195     -0.2867
     39  CB        57.6940   12.6170   -4.8790 C.3   195  VAL195      0.0252
     40  CG1       56.2280   12.1900   -5.0120 C.3   195  VAL195      0.0019
     41  CG2       58.0780   12.7490   -3.4110 C.3   195  VAL195      0.0019
     42  N         53.2500   11.1710   -7.8780 N.3   198  HIS198     -0.1241
     43  CA        52.2260   12.2170   -7.9880 C.3   198  HIS198      0.1621
     44  C         52.8570   13.5850   -7.9310 C.2   198  HIS198      0.2264
     45  O         54.0110   13.7150   -7.5530 O.2   198  HIS198     -0.2867
     46  CB        51.1710   12.0780   -6.8500 C.3   198  HIS198      0.0745
     47  CG        51.5630   12.7100   -5.5510 C.ar  198  HIS198      0.0817
     48  ND1       52.4650   12.1430   -4.6600 N.ar  198  HIS198     -0.2268
     49  CD2       51.1960   13.8920   -5.0080 C.ar  198  HIS198      0.1154
     50  CE1       52.6290   12.9710   -3.6340 C.ar  198  HIS198      0.1986
     51  NE2       51.8580   14.0280   -3.8180 N.ar  198  HIS198     -0.2212
     52  N         46.6930   11.0080   -3.5380 N.3   222  TRP222     -0.1241
     53  CA        47.2060   12.3670   -3.3720 C.3   222  TRP222      0.1605
     54  C         47.1320   13.2210   -4.6250 C.2   222  TRP222      0.2264
     55  O         47.5580   14.3880   -4.6100 O.2   222  TRP222     -0.2867
     56  CB        48.6860   12.2970   -2.8780 C.3   222  TRP222      0.0550
     57  CG        48.8460   11.1970   -1.8500 C.ar  222  TRP222      0.0003
     58  CD1       48.3300   11.1650   -0.5940 C.ar  222  TRP222      0.0946
     59  CD2       49.5450    9.9650   -2.0380 C.ar  222  TRP222      0.0152
     60  NE1       48.6640    9.9620    0.0190 N.ar  222  TRP222     -0.2442
     61  CE2       49.4190    9.2210   -0.8480 C.ar  222  TRP222      0.0810
     62  CE3       50.2890    9.4320   -3.0860 C.ar  222  TRP222      0.0012
     63  CZ2       50.0030    7.9570   -0.6910 C.ar  222  TRP222      0.0191
     64  CZ3       50.8760    8.1850   -2.9330 C.ar  222  TRP222      0.0001
     65  CH2       50.7250    7.4570   -1.7440 C.ar  222  TRP222      0.0015
     66  N         59.9400    7.4940   -3.1010 N.3   256  ASP256     -0.1225
     67  CA        58.6940    7.5590   -2.3550 C.3   256  ASP256      0.1805
     68  C         57.5980    6.7050   -2.9660 C.2   256  ASP256      0.2597
     69  O         57.4350    6.6770   -4.1870 O.2   256  ASP256     -0.2718
     70  CB        58.2180    9.0140   -2.3450 C.3   256  ASP256      0.1424
     71  CG        56.9480    9.2280   -1.5530 C.2   256  ASP256      0.3668
     72  OD1       57.0320    9.1170   -0.3250 O.co2 256  ASP256     -0.2456
     73  OD2       55.9040    9.5620   -2.1510 O.co2 256  ASP256     -0.2456
     74  N         56.8810    5.9950   -2.0830 N.am  257  ALA257     -0.1979
     75  CA        55.6190    5.2750   -2.4120 C.3   257  ALA257      0.1597
     76  C         55.6320    4.5890   -3.7630 C.2   257  ALA257      0.2287
     77  O         54.7710    4.8660   -4.6240 O.2   257  ALA257     -0.2864
     78  CB        54.3790    6.2150   -2.2280 C.3   257  ALA257      0.0319
     79  N         60.5350    2.8850   -1.0830 N.3   291  GLU291     -0.1245
     80  CA        59.4700    2.7890   -0.0970 C.3   291  GLU291      0.1567
     81  C         58.2840    2.1010   -0.7410 C.2   291  GLU291      0.2260
     82  O         57.5720    2.6680   -1.5820 O.2   291  GLU291     -0.2867
     83  CB        59.0380    4.1540    0.4200 C.3   291  GLU291      0.0388
     84  CG        57.9700    4.0520    1.5300 C.3   291  GLU291      0.1160
     85  CD        57.1290    5.3110    1.7080 C.2   291  GLU291      0.3649
     86  OE1       56.8250    6.0270    0.7110 O.co2 291  GLU291     -0.2457
     87  OE2       56.7470    5.5840    2.8740 O.co2 291  GLU291     -0.2457
     88  N         60.2170   10.4520    9.1370 N.3   387  HIS387     -0.1226
     89  CA        59.3030   11.5860    9.0070 C.3   387  HIS387      0.1752
     90  C         57.8280   11.1720    9.0640 C.2   387  HIS387      0.2596
     91  O         57.0020   11.9240    9.5570 O.2   387  HIS387     -0.2718
     92  CB        59.5640   12.3710    7.6940 C.3   387  HIS387      0.0759
     93  CG        59.0910   11.6690    6.4730 C.ar  387  HIS387      0.0818
     94  ND1       59.8570   10.7650    5.7740 N.ar  387  HIS387     -0.2268
     95  CD2       57.8820   11.6930    5.8530 C.ar  387  HIS387      0.1154
     96  CE1       59.1400   10.2730    4.7740 C.ar  387  HIS387      0.1986
     97  NE2       57.9350   10.8120    4.8160 N.ar  387  HIS387     -0.2212
     98  N         57.4860   10.0040    8.5210 N.am  388  ASP388     -0.1974
     99  CA        56.0950    9.5390    8.5130 C.3   388  ASP388      0.1709
    100  C         55.6830    8.9750    9.8720 C.2   388  ASP388      0.2293
    101  O         54.6520    9.3540   10.4250 O.2   388  ASP388     -0.2864
    102  CB        55.8690    8.4640    7.4320 C.3   388  ASP388      0.1436
    103  CG        55.4690    9.0380    6.0810 C.2   388  ASP388      0.3671
    104  OD1       54.8660   10.1190    6.0180 O.co2 388  ASP388     -0.2456
    105  OD2       55.7450    8.3800    5.0610 O.co2 388  ASP388     -0.2456
    106  N         52.9530   11.4960   10.7310 N.3   392  ASN392     -0.1240
    107  CA        51.5840   11.0980   10.3690 C.3   392  ASN392      0.1653
    108  C         50.6270   11.1010   11.5780 C.2   392  ASN392      0.2266
    109  O         49.4030   10.9170   11.4210 O.2   392  ASN392     -0.2867
    110  CB        51.5470    9.7750    9.5650 C.3   392  ASN392      0.1155
    111  CG        51.7230    8.5310   10.4290 C.2   392  ASN392      0.2627
    112  OD1       51.5820    8.5730   11.6400 O.2   392  ASN392     -0.2716
    113  ND2       52.0300    7.3880    9.7760 N.am  392  ASN392     -0.0877
    114  N         53.0560   17.8270   10.6540 N.3   438  PHE438     -0.1241
    115  CA        52.7340   18.0410    9.2810 C.3   438  PHE438      0.1605
    116  C         52.4940   19.5390    9.0900 C.2   438  PHE438      0.2264
    117  O         51.5700   20.1270    9.6600 O.2   438  PHE438     -0.2867
    118  CB        51.5260   17.2070    8.8210 C.3   438  PHE438      0.0534
    119  CG        51.1550   17.4760    7.3800 C.ar  438  PHE438     -0.0203
    120  CD1       52.0160   17.0930    6.3650 C.ar  438  PHE438     -0.0042
    121  CD2       49.9710   18.1110    7.0550 C.ar  438  PHE438     -0.0042
    122  CE1       51.7070   17.3710    5.0320 C.ar  438  PHE438     -0.0003
    123  CE2       49.6620   18.3640    5.7200 C.ar  438  PHE438     -0.0003
    124  CZ        50.5470   17.9870    4.7390 C.ar  438  PHE438     -0.0000
@<TRIPOS>BOND
     1    43    44    1
     2    43    42    1
     3    43    46    1
     4    44    45    2
     5    38    37    2
     6    37    36    1
     7    46    47    1
     8    36    35    1
     9    36    39    1
    10    47    49   ar
    11    47    48   ar
    12    40    39    1
    13    49    51   ar
    14    39    41    1
    15    48    50   ar
    16    54    55    2
    17    54    53    1
    18    77    76    2
    19    30    29    2
    20    69    68    2
    21    51    50   ar
    22    76    75    1
    23    29    28    1
    24    52    53    1
    25    53    56    1
    26    66    67    1
    27    62    64   ar
    28    62    59   ar
    29    68    67    1
    30    68    74   am
    31    64    65   ar
    32    56    57    1
    33    28    31    1
    34    28    27    1
    35    18    17    2
    36    75    78    1
    37    75    74    1
    38    67    70    1
    39    70    71    1
    40    73    71   ar
    41    59    57   ar
    42    59    61   ar
    43    57    58   ar
    44    17    27   am
    45    17    16    1
    46    31    32    1
    47    65    63   ar
    48    82    81    2
    49    71    72   ar
    50    79    80    1
    51    33    32   ar
    52    16    15    1
    53    16    19    1
    54    61    63   ar
    55    61    60   ar
    56    32    34   ar
    57    81    80    1
    58    58    60   ar
    59    80    83    1
    60    19    20    1
    61    21    20   ar
    62    21    23   ar
    63    83    84    1
    64    20    22   ar
    65    86    85   ar
    66    23    25   ar
    67    84    85    1
    68    85    87   ar
    69    22    24   ar
    70    25    24   ar
    71    25    26    1
    72     3     4    2
    73     3     2    1
    74     1     2    1
    75     2     5    1
    76     5     6    1
    77   124   122   ar
    78   124   123   ar
    79    96    97   ar
    80    96    94   ar
    81    97    95   ar
    82   122   120   ar
    83   105   103   ar
    84     6     8   ar
    85     6     7   ar
    86   123   121   ar
    87    94    93   ar
    88    11     8   ar
    89    11    13   ar
    90    95    93   ar
    91   104   103   ar
    92   103   102    1
    93     8    10   ar
    94   120   119   ar
    95    93    92    1
    96    13    14   ar
    97     7     9   ar
    98   121   119   ar
    99   119   118    1
   100   102    99    1
   101    10     9   ar
   102    10    12   ar
   103    92    89    1
   104    14    12   ar
   105    99    98    1
   106    99   100    1
   107    98    90   am
   108   118   115    1
   109    89    90    1
   110    89    88    1
   111    90    91    2
   112   116   115    1
   113   116   117    2
   114   115   114    1
   115   110   107    1
   116   110   111    1
   117   113   111   am
   118   100   101    2
   119   107   106    1
   120   107   108    1
   121   111   112    2
   122   109   108    2
