@<TRIPOS>MOLECULE
tmp/3m07A01.pdb
 87 84 0 0 0
SMALL
GASTEIGER

@<TRIPOS>ATOM
      1  N         54.2430   -1.2420   18.1820 N.3   325  VAL325     -0.1231
      2  CA        53.2210   -1.9670   18.9580 C.3   325  VAL325      0.1692
      3  C         53.8440   -2.6050   20.2140 C.2   325  VAL325      0.2592
      4  O         53.3270   -2.4640   21.3120 O.2   325  VAL325     -0.2718
      5  CB        52.5310   -2.9910   18.1230 C.3   325  VAL325      0.0266
      6  CG1       51.4930   -3.7700   18.9900 C.3   325  VAL325      0.0020
      7  CG2       51.8300   -2.3270   16.9480 C.3   325  VAL325      0.0020
      8  N         54.9810   -3.2580   20.0330 N.am  326  PHE326     -0.1962
      9  CA        55.7530   -3.8970   21.0980 C.3   326  PHE326      0.1771
     10  C         56.0500   -2.9220   22.2360 C.2   326  PHE326      0.2619
     11  O         55.9000   -3.2580   23.3900 O.2   326  PHE326     -0.2715
     12  CB        57.0360   -4.4370   20.4220 C.3   326  PHE326      0.0574
     13  CG        58.0320   -5.1320   21.3090 C.ar  326  PHE326     -0.0200
     14  CD1       57.7970   -6.4130   21.7740 C.ar  326  PHE326     -0.0042
     15  CD2       59.2820   -4.5750   21.5570 C.ar  326  PHE326     -0.0042
     16  CE1       58.7480   -7.0680   22.5290 C.ar  326  PHE326     -0.0003
     17  CE2       60.2450   -5.2510   22.2720 C.ar  326  PHE326     -0.0003
     18  CZ        59.9710   -6.4980   22.7760 C.ar  326  PHE326     -0.0000
     19  N         56.4410   -1.6900   21.9010 N.am  327  ALA327     -0.1963
     20  CA        56.9250   -0.7350   22.8750 C.3   327  ALA327      0.1728
     21  C         55.9250    0.2700   23.4040 C.2   327  ALA327      0.2617
     22  O         56.1650    0.8740   24.4560 O.2   327  ALA327     -0.2715
     23  CB        58.1260    0.0400   22.2440 C.3   327  ALA327      0.0334
     24  N         54.8190    0.4960   22.6870 N.am  328  THR328     -0.1937
     25  CA        53.8250    1.4980   23.0720 C.3   328  THR328      0.2028
     26  C         52.4340    0.9450   23.3480 C.2   328  THR328      0.2642
     27  O         51.6200    1.6330   23.9880 O.2   328  THR328     -0.2714
     28  CB        53.6650    2.6160   21.9820 C.3   328  THR328      0.1808
     29  OG1       52.9070    2.1280   20.8700 O.3   328  THR328     -0.2208
     30  CG2       55.0210    3.1670   21.5400 C.3   328  THR328      0.0379
     31  N         52.1490   -0.2690   22.8660 N.am  329  GLY329     -0.1954
     32  CA        50.8020   -0.8650   22.9720 C.3   329  GLY329      0.1869
     33  C         49.7560   -0.3130   22.0040 C.2   329  GLY329      0.2309
     34  O         48.6000   -0.7790   21.9910 O.2   329  GLY329     -0.2863
     35  N         56.4890    8.4910   23.7050 N.3   402  LEU402     -0.1231
     36  CA        55.4750    7.4300   23.8000 C.3   402  LEU402      0.1693
     37  C         55.9900    6.2130   24.5580 C.2   402  LEU402      0.2592
     38  O         55.2320    5.5400   25.2740 O.2   402  LEU402     -0.2718
     39  CB        55.0750    6.9920   22.3860 C.3   402  LEU402      0.0284
     40  CG        54.5400    8.0910   21.4730 C.3   402  LEU402      0.0019
     41  CD1       54.3740    7.5110   20.0620 C.3   402  LEU402      0.0001
     42  CD2       53.2300    8.6880   21.9660 C.3   402  LEU402      0.0001
     43  N         57.2710    5.9150   24.4190 N.am  403  ALA403     -0.1966
     44  CA        57.8710    4.7200   25.0340 C.3   403  ALA403      0.1728
     45  C         58.6940    5.0420   26.2680 C.2   403  ALA403      0.2616
     46  O         58.9990    4.1460   27.0630 O.2   403  ALA403     -0.2715
     47  CB        58.7350    3.9860   23.9990 C.3   403  ALA403      0.0334
     48  N         59.0850    6.3060   26.4260 N.am  404  GLY404     -0.1955
     49  CA        59.9730    6.7350   27.5140 C.3   404  GLY404      0.1869
     50  C         61.4270    6.5480   27.1250 C.2   404  GLY404      0.2309
     51  O         61.7570    5.7440   26.2460 O.2   404  GLY404     -0.2863
     52  N         63.2600    2.7480   27.5620 N.3   407  ARG407     -0.1245
     53  CA        62.8360    1.8450   26.5000 C.3   407  ARG407      0.1563
     54  C         63.3990    2.3010   25.1230 C.2   407  ARG407      0.2260
     55  O         63.8480    1.4760   24.3330 O.2   407  ARG407     -0.2867
     56  CB        61.3250    1.7600   26.4560 C.3   407  ARG407      0.0307
     57  CG        60.8040    0.7630   25.5040 C.3   407  ARG407      0.0489
     58  CD        59.3470    0.4570   25.7840 C.3   407  ARG407      0.2205
     59  NE        59.1870   -0.2290   27.0560 N.pl3 407  ARG407     -0.0865
     60  CZ        58.0140   -0.5350   27.5840 C.cat 407  ARG407      0.5346
     61  NH1       56.8720   -0.2090   26.9700 N.pl3 407  ARG407      0.1354
     62  NH2       57.9850   -1.1880   28.7390 N.pl3 407  ARG407      0.1354
     63  N         56.0190  -12.3210   25.7780 N.3   527  PRO527     -0.2102
     64  CA        55.6100  -10.9010   25.8700 C.3   527  PRO527      0.1504
     65  C         56.7580   -9.9930   26.3440 C.2   527  PRO527      0.2576
     66  O         57.3780  -10.2590   27.3520 O.2   527  PRO527     -0.2718
     67  CB        54.4620  -10.9390   26.8920 C.3   527  PRO527      0.0282
     68  CG        53.8760  -12.3000   26.6790 C.3   527  PRO527      0.0208
     69  CD        55.0380  -13.2170   26.4230 C.3   527  PRO527      0.0893
     70  N         57.0660   -8.9580   25.5720 N.am  528  GLY528     -0.1957
     71  CA        58.1250   -8.0250   25.9020 C.3   528  GLY528      0.1869
     72  C         59.5320   -8.5450   25.7200 C.2   528  GLY528      0.2309
     73  O         60.4770   -7.8690   26.1070 O.2   528  GLY528     -0.2863
     74  N         61.8740   -5.7590   27.2820 N.3   547  ILE547     -0.1231
     75  CA        61.2730   -4.5090   27.7220 C.3   547  ILE547      0.1692
     76  C         60.2080   -4.6890   28.8050 C.2   547  ILE547      0.2592
     77  O         59.5340   -3.7350   29.1950 O.2   547  ILE547     -0.2718
     78  CB        60.7230   -3.6660   26.5590 C.3   547  ILE547      0.0266
     79  CG1       59.6610   -4.4180   25.7870 C.3   547  ILE547      0.0019
     80  CG2       61.8400   -3.2810   25.6270 C.3   547  ILE547      0.0020
     81  CD1       58.7750   -3.4940   24.9480 C.3   547  ILE547      0.0001
     82  N         60.0620   -5.9270   29.2890 N.am  548  SER548     -0.1952
     83  CA        59.1130   -6.2210   30.3730 C.3   548  SER548      0.1924
     84  C         59.6350   -5.6710   31.7070 C.2   548  SER548      0.2314
     85  O         60.7800   -5.2300   31.8110 O.2   548  SER548     -0.2863
     86  CB        58.8600   -7.7290   30.4840 C.3   548  SER548      0.2116
     87  OG        59.9310   -8.4400   31.1130 O.3   548  SER548     -0.2180
@<TRIPOS>BOND
     1     7     5    1
     2     5     2    1
     3     5     6    1
     4     1     2    1
     5     2     3    1
     6     8     3   am
     7     8     9    1
     8    41    40    1
     9     3     4    2
    10    12     9    1
    11    12    13    1
    12    29    28    1
    13     9    10    1
    14    13    15   ar
    15    13    14   ar
    16    40    42    1
    17    40    39    1
    18    30    28    1
    19    15    17   ar
    20    14    16   ar
    21    19    10   am
    22    19    20    1
    23    28    25    1
    24    34    33    2
    25    33    32    1
    26    10    11    2
    27    23    20    1
    28    17    18   ar
    29    39    36    1
    30    16    18   ar
    31    24    25    1
    32    24    21   am
    33    31    32    1
    34    31    26   am
    35    20    21    1
    36    25    26    1
    37    26    27    2
    38    21    22    2
    39    35    36    1
    40    36    37    1
    41    47    44    1
    42    55    54    2
    43    43    37   am
    44    43    44    1
    45    37    38    2
    46    81    79    1
    47    44    45    1
    48    54    53    1
    49    57    58    1
    50    57    56    1
    51    70    71    1
    52    70    65   am
    53    80    78    1
    54    72    71    1
    55    72    73    2
    56    63    64    1
    57    63    69    1
    58    58    59    1
    59    79    78    1
    60    64    65    1
    61    64    67    1
    62    51    50    2
    63    45    48   am
    64    45    46    2
    65    65    66    2
    66    69    68    1
    67    48    49    1
    68    56    53    1
    69    53    52    1
    70    78    75    1
    71    68    67    1
    72    61    60    1
    73    59    60    2
    74    50    49    1
    75    74    75    1
    76    60    62    1
    77    75    76    1
    78    76    77    2
    79    76    82   am
    80    82    83    1
    81    83    86    1
    82    83    84    1
    83    86    87    1
    84    84    85    2
