@<TRIPOS>MOLECULE
tmp/3m08A00.pdb
 136 129 0 0 0
SMALL
GASTEIGER

@<TRIPOS>ATOM
      1  N         -2.4350   24.9710    0.3760 N.3     5  LEU5       -0.1231
      2  CA        -3.6810   25.3560   -0.2650 C.3     5  LEU5        0.1693
      3  C         -3.3480   25.5300   -1.7390 C.2     5  LEU5        0.2592
      4  O         -2.4890   26.3360   -2.0940 O.2     5  LEU5       -0.2718
      5  CB        -4.2040   26.6620    0.3360 C.3     5  LEU5        0.0284
      6  CG        -5.5290   27.2660   -0.1440 C.3     5  LEU5        0.0019
      7  CD1       -6.6590   26.2320   -0.1640 C.3     5  LEU5        0.0001
      8  CD2       -5.9100   28.4590    0.7400 C.3     5  LEU5        0.0001
      9  N         -3.9940   24.7550   -2.6010 N.am    6  VAL6       -0.1966
     10  CA        -3.6060   24.7490   -4.0070 C.3     6  VAL6        0.1727
     11  C         -4.7320   24.2470   -4.9040 C.2     6  VAL6        0.2616
     12  O         -5.5700   23.4470   -4.4830 O.2     6  VAL6       -0.2715
     13  CB        -2.3620   23.8560   -4.2270 C.3     6  VAL6        0.0290
     14  CG1       -2.6870   22.4100   -3.8670 C.3     6  VAL6        0.0023
     15  CG2       -1.8440   23.9550   -5.6740 C.3     6  VAL6        0.0023
     16  N         -4.7450   24.7320   -6.1400 N.am    7  ALA7       -0.1977
     17  CA        -5.5700   24.1500   -7.1910 C.3     7  ALA7        0.1597
     18  C         -4.6390   23.6150   -8.2720 C.2     7  ALA7        0.2287
     19  O         -3.7670   24.3390   -8.7610 O.2     7  ALA7       -0.2864
     20  CB        -6.5140   25.2020   -7.7760 C.3     7  ALA7        0.0319
     21  N          2.4890   33.1400  -15.1190 N.3    18  ASN18      -0.1225
     22  CA         2.2020   33.8260  -13.8620 C.3    18  ASN18       0.1785
     23  C          0.7220   34.1270  -13.6190 C.2    18  ASN18       0.2597
     24  O          0.3830   35.0950  -12.9400 O.2    18  ASN18      -0.2718
     25  CB         3.0560   35.0910  -13.7250 C.3    18  ASN18       0.1169
     26  CG         4.5300   34.7760  -13.5150 C.2    18  ASN18       0.2627
     27  OD1        4.8820   33.8320  -12.8010 O.2    18  ASN18      -0.2716
     28  ND2        5.3980   35.5650  -14.1360 N.am   18  ASN18      -0.0877
     29  N         -0.1440   33.2860  -14.1770 N.am   19  GLN19      -0.1965
     30  CA        -1.5790   33.3790  -13.9320 C.3    19  GLN19       0.1733
     31  C         -2.1640   31.9870  -13.7130 C.2    19  GLN19       0.2616
     32  O         -1.5620   30.9840  -14.1060 O.2    19  GLN19      -0.2715
     33  CB        -2.2760   34.0480  -15.1200 C.3    19  GLN19       0.0408
     34  CG        -1.7390   35.4320  -15.4550 C.3    19  GLN19       0.0908
     35  CD        -2.1070   36.4680  -14.4110 C.2    19  GLN19       0.2608
     36  OE1       -1.2410   37.1540  -13.8690 O.2    19  GLN19      -0.2717
     37  NE2       -3.3990   36.5810  -14.1180 N.am   19  GLN19      -0.0878
     38  N         -3.3350   31.9230  -13.0850 N.am   20  LEU20      -0.1977
     39  CA        -4.0570   30.6540  -13.0050 C.3    20  LEU20       0.1596
     40  C         -4.5360   30.3520  -14.4210 C.2    20  LEU20       0.2287
     41  O         -5.0190   31.2500  -15.1130 O.2    20  LEU20      -0.2864
     42  CB        -5.2630   30.7580  -12.0660 C.3    20  LEU20       0.0297
     43  CG        -4.9890   31.0680  -10.5930 C.3    20  LEU20       0.0022
     44  CD1       -6.2870   31.4040   -9.8700 C.3    20  LEU20       0.0001
     45  CD2       -4.2840   29.9050   -9.9170 C.3    20  LEU20       0.0001
     46  N        -13.6150   28.4080   -6.8220 N.3    27  ASP27      -0.1225
     47  CA       -12.3980   27.9800   -6.1350 C.3    27  ASP27       0.1805
     48  C        -11.7790   29.1250   -5.3490 C.2    27  ASP27       0.2597
     49  O        -11.1980   28.9190   -4.2850 O.2    27  ASP27      -0.2718
     50  CB       -11.3630   27.3940   -7.0930 C.3    27  ASP27       0.1424
     51  CG       -10.1640   26.8230   -6.3560 C.2    27  ASP27       0.3668
     52  OD1      -10.3700   26.0870   -5.3700 O.co2  27  ASP27      -0.2456
     53  OD2       -9.0190   27.1190   -6.7450 O.co2  27  ASP27      -0.2456
     54  N        -11.8940   30.3320   -5.8870 N.am   28  LEU28      -0.1979
     55  CA       -11.3910   31.5080   -5.1930 C.3    28  LEU28       0.1596
     56  C        -12.2580   31.8180   -3.9710 C.2    28  LEU28       0.2287
     57  O        -11.7610   32.3140   -2.9620 O.2    28  LEU28      -0.2864
     58  CB       -11.3040   32.7030   -6.1440 C.3    28  LEU28       0.0297
     59  CG       -10.3950   32.4410   -7.3520 C.3    28  LEU28       0.0022
     60  CD1      -10.2240   33.7000   -8.1990 C.3    28  LEU28       0.0001
     61  CD2       -9.0440   31.9040   -6.8950 C.3    28  LEU28       0.0001
     62  N        -13.6870   29.3740   -2.3150 N.3    30  HIS30      -0.1226
     63  CA       -13.2150   28.2970   -1.4550 C.3    30  HIS30       0.1752
     64  C        -11.9730   28.7610   -0.7020 C.2    30  HIS30       0.2595
     65  O        -11.8650   28.6010    0.5120 O.2    30  HIS30      -0.2718
     66  CB       -12.8910   27.0880   -2.3330 C.3    30  HIS30       0.0759
     67  CG       -12.2130   25.9600   -1.6190 C.ar   30  HIS30       0.0818
     68  ND1      -12.8570   25.1670   -0.6940 N.ar   30  HIS30      -0.2268
     69  CD2      -10.9630   25.4520   -1.7420 C.ar   30  HIS30       0.1154
     70  CE1      -12.0250   24.2380   -0.2560 C.ar   30  HIS30       0.1986
     71  NE2      -10.8700   24.3870   -0.8810 N.ar   30  HIS30      -0.2212
     72  N        -11.0320   29.3320   -1.4440 N.am   31  VAL31      -0.1980
     73  CA        -9.8100   29.8790   -0.8700 C.3    31  VAL31       0.1595
     74  C        -10.1270   30.9320    0.1890 C.2    31  VAL31       0.2287
     75  O         -9.5760   30.9080    1.2880 O.2    31  VAL31      -0.2864
     76  CB        -8.9320   30.5220   -1.9590 C.3    31  VAL31       0.0276
     77  CG1       -7.9170   31.4740   -1.3390 C.3    31  VAL31       0.0022
     78  CG2       -8.2450   29.4390   -2.7840 C.3    31  VAL31       0.0022
     79  N          4.0210   34.7080   -6.9810 N.3    46  THR46      -0.1218
     80  CA         2.6100   34.5430   -6.6860 C.3    46  THR46       0.1862
     81  C          2.0190   35.8600   -6.1790 C.2    46  THR46       0.2287
     82  O          0.9290   36.2570   -6.5980 O.2    46  THR46      -0.2866
     83  CB         2.3550   33.4170   -5.6630 C.3    46  THR46       0.1770
     84  OG1        2.7360   32.1520   -6.2280 O.3    46  THR46      -0.2211
     85  CG2        0.8840   33.3720   -5.3000 C.3    46  THR46       0.0375
     86  N          1.6300   38.4120   -8.9640 N.3    49  SER49      -0.1202
     87  CA         0.5330   38.0150   -9.8370 C.3    49  SER49       0.2020
     88  C         -0.8110   38.5070   -9.3140 C.2    49  SER49       0.2618
     89  O         -1.6100   39.0700  -10.0600 O.2    49  SER49      -0.2717
     90  CB         0.4820   36.5000  -10.0020 C.3    49  SER49       0.2103
     91  OG        -0.6880   36.1380  -10.7150 O.3    49  SER49      -0.2182
     92  N         -1.0600   38.2850   -8.0300 N.am   50  ILE50      -0.1979
     93  CA        -2.2880   38.7580   -7.4020 C.3    50  ILE50       0.1595
     94  C         -2.3380   40.2920   -7.3610 C.2    50  ILE50       0.2287
     95  O         -3.3980   40.8890   -7.5400 O.2    50  ILE50      -0.2864
     96  CB        -2.4510   38.1640   -5.9950 C.3    50  ILE50       0.0276
     97  CG1       -2.6290   36.6440   -6.0910 C.3    50  ILE50       0.0022
     98  CG2       -3.6350   38.7870   -5.2880 C.3    50  ILE50       0.0022
     99  CD1       -2.4920   35.9270   -4.7650 C.3    50  ILE50       0.0001
    100  N         -4.5350   40.1270   -0.0260 N.3    54  LEU54      -0.1245
    101  CA        -5.9420   39.7650    0.0710 C.3    54  LEU54       0.1561
    102  C         -6.4650   40.1970    1.4380 C.2    54  LEU54       0.2260
    103  O         -5.8360   39.9200    2.4620 O.2    54  LEU54      -0.2867
    104  CB        -6.1170   38.2620   -0.1410 C.3    54  LEU54       0.0270
    105  CG        -5.7070   37.8000   -1.5420 C.3    54  LEU54       0.0019
    106  CD1       -5.6760   36.2840   -1.6360 C.3    54  LEU54       0.0001
    107  CD2       -6.6520   38.3940   -2.5790 C.3    54  LEU54       0.0001
    108  N          0.5600   29.1130    0.1350 N.3    92  PHE92      -0.1241
    109  CA        -0.3650   29.6260   -0.8720 C.3    92  PHE92       0.1605
    110  C          0.1610   29.4750   -2.3050 C.2    92  PHE92       0.2264
    111  O         -0.5860   29.6520   -3.2630 O.2    92  PHE92      -0.2867
    112  CB        -0.6490   31.1050   -0.5570 C.3    92  PHE92       0.0534
    113  CG        -1.9220   31.6460   -1.1600 C.ar   92  PHE92      -0.0203
    114  CD1       -3.1480   31.0700   -0.8710 C.ar   92  PHE92      -0.0042
    115  CD2       -1.8930   32.7660   -1.9820 C.ar   92  PHE92      -0.0042
    116  CE1       -4.3170   31.5850   -1.4090 C.ar   92  PHE92      -0.0003
    117  CE2       -3.0600   33.2880   -2.5190 C.ar   92  PHE92      -0.0003
    118  CZ        -4.2720   32.6960   -2.2330 C.ar   92  PHE92      -0.0000
    119  N          5.6350   25.2520   -2.9440 N.3    98  PHE98      -0.1241
    120  CA         5.0450   23.9220   -2.7920 C.3    98  PHE98       0.1605
    121  C          6.1400   22.8550   -2.7290 C.2    98  PHE98       0.2264
    122  O          6.1150   21.9760   -1.8700 O.2    98  PHE98      -0.2867
    123  CB         4.0470   23.6320   -3.9150 C.3    98  PHE98       0.0534
    124  CG         2.7880   24.4680   -3.8430 C.ar   98  PHE98      -0.0203
    125  CD1        2.1800   24.7240   -2.6230 C.ar   98  PHE98      -0.0042
    126  CD2        2.2080   24.9780   -4.9950 C.ar   98  PHE98      -0.0042
    127  CE1        1.0280   25.4920   -2.5470 C.ar   98  PHE98      -0.0003
    128  CE2        1.0590   25.7460   -4.9310 C.ar   98  PHE98      -0.0003
    129  CZ         0.4600   26.0010   -3.6990 C.ar   98  PHE98      -0.0000
    130  N         -7.7860   21.6880   -4.5690 N.3   111  THR111     -0.1218
    131  CA        -8.8570   21.6710   -5.5500 C.3   111  THR111      0.1862
    132  C         -8.3140   21.0010   -6.8020 C.2   111  THR111      0.2287
    133  O         -7.4110   21.5300   -7.4560 O.2   111  THR111     -0.2866
    134  CB        -9.3390   23.0920   -5.8910 C.3   111  THR111      0.1770
    135  OG1       -9.7390   23.7580   -4.6880 O.3   111  THR111     -0.2211
    136  CG2      -10.5180   23.0490   -6.8680 C.3   111  THR111      0.0375
@<TRIPOS>BOND
     1    34    33    1
     2    34    35    1
     3    33    30    1
     4    21    22    1
     5    41    40    2
     6    40    39    1
     7    35    37   am
     8    35    36    2
     9    29    30    1
    10    29    23   am
    11    28    26   am
    12    32    31    2
    13    30    31    1
    14    22    25    1
    15    22    23    1
    16    25    26    1
    17    31    38   am
    18    23    24    2
    19    26    27    2
    20    38    39    1
    21    39    42    1
    22    42    43    1
    23    91    90    1
    24    43    45    1
    25    43    44    1
    26    89    88    2
    27    90    87    1
    28    87    88    1
    29    87    86    1
    30    88    92   am
    31    19    18    2
    32    18    17    1
    33    60    59    1
    34    92    93    1
    35    20    17    1
    36    95    94    2
    37   133   132    2
    38    93    94    1
    39    93    96    1
    40    59    61    1
    41    59    58    1
    42    17    16    1
    43    50    51    1
    44    50    47    1
    45    79    80    1
    46   136   134    1
    47    46    47    1
    48   132   131    1
    49    53    51   ar
    50    80    81    1
    51    80    83    1
    52    82    81    2
    53    51    52   ar
    54    84    83    1
    55    58    55    1
    56    16    11   am
    57    47    48    1
    58    97    96    1
    59    97    99    1
    60    96    98    1
    61   134   131    1
    62   134   135    1
    63    54    48   am
    64    54    55    1
    65    15    13    1
    66    83    85    1
    67   131   130    1
    68    48    49    2
    69    55    56    1
    70   126   128   ar
    71   126   124   ar
    72   128   129   ar
    73    11    12    2
    74    11    10    1
    75    13    10    1
    76    13    14    1
    77    10     9    1
    78    56    57    2
    79   123   124    1
    80   123   120    1
    81   124   125   ar
    82   129   127   ar
    83   111   110    2
    84   119   120    1
    85   120   121    1
    86    78    76    1
    87   121   122    2
    88   125   127   ar
    89     9     3   am
    90   107   105    1
    91   117   118   ar
    92   117   115   ar
    93    66    67    1
    94    66    63    1
    95    62    63    1
    96   110   109    1
    97   118   116   ar
    98     4     3    2
    99   115   113   ar
   100    76    77    1
   101    76    73    1
   102    69    67   ar
   103    69    71   ar
   104     3     2    1
   105   106   105    1
   106    67    68   ar
   107   105   104    1
   108    63    64    1
   109    72    73    1
   110    72    64   am
   111   116   114   ar
   112   113   114   ar
   113   113   112    1
   114    71    70   ar
   115   109   112    1
   116   109   108    1
   117    73    74    1
   118    64    65    2
   119    68    70   ar
   120     2     5    1
   121     2     1    1
   122     7     6    1
   123     6     5    1
   124     6     8    1
   125   104   101    1
   126   100   101    1
   127   101   102    1
   128    74    75    2
   129   102   103    2
