@<TRIPOS>MOLECULE
tmp/3m0eG00.pdb
 176 170 0 0 0
SMALL
GASTEIGER

@<TRIPOS>ATOM
      1  N        155.4590  190.8960   26.7610 N.3     1  GLU1       -0.1231
      2  CA       155.0180  189.6850   27.4380 C.3     1  GLU1        0.1699
      3  C        155.9720  189.3270   28.5720 C.2     1  GLU1        0.2592
      4  O        156.0110  188.1850   29.0170 O.2     1  GLU1       -0.2718
      5  CB       154.9150  188.5110   26.4580 C.3     1  GLU1        0.0402
      6  CG       156.2570  187.8340   26.1340 C.3     1  GLU1        0.1161
      7  CD       157.0630  188.5780   25.0770 C.2     1  GLU1        0.3649
      8  OE1      156.6790  189.7080   24.7180 O.co2   1  GLU1       -0.2457
      9  OE2      158.0820  188.0310   24.6020 O.co2   1  GLU1       -0.2457
     10  N        156.7570  190.2940   29.0300 N.am    2  TYR2       -0.1962
     11  CA       157.5770  190.0800   30.2150 C.3     2  TYR2        0.1771
     12  C        156.9470  190.7720   31.4110 C.2     2  TYR2        0.2619
     13  O        156.3370  191.8250   31.2710 O.2     2  TYR2       -0.2715
     14  CB       159.0360  190.5190   29.9900 C.3     2  TYR2        0.0574
     15  CG       159.7720  189.5600   29.0750 C.ar    2  TYR2       -0.0198
     16  CD1      160.2870  189.9740   27.8470 C.ar    2  TYR2       -0.0009
     17  CD2      159.9060  188.2130   29.4200 C.ar    2  TYR2       -0.0009
     18  CE1      160.9340  189.0680   26.9930 C.ar    2  TYR2        0.0417
     19  CE2      160.5480  187.3090   28.5830 C.ar    2  TYR2        0.0417
     20  CZ       161.0580  187.7380   27.3700 C.ar    2  TYR2        0.1957
     21  OH       161.6900  186.8190   26.5530 O.3     2  TYR2       -0.2866
     22  N        157.0880  190.1700   32.5860 N.am    3  VAL3       -0.1963
     23  CA       156.4510  190.6800   33.7970 C.3     3  VAL3        0.1727
     24  C        157.3890  191.4580   34.7040 C.2     3  VAL3        0.2616
     25  O        158.3740  190.9200   35.1990 O.2     3  VAL3       -0.2715
     26  CB       155.8580  189.5330   34.6100 C.3     3  VAL3        0.0290
     27  CG1      155.4520  190.0110   35.9840 C.3     3  VAL3        0.0023
     28  CG2      154.6980  188.9140   33.8660 C.3     3  VAL3        0.0023
     29  N        157.0710  192.7240   34.9290 N.am    4  PHE4       -0.1974
     30  CA       157.7900  193.5420   35.8960 C.3     4  PHE4        0.1639
     31  C        156.7950  194.2530   36.8230 C.2     4  PHE4        0.2290
     32  O        156.1970  195.2570   36.4330 O.2     4  PHE4       -0.2864
     33  CB       158.6150  194.5940   35.1700 C.3     4  PHE4        0.0560
     34  CG       159.6210  194.0350   34.2120 C.ar    4  PHE4       -0.0200
     35  CD1      159.2750  193.7570   32.9110 C.ar    4  PHE4       -0.0042
     36  CD2      160.9280  193.8170   34.6090 C.ar    4  PHE4       -0.0042
     37  CE1      160.2100  193.2570   32.0240 C.ar    4  PHE4       -0.0003
     38  CE2      161.8630  193.3200   33.7280 C.ar    4  PHE4       -0.0003
     39  CZ       161.5010  193.0370   32.4350 C.ar    4  PHE4       -0.0000
     40  N        161.8750  195.5120   40.2900 N.3     9  MET9       -0.1245
     41  CA       161.8030  195.1790   38.8750 C.3     9  MET9        0.1570
     42  C        161.3290  196.3800   38.0730 C.2     9  MET9        0.2261
     43  O        161.7860  196.6130   36.9640 O.2     9  MET9       -0.2867
     44  CB       160.9210  193.9520   38.6090 C.3     9  MET9        0.0387
     45  CG       161.4830  192.6290   39.1480 C.3     9  MET9        0.0595
     46  SD       163.2310  192.3420   38.7890 S.3     9  MET9       -0.1393
     47  CE       163.2180  192.1930   37.0180 C.3     9  MET9        0.0692
     48  N        170.7250  182.2440   39.6440 N.3    32  SER32      -0.1202
     49  CA       170.2450  181.5190   38.4850 C.3    32  SER32       0.2020
     50  C        168.7200  181.6170   38.3600 C.2    32  SER32       0.2619
     51  O        167.9790  181.2970   39.2950 O.2    32  SER32      -0.2717
     52  CB       170.6620  180.0550   38.5710 C.3    32  SER32       0.2103
     53  OG       170.0960  179.3180   37.5080 O.3    32  SER32      -0.2182
     54  N        168.2660  182.0600   37.2000 N.am   33  GLY33      -0.1942
     55  CA       166.8520  182.0990   36.9140 C.3    33  GLY33       0.2014
     56  C        166.1440  183.4080   37.2110 C.2    33  GLY33       0.2639
     57  O        164.9320  183.4650   37.1100 O.2    33  GLY33      -0.2714
     58  N        166.8700  184.4500   37.5880 N.am   34  VAL34      -0.1963
     59  CA       166.2050  185.6870   37.9620 C.3    34  VAL34       0.1727
     60  C        165.9330  186.5840   36.7830 C.2    34  VAL34       0.2617
     61  O        165.2490  187.5830   36.9360 O.2    34  VAL34      -0.2715
     62  CB       166.9840  186.4980   38.9870 C.3    34  VAL34       0.0290
     63  CG1      167.3060  185.6300   40.1990 C.3    34  VAL34       0.0023
     64  CG2      168.2490  187.1020   38.3560 C.3    34  VAL34       0.0023
     65  N        166.4730  186.2400   35.6180 N.am   35  GLY35      -0.1940
     66  CA       166.1470  186.9380   34.3790 C.3    35  GLY35       0.2014
     67  C        167.2490  187.7660   33.7400 C.2    35  GLY35       0.2639
     68  O        166.9730  188.7540   33.0430 O.2    35  GLY35      -0.2714
     69  N        168.4990  187.3740   33.9680 N.am   36  LYS36      -0.1963
     70  CA       169.6190  188.1640   33.4800 C.3    36  LYS36       0.1728
     71  C        169.6300  188.2140   31.9580 C.2    36  LYS36       0.2616
     72  O        169.8390  189.2670   31.3750 O.2    36  LYS36      -0.2715
     73  CB       170.9320  187.6210   34.0110 C.3    36  LYS36       0.0311
     74  CG       171.0290  187.6390   35.5210 C.3    36  LYS36       0.0038
     75  CD       172.3910  187.1060   36.0110 C.3    36  LYS36       0.0206
     76  CE       172.5370  185.6390   35.6950 C.3    36  LYS36       0.1093
     77  NZ       171.6290  184.8580   36.5280 N.3    36  LYS36      -0.1314
     78  N        169.3870  187.0830   31.3130 N.am   37  GLU37      -0.1963
     79  CA       169.3720  187.0510   29.8560 C.3    37  GLU37       0.1733
     80  C        168.1670  187.8250   29.2800 C.2    37  GLU37       0.2616
     81  O        168.2600  188.4890   28.2360 O.2    37  GLU37      -0.2715
     82  CB       169.3730  185.6040   29.3660 C.3    37  GLU37       0.0429
     83  CG       169.2050  185.4700   27.8730 C.3    37  GLU37       0.1163
     84  CD       170.3370  184.7250   27.2050 C.2    37  GLU37       0.3649
     85  OE1      171.2390  184.2380   27.9260 O.co2  37  GLU37      -0.2457
     86  OE2      170.3130  184.6300   25.9560 O.co2  37  GLU37      -0.2457
     87  N        167.0250  187.7280   29.9510 N.am   38  VAL38      -0.1977
     88  CA       165.8680  188.5110   29.5650 C.3    38  VAL38       0.1596
     89  C        166.2080  189.9960   29.6000 C.2    38  VAL38       0.2287
     90  O        165.9150  190.7230   28.6580 O.2    38  VAL38      -0.2864
     91  CB       164.6670  188.2380   30.4900 C.3    38  VAL38       0.0276
     92  CG1      163.5810  189.2480   30.2490 C.3    38  VAL38       0.0022
     93  CG2      164.1370  186.8460   30.2400 C.3    38  VAL38       0.0022
     94  N        178.3310  186.2060   28.5200 N.3   101  ASP101     -0.1239
     95  CA       177.6610  185.4610   29.5840 C.3   101  ASP101      0.1674
     96  C        178.6710  184.6730   30.4470 C.2   101  ASP101      0.2266
     97  O        179.7340  184.2810   29.9690 O.2   101  ASP101     -0.2867
     98  CB       176.6350  184.5110   28.9470 C.3   101  ASP101      0.1410
     99  CG       175.6240  183.9570   29.9450 C.2   101  ASP101      0.3668
    100  OD1      175.5720  184.4640   31.0980 O.co2 101  ASP101     -0.2456
    101  OD2      174.8760  183.0070   29.5730 O.co2 101  ASP101     -0.2456
    102  N        176.0420  184.7930   37.4260 N.3   143  ASN143     -0.1240
    103  CA       175.3380  184.4400   38.6370 C.3   143  ASN143      0.1653
    104  C        176.3010  184.2440   39.7820 C.2   143  ASN143      0.2266
    105  O        175.9280  183.6910   40.8170 O.2   143  ASN143     -0.2867
    106  CB       174.4320  183.2070   38.4440 C.3   143  ASN143      0.1155
    107  CG       175.1790  181.9780   37.9130 C.2   143  ASN143      0.2627
    108  OD1      176.2550  181.6220   38.4030 O.2   143  ASN143     -0.2716
    109  ND2      174.5830  181.3100   36.9140 N.am  143  ASN143     -0.0877
    110  N        160.9730  189.4300   45.7480 N.3   176  ARG176     -0.1245
    111  CA       160.1590  190.1500   44.7760 C.3   176  ARG176      0.1563
    112  C        158.7560  189.5600   44.8140 C.2   176  ARG176      0.2260
    113  O        158.1580  189.3110   43.7640 O.2   176  ARG176     -0.2867
    114  CB       160.6970  189.9540   43.3600 C.3   176  ARG176      0.0307
    115  CG       162.0010  190.5860   43.0600 C.3   176  ARG176      0.0489
    116  CD       162.7400  189.7820   41.9960 C.3   176  ARG176      0.2205
    117  NE       162.0100  189.6570   40.7420 N.pl3 176  ARG176     -0.0865
    118  CZ       162.4720  189.0110   39.6750 C.cat 176  ARG176      0.5346
    119  NH1      163.6650  188.4360   39.7130 N.pl3 176  ARG176      0.1354
    120  NH2      161.7530  188.9450   38.5610 N.pl3 176  ARG176      0.1354
    121  N        153.5840  186.3830   37.6430 N.3   183  LEU183     -0.1245
    122  CA       154.4000  185.4350   36.8790 C.3   183  LEU183      0.1561
    123  C        153.6910  184.0930   36.7400 C.2   183  LEU183      0.2260
    124  O        153.5100  183.6020   35.6350 O.2   183  LEU183     -0.2867
    125  CB       155.7880  185.2400   37.5010 C.3   183  LEU183      0.0270
    126  CG       156.8170  186.3430   37.2460 C.3   183  LEU183      0.0019
    127  CD1      157.9690  186.1680   38.1990 C.3   183  LEU183      0.0001
    128  CD2      157.2800  186.3280   35.7950 C.3   183  LEU183      0.0001
    129  N        150.8920  184.4720   34.3420 N.3   186  HIS186     -0.1226
    130  CA       151.4110  184.5900   32.9820 C.3   186  HIS186      0.1752
    131  C        151.7540  183.2090   32.3910 C.2   186  HIS186      0.2596
    132  O        151.3890  182.9060   31.2540 O.2   186  HIS186     -0.2718
    133  CB       152.6060  185.5440   32.9600 C.3   186  HIS186      0.0759
    134  CG       153.2680  185.6640   31.6290 C.ar  186  HIS186      0.0818
    135  ND1      154.4570  185.0340   31.3250 N.ar  186  HIS186     -0.2268
    136  CD2      152.9140  186.3490   30.5170 C.ar  186  HIS186      0.1154
    137  CE1      154.8020  185.3200   30.0850 C.ar  186  HIS186      0.1986
    138  NE2      153.8820  186.1190   29.5720 N.ar  186  HIS186     -0.2212
    139  N        152.4130  182.3560   33.1690 N.am  187  PHE187     -0.1976
    140  CA       152.7740  181.0320   32.6710 C.3   187  PHE187      0.1639
    141  C        151.5500  180.1480   32.5300 C.2   187  PHE187      0.2290
    142  O        151.4100  179.4310   31.5360 O.2   187  PHE187     -0.2864
    143  CB       153.8300  180.3500   33.5570 C.3   187  PHE187      0.0560
    144  CG       155.1290  181.0890   33.6130 C.ar  187  PHE187     -0.0200
    145  CD1      155.7370  181.5210   32.4520 C.ar  187  PHE187     -0.0042
    146  CD2      155.7480  181.3530   34.8320 C.ar  187  PHE187     -0.0042
    147  CE1      156.9200  182.2180   32.4980 C.ar  187  PHE187     -0.0003
    148  CE2      156.9350  182.0560   34.8830 C.ar  187  PHE187     -0.0003
    149  CZ       157.5180  182.4950   33.7090 C.ar  187  PHE187     -0.0000
    150  N        162.8540  182.5220   38.6460 N.3   219  VAL219     -0.1231
    151  CA       161.7890  182.5290   37.6650 C.3   219  VAL219      0.1692
    152  C        161.7170  181.2290   36.8600 C.2   219  VAL219      0.2591
    153  O        160.6270  180.7370   36.5110 O.2   219  VAL219     -0.2718
    154  CB       161.8400  183.7570   36.7540 C.3   219  VAL219      0.0266
    155  CG1      160.6110  183.7900   35.8310 C.3   219  VAL219      0.0020
    156  CG2      161.8780  185.0200   37.6080 C.3   219  VAL219      0.0020
    157  N        162.8730  180.6470   36.5880 N.am  220  ARG220     -0.1980
    158  CA       162.9000  179.4110   35.8210 C.3   220  ARG220      0.1597
    159  C        162.2580  178.2680   36.5930 C.2   220  ARG220      0.2287
    160  O        161.4790  177.5010   36.0120 O.2   220  ARG220     -0.2864
    161  CB       164.3150  179.0500   35.3770 C.3   220  ARG220      0.0334
    162  CG       164.3910  177.7030   34.6860 C.3   220  ARG220      0.0492
    163  CD       165.7810  177.3520   34.2710 C.3   220  ARG220      0.2205
    164  NE       166.2510  178.1760   33.1730 N.pl3 220  ARG220     -0.0865
    165  CZ       167.0930  179.1990   33.3090 C.cat 220  ARG220      0.5346
    166  NH1      167.5540  179.5470   34.5060 N.pl3 220  ARG220      0.1354
    167  NH2      167.4640  179.8880   32.2410 N.pl3 220  ARG220      0.1354
    168  N        158.4580  178.9040   36.4810 N.3   223  LYS223     -0.1245
    169  CA       157.9930  178.4660   35.1630 C.3   223  LYS223      0.1561
    170  C        157.9330  176.9290   35.0050 C.2   223  LYS223      0.2260
    171  O        157.0340  176.4050   34.3760 O.2   223  LYS223     -0.2867
    172  CB       158.8730  179.0930   34.0880 C.3   223  LYS223      0.0271
    173  CG       158.5280  178.7070   32.7020 C.3   223  LYS223      0.0035
    174  CD       159.2770  179.5850   31.7200 C.3   223  LYS223      0.0206
    175  CE       159.5140  178.8750   30.3850 C.3   223  LYS223      0.1093
    176  NZ       160.1660  177.5340   30.5780 N.3   223  LYS223     -0.1314
@<TRIPOS>BOND
     1     9     7   ar
     2     8     7   ar
     3     7     6    1
     4    86    84   ar
     5     6     5    1
     6     5     2    1
     7    21    20    1
     8     1     2    1
     9    18    20   ar
    10    18    16   ar
    11    84    83    1
    12    84    85   ar
    13    20    19   ar
    14     2     3    1
    15    16    15   ar
    16    83    82    1
    17    81    80    2
    18    94    95    1
    19     3     4    2
    20     3    10   am
    21    19    17   ar
    22    90    89    2
    23    98    95    1
    24    98    99    1
    25    10    11    1
    26    15    17   ar
    27    15    14    1
    28    80    79    1
    29    80    87   am
    30    82    79    1
    31    88    89    1
    32    88    87    1
    33    88    91    1
    34   138   137   ar
    35   138   136   ar
    36   101    99   ar
    37    95    96    1
    38    79    78    1
    39    99   100   ar
    40    97    96    2
    41    14    11    1
    42   137   135   ar
    43    11    12    1
    44    93    91    1
    45    92    91    1
    46   175   176    1
    47   175   174    1
    48   136   134   ar
    49   132   131    2
    50    13    12    2
    51    78    71   am
    52   135   134   ar
    53    72    71    2
    54    12    22   am
    55   142   141    2
    56   134   133    1
    57   174   173    1
    58    71    70    1
    59    37    39   ar
    60    37    35   ar
    61   167   165    1
    62   131   130    1
    63   131   139   am
    64    39    38   ar
    65   145   147   ar
    66   145   144   ar
    67   147   149   ar
    68   141   140    1
    69    22    23    1
    70   140   139    1
    71   140   143    1
    72   173   172    1
    73    35    34   ar
    74   133   130    1
    75   130   129    1
    76    68    67    2
    77   164   165    2
    78   164   163    1
    79   165   166    1
    80    70    69    1
    81    70    73    1
    82   143   144    1
    83   144   146   ar
    84   149   148   ar
    85    38    36   ar
    86    67    69   am
    87    67    66    1
    88    23    26    1
    89    23    24    1
    90    28    26    1
    91    73    74    1
    92   172   169    1
    93    34    36   ar
    94    34    33    1
    95   163   162    1
    96   171   170    2
    97    66    65    1
    98    26    27    1
    99   162   161    1
   100    24    29   am
   101    24    25    2
   102   146   148   ar
   103    29    30    1
   104   170   169    1
   105   169   168    1
   106    33    30    1
   107   161   158    1
   108    74    75    1
   109    65    60   am
   110   124   123    2
   111    76    75    1
   112    76    77    1
   113   128   126    1
   114   158   157    1
   115   158   159    1
   116   155   154    1
   117    30    31    1
   118   160   159    2
   119    32    31    2
   120   153   152    2
   121   157   152   am
   122   123   122    1
   123   154   156    1
   124   154   151    1
   125    60    61    2
   126    60    59    1
   127   152   151    1
   128   122   125    1
   129   122   121    1
   130   109   107   am
   131    55    54    1
   132    55    56    1
   133    43    42    2
   134    47    46    1
   135    57    56    2
   136    54    50   am
   137    56    58   am
   138   126   125    1
   139   126   127    1
   140   102   103    1
   141    53    52    1
   142    58    59    1
   143   151   150    1
   144   107   108    2
   145   107   106    1
   146    59    62    1
   147    42    41    1
   148    64    62    1
   149    50    49    1
   150    50    51    2
   151   106   103    1
   152    49    52    1
   153    49    48    1
   154   120   118    1
   155    44    41    1
   156    44    45    1
   157   103   104    1
   158    46    45    1
   159    41    40    1
   160    62    63    1
   161   118   119    1
   162   118   117    2
   163   104   105    2
   164   117   116    1
   165   116   115    1
   166   115   114    1
   167   114   111    1
   168   113   112    2
   169   111   112    1
   170   111   110    1
