@<TRIPOS>MOLECULE
tmp/3m0jA00.pdb
 146 139 0 0 0
SMALL
GASTEIGER

@<TRIPOS>ATOM
      1  N         21.3390    2.6790  -29.7230 N.3    44  TYR44      -0.1241
      2  CA        20.4010    2.6400  -28.6240 C.3    44  TYR44       0.1605
      3  C         19.1130    3.3470  -29.0420 C.2    44  TYR44       0.2264
      4  O         19.1640    4.4580  -29.5710 O.2    44  TYR44      -0.2867
      5  CB        20.9980    3.3320  -27.4010 C.3    44  TYR44       0.0534
      6  CG        19.9690    3.6120  -26.3570 C.ar   44  TYR44      -0.0201
      7  CD1       19.3200    2.5650  -25.7000 C.ar   44  TYR44      -0.0009
      8  CD2       19.6160    4.9160  -26.0390 C.ar   44  TYR44      -0.0009
      9  CE1       18.3490    2.8150  -24.7360 C.ar   44  TYR44       0.0417
     10  CE2       18.6520    5.1700  -25.0840 C.ar   44  TYR44       0.0417
     11  CZ        18.0280    4.1230  -24.4400 C.ar   44  TYR44       0.1957
     12  OH        17.0770    4.3940  -23.5030 O.3    44  TYR44      -0.2866
     13  N         16.0830    5.2580  -27.7120 N.3    46  THR46      -0.1203
     14  CA        15.5550    5.9770  -26.5790 C.3    46  THR46       0.1994
     15  C         14.0330    5.9290  -26.5320 C.2    46  THR46       0.2618
     16  O         13.3630    6.1550  -27.5470 O.2    46  THR46      -0.2717
     17  CB        16.0130    7.4580  -26.6170 C.3    46  THR46       0.1784
     18  OG1       15.1680    8.2300  -25.7620 O.3    46  THR46      -0.2211
     19  CG2       15.9130    8.0460  -28.0230 C.3    46  THR46       0.0376
     20  N         13.4910    5.6210  -25.3570 N.am   47  GLY47      -0.1942
     21  CA        12.0480    5.6700  -25.1520 C.3    47  GLY47       0.2014
     22  C         11.5510    7.1080  -25.1880 C.2    47  GLY47       0.2638
     23  O         10.5070    7.4080  -25.7970 O.2    47  GLY47      -0.2714
     24  N         12.2920    8.0120  -24.5450 N.am   48  ALA48      -0.1977
     25  CA        11.9170    9.4250  -24.5610 C.3    48  ALA48       0.1597
     26  C         11.8850    9.9620  -25.9910 C.2    48  ALA48       0.2287
     27  O         10.9500   10.6740  -26.3780 O.2    48  ALA48      -0.2864
     28  CB        12.8910   10.2350  -23.7230 C.3    48  ALA48       0.0319
     29  N          7.9130   12.0400  -22.1170 N.3    59  ASP59      -0.1239
     30  CA         8.2760   10.6960  -21.6680 C.3    59  ASP59       0.1674
     31  C          7.5630   10.4060  -20.3520 C.2    59  ASP59       0.2266
     32  O          8.1860   10.3880  -19.2780 O.2    59  ASP59      -0.2867
     33  CB         9.7940   10.6490  -21.5000 C.3    59  ASP59       0.1410
     34  CG        10.3200    9.2580  -21.1860 C.2    59  ASP59       0.3668
     35  OD1        9.6770    8.2500  -21.5480 O.co2  59  ASP59      -0.2456
     36  OD2       11.4010    9.1930  -20.5830 O.co2  59  ASP59      -0.2456
     37  N         15.2160    0.6820  -25.1770 N.3    88  ASP88      -0.1239
     38  CA        14.4720    0.9480  -23.9540 C.3    88  ASP88       0.1674
     39  C         13.2460    0.0370  -23.9260 C.2    88  ASP88       0.2266
     40  O         12.6570   -0.1440  -24.8850 O.2    88  ASP88      -0.2867
     41  CB        13.9980    2.3980  -24.0350 C.3    88  ASP88       0.1410
     42  CG        13.5250    2.9510  -22.7270 C.2    88  ASP88       0.3668
     43  OD1       13.2630    2.1740  -21.7770 O.co2  88  ASP88      -0.2456
     44  OD2       13.4040    4.1990  -22.6680 O.co2  88  ASP88      -0.2456
     45  N         16.7740   -2.4010  -21.8000 N.3   115  HIS115     -0.1241
     46  CA        16.8170   -2.0700  -20.3750 C.3   115  HIS115      0.1621
     47  C         15.4270   -2.0010  -19.7520 C.2   115  HIS115      0.2264
     48  O         14.4920   -1.4240  -20.3290 O.2   115  HIS115     -0.2867
     49  CB        17.6780   -0.8360  -20.0680 C.3   115  HIS115      0.0745
     50  CG        17.1940    0.4550  -20.6630 C.ar  115  HIS115      0.0817
     51  ND1       16.1200    1.1530  -20.1650 N.ar  115  HIS115     -0.2268
     52  CD2       17.7120    1.2120  -21.6650 C.ar  115  HIS115      0.1154
     53  CE1       15.9860    2.2890  -20.8430 C.ar  115  HIS115      0.1986
     54  NE2       16.9290    2.3400  -21.7560 N.ar  115  HIS115     -0.2212
     55  N          5.3360    5.7510  -15.0930 N.3   123  LYS123     -0.1231
     56  CA         6.7350    6.1910  -15.0030 C.3   123  LYS123      0.1693
     57  C          7.0020    7.5730  -15.6090 C.2   123  LYS123      0.2592
     58  O          6.1020    8.2330  -16.1320 O.2   123  LYS123     -0.2718
     59  CB         7.6350    5.1710  -15.7010 C.3   123  LYS123      0.0285
     60  CG         7.3640    5.0800  -17.2000 C.3   123  LYS123      0.0035
     61  CD         8.5780    4.6120  -17.9710 C.3   123  LYS123      0.0206
     62  CE         9.6400    5.7160  -18.0670 C.3   123  LYS123      0.1093
     63  NZ        10.9400    5.1230  -18.5110 N.3   123  LYS123     -0.1314
     64  N          8.2630    7.9900  -15.5570 N.am  124  ARG124     -0.1966
     65  CA         8.6700    9.2860  -16.0890 C.3   124  ARG124      0.1729
     66  C         10.1560    9.2660  -16.4020 C.2   124  ARG124      0.2616
     67  O         10.8970    8.4410  -15.8590 O.2   124  ARG124     -0.2715
     68  CB         8.3530   10.4190  -15.1000 C.3   124  ARG124      0.0348
     69  CG         9.2150   10.4380  -13.8380 C.3   124  ARG124      0.0492
     70  CD         8.6770   11.4540  -12.8220 C.3   124  ARG124      0.2205
     71  NE         7.3040   11.1440  -12.4160 N.pl3 124  ARG124     -0.0865
     72  CZ         6.5300   11.9460  -11.6870 C.cat 124  ARG124      0.5346
     73  NH1        6.9850   13.1230  -11.2690 N.pl3 124  ARG124      0.1354
     74  NH2        5.2930   11.5710  -11.3750 N.pl3 124  ARG124      0.1354
     75  N         10.5930   10.1680  -17.2790 N.am  125  CYS125     -0.1954
     76  CA        12.0160   10.2820  -17.6010 C.3   125  CYS125      0.1843
     77  C         12.8390   10.2720  -16.3090 C.2   125  CYS125      0.2626
     78  O         12.5030   10.9700  -15.3520 O.2   125  CYS125     -0.2714
     79  CB        12.2710   11.5780  -18.3740 C.3   125  CYS125      0.0997
     80  SG        14.0200   11.9140  -18.6890 S.3   125  CYS125     -0.0797
     81  N         13.9120    9.4820  -16.2850 N.am  126  GLY126     -0.1940
     82  CA        14.6800    9.2590  -15.0710 C.3   126  GLY126      0.2014
     83  C         15.3520   10.4920  -14.4900 C.2   126  GLY126      0.2638
     84  O         15.8390   10.4690  -13.3640 O.2   126  GLY126     -0.2714
     85  N         15.3950   11.5670  -15.2670 N.am  127  HIS127     -0.1973
     86  CA        16.0020   12.8130  -14.8140 C.3   127  HIS127      0.1656
     87  C         14.9510   13.8150  -14.3170 C.2   127  HIS127      0.2291
     88  O         15.2760   14.9540  -13.9850 O.2   127  HIS127     -0.2864
     89  CB        16.8620   13.4180  -15.9310 C.3   127  HIS127      0.0771
     90  CG        18.2350   12.8250  -16.0200 C.ar  127  HIS127      0.0820
     91  ND1       18.4580   11.4760  -16.2040 N.ar  127  HIS127     -0.2267
     92  CD2       19.4580   13.4020  -15.9580 C.ar  127  HIS127      0.1154
     93  CE1       19.7600   11.2450  -16.2330 C.ar  127  HIS127      0.1986
     94  NE2       20.3880   12.3980  -16.0810 N.ar  127  HIS127     -0.2212
     95  N         17.8110   -1.9710  -15.0820 N.3   162  ARG162     -0.1245
     96  CA        17.9520   -0.5720  -14.7310 C.3   162  ARG162      0.1563
     97  C         17.2630   -0.3120  -13.4040 C.2   162  ARG162      0.2260
     98  O         16.1520   -0.7840  -13.1770 O.2   162  ARG162     -0.2867
     99  CB        17.3210    0.2920  -15.8200 C.3   162  ARG162      0.0307
    100  CG        17.1310    1.7470  -15.3990 C.3   162  ARG162      0.0489
    101  CD        16.6700    2.6080  -16.5910 C.3   162  ARG162      0.2205
    102  NE        16.0270    3.8410  -16.1270 N.pl3 162  ARG162     -0.0865
    103  CZ        15.7350    4.8680  -16.9240 C.cat 162  ARG162      0.5346
    104  NH1       16.0710    4.8410  -18.2210 N.pl3 162  ARG162      0.1354
    105  NH2       15.1070    5.9290  -16.4260 N.pl3 162  ARG162      0.1354
    106  N         20.7390    4.3490  -12.8720 N.3   192  GLU192     -0.1245
    107  CA        20.2980    5.5440  -13.5940 C.3   192  GLU192      0.1567
    108  C         20.5940    6.8140  -12.7980 C.2   192  GLU192      0.2260
    109  O         20.4220    6.8530  -11.5690 O.2   192  GLU192     -0.2867
    110  CB        18.8000    5.4570  -13.8910 C.3   192  GLU192      0.0388
    111  CG        18.1590    6.7630  -14.2970 C.3   192  GLU192      0.1160
    112  CD        18.3060    7.0720  -15.7660 C.2   192  GLU192      0.3649
    113  OE1       19.0150    6.3220  -16.4930 O.co2 192  GLU192     -0.2457
    114  OE2       17.7000    8.0820  -16.2080 O.co2 192  GLU192     -0.2457
    115  N         24.2680    5.5360  -18.5960 N.3   215  ASN215     -0.1240
    116  CA        23.3280    6.2890  -19.4210 C.3   215  ASN215      0.1653
    117  C         23.6330    7.7870  -19.3950 C.2   215  ASN215      0.2266
    118  O         23.3140    8.4960  -18.4320 O.2   215  ASN215     -0.2867
    119  CB        21.8920    6.0420  -18.9780 C.3   215  ASN215      0.1155
    120  CG        20.8920    6.8930  -19.7430 C.2   215  ASN215      0.2627
    121  OD1       21.1740    7.3440  -20.8480 O.2   215  ASN215     -0.2716
    122  ND2       19.7320    7.1360  -19.1470 N.am  215  ASN215     -0.0877
    123  N         22.8670   11.3740  -20.3280 N.3   217  VAL217     -0.1245
    124  CA        21.7000   12.1460  -20.7400 C.3   217  VAL217      0.1561
    125  C         22.1480   13.5610  -21.0540 C.2   217  VAL217      0.2260
    126  O         22.4700   14.3260  -20.1560 O.2   217  VAL217     -0.2867
    127  CB        20.6150   12.1470  -19.6530 C.3   217  VAL217      0.0252
    128  CG1       19.4560   13.0510  -20.0460 C.3   217  VAL217      0.0019
    129  CG2       20.1140   10.7250  -19.4280 C.3   217  VAL217      0.0019
    130  N         21.4470    8.9000  -24.6200 N.3   241  SER241     -0.1202
    131  CA        20.0040    8.9090  -24.8460 C.3   241  SER241      0.2020
    132  C         19.4780   10.0370  -25.7230 C.2   241  SER241      0.2618
    133  O         18.5710    9.8210  -26.5240 O.2   241  SER241     -0.2717
    134  CB        19.2810    8.9310  -23.5050 C.3   241  SER241      0.2103
    135  OG        19.4250    7.6750  -22.8800 O.3   241  SER241     -0.2182
    136  N         20.0330   11.2360  -25.5530 N.am  242  PHE242     -0.1975
    137  CA        19.5380   12.4300  -26.2450 C.3   242  PHE242      0.1639
    138  C         20.4940   12.9340  -27.3170 C.2   242  PHE242      0.2290
    139  O         20.3720   14.0730  -27.7820 O.2   242  PHE242     -0.2864
    140  CB        19.2200   13.5570  -25.2510 C.3   242  PHE242      0.0560
    141  CG        17.9510   13.3270  -24.4910 C.ar  242  PHE242     -0.0200
    142  CD1       16.7990   14.0310  -24.8070 C.ar  242  PHE242     -0.0042
    143  CD2       17.8980   12.3760  -23.4850 C.ar  242  PHE242     -0.0042
    144  CE1       15.6250   13.8080  -24.1180 C.ar  242  PHE242     -0.0003
    145  CE2       16.7220   12.1380  -22.8000 C.ar  242  PHE242     -0.0003
    146  CZ        15.5800   12.8590  -23.1150 C.ar  242  PHE242     -0.0000
@<TRIPOS>BOND
     1     1     2    1
     2     4     3    2
     3     3     2    1
     4     2     5    1
     5    19    17    1
     6   139   138    2
     7    13    14    1
     8    16    15    2
     9     5     6    1
    10   138   137    1
    11    17    14    1
    12    17    18    1
    13    14    15    1
    14    15    20   am
    15   133   132    2
    16    27    26    2
    17     6     8   ar
    18     6     7   ar
    19   137   136    1
    20   137   140    1
    21     8    10   ar
    22    26    25    1
    23    23    22    2
    24   132   136   am
    25   132   131    1
    26     7     9   ar
    27    20    21    1
    28   140   141    1
    29    22    21    1
    30    22    24   am
    31    37    38    1
    32    10    11   ar
    33    40    39    2
    34   131   130    1
    35   131   134    1
    36   142   141   ar
    37   142   144   ar
    38     9    11   ar
    39    25    24    1
    40    25    28    1
    41   141   143   ar
    42    11    12    1
    43   144   146   ar
    44    41    38    1
    45    41    42    1
    46    38    39    1
    47   134   135    1
    48   143   145   ar
    49   146   145   ar
    50    42    44   ar
    51    42    43   ar
    52    29    30    1
    53    45    46    1
    54    54    52   ar
    55    54    53   ar
    56    30    33    1
    57    30    31    1
    58    52    50   ar
    59    35    34   ar
    60    33    34    1
    61    34    36   ar
    62   125   124    1
    63   125   126    2
    64   121   120    2
    65    53    51   ar
    66   124   123    1
    67   124   127    1
    68    50    51   ar
    69    50    49    1
    70    46    49    1
    71    46    47    1
    72    31    32    2
    73    48    47    2
    74   128   127    1
    75   120   122   am
    76   120   119    1
    77   127   129    1
    78   116   117    1
    79   116   119    1
    80   116   115    1
    81   117   118    2
    82    80    79    1
    83    63    62    1
    84    79    76    1
    85   104   103    1
    86    62    61    1
    87    61    60    1
    88    76    75    1
    89    76    77    1
    90    75    66   am
    91    60    59    1
    92   103   105    1
    93   103   102    2
    94   101   102    1
    95   101   100    1
    96   113   112   ar
    97    66    65    1
    98    66    67    2
    99    77    81   am
   100    77    78    2
   101    81    82    1
   102    93    91   ar
   103    93    94   ar
   104   114   112   ar
   105    91    90   ar
   106    58    57    2
   107    65    64    1
   108    65    68    1
   109    94    92   ar
   110    90    92   ar
   111    90    89    1
   112    89    86    1
   113    99   100    1
   114    99    96    1
   115   112   111    1
   116    59    56    1
   117    57    64   am
   118    57    56    1
   119    85    86    1
   120    85    83   am
   121    68    69    1
   122    55    56    1
   123    95    96    1
   124    82    83    1
   125    86    87    1
   126    96    97    1
   127    83    84    2
   128    87    88    2
   129   111   110    1
   130   110   107    1
   131    69    70    1
   132   107   106    1
   133   107   108    1
   134    97    98    2
   135    70    71    1
   136   108   109    2
   137    71    72    2
   138    72    74    1
   139    72    73    1
