@<TRIPOS>MOLECULE
tmp/3m0vC00.pdb
 147 143 0 0 0
SMALL
GASTEIGER

@<TRIPOS>ATOM
      1  N        -28.9960  -17.0330   50.4490 N.3    55  TRP55      -0.1241
      2  CA       -27.7310  -16.8940   49.7410 C.3    55  TRP55       0.1605
      3  C        -27.1690  -15.4780   49.7870 C.2    55  TRP55       0.2264
      4  O        -26.0740  -15.2220   49.2870 O.2    55  TRP55      -0.2867
      5  CB       -27.8970  -17.3610   48.2900 C.3    55  TRP55       0.0550
      6  CG       -28.8700  -16.5610   47.4780 C.ar   55  TRP55       0.0003
      7  CD1      -28.5920  -15.4680   46.7070 C.ar   55  TRP55       0.0946
      8  CD2      -30.2760  -16.8020   47.3380 C.ar   55  TRP55       0.0152
      9  NE1      -29.7340  -15.0180   46.0910 N.ar   55  TRP55      -0.2442
     10  CE2      -30.7830  -15.8190   46.4610 C.ar   55  TRP55       0.0810
     11  CE3      -31.1560  -17.7570   47.8670 C.ar   55  TRP55       0.0012
     12  CZ2      -32.1320  -15.7600   46.1000 C.ar   55  TRP55       0.0191
     13  CZ3      -32.4990  -17.6980   47.5080 C.ar   55  TRP55       0.0001
     14  CH2      -32.9730  -16.7060   46.6320 C.ar   55  TRP55       0.0015
     15  N        -32.6360  -22.0500   49.0150 N.3    99  HIS99      -0.1241
     16  CA       -32.0820  -22.4870   47.7400 C.3    99  HIS99       0.1621
     17  C        -31.5500  -23.9080   47.9140 C.2    99  HIS99       0.2264
     18  O        -30.7770  -24.1760   48.8310 O.2    99  HIS99      -0.2867
     19  CB       -30.9430  -21.5570   47.3150 C.3    99  HIS99       0.0745
     20  CG       -30.9090  -21.2790   45.8430 C.ar   99  HIS99       0.0817
     21  ND1      -30.7020  -22.2660   44.9020 N.ar   99  HIS99      -0.2268
     22  CD2      -31.0870  -20.1290   45.1500 C.ar   99  HIS99       0.1154
     23  CE1      -30.7560  -21.7360   43.6920 C.ar   99  HIS99       0.1986
     24  NE2      -30.9880  -20.4410   43.8150 N.ar   99  HIS99      -0.2212
     25  N        -27.9980  -25.8230   48.0840 N.3   102  TRP102     -0.1241
     26  CA       -27.1500  -25.0630   49.0040 C.3   102  TRP102      0.1605
     27  C        -27.6510  -25.1750   50.4430 C.2   102  TRP102      0.2264
     28  O        -26.8550  -25.3430   51.3700 O.2   102  TRP102     -0.2867
     29  CB       -27.0930  -23.5750   48.6370 C.3   102  TRP102      0.0550
     30  CG       -26.5030  -23.2640   47.3010 C.ar  102  TRP102      0.0003
     31  CD1      -25.6650  -24.0510   46.5630 C.ar  102  TRP102      0.0946
     32  CD2      -26.6880  -22.0580   46.5490 C.ar  102  TRP102      0.0152
     33  NE1      -25.3180  -23.4090   45.3960 N.ar  102  TRP102     -0.2442
     34  CE2      -25.9340  -22.1840   45.3620 C.ar  102  TRP102      0.0810
     35  CE3      -27.4210  -20.8820   46.7650 C.ar  102  TRP102      0.0012
     36  CZ2      -25.8880  -21.1770   44.3910 C.ar  102  TRP102      0.0191
     37  CZ3      -27.3750  -19.8780   45.7980 C.ar  102  TRP102      0.0001
     38  CH2      -26.6140  -20.0350   44.6250 C.ar  102  TRP102      0.0015
     39  N        -36.2630  -22.3930   45.8410 N.3   125  ASN125     -0.1225
     40  CA       -35.4800  -22.0720   44.6510 C.3   125  ASN125      0.1785
     41  C        -34.6950  -23.3040   44.2400 C.2   125  ASN125      0.2597
     42  O        -33.9240  -23.8400   45.0360 O.2   125  ASN125     -0.2718
     43  CB       -34.5020  -20.9360   44.9420 C.3   125  ASN125      0.1169
     44  CG       -35.1980  -19.6230   45.1940 C.2   125  ASN125      0.2627
     45  OD1      -35.5020  -18.8790   44.2590 O.2   125  ASN125     -0.2716
     46  ND2      -35.4680  -19.3310   46.4640 N.am  125  ASN125     -0.0877
     47  N        -34.8990  -23.7510   43.0050 N.am  126  SER126     -0.1952
     48  CA       -34.1960  -24.9160   42.4840 C.3   126  SER126      0.1924
     49  C        -32.8720  -24.4710   41.8740 C.2   126  SER126      0.2314
     50  O        -32.7170  -23.3140   41.4880 O.2   126  SER126     -0.2863
     51  CB       -35.0470  -25.6300   41.4330 C.3   126  SER126      0.2116
     52  OG       -35.5090  -24.7210   40.4510 O.3   126  SER126     -0.2180
     53  N        -28.3880  -24.7890   37.4920 N.3   129  PHE129     -0.1241
     54  CA       -27.4740  -23.9080   36.7740 C.3   129  PHE129      0.1605
     55  C        -26.0460  -24.1910   37.2340 C.2   129  PHE129      0.2264
     56  O        -25.1120  -23.4580   36.9100 O.2   129  PHE129     -0.2867
     57  CB       -27.8420  -22.4250   36.9960 C.3   129  PHE129      0.0534
     58  CG       -27.9430  -22.0140   38.4440 C.ar  129  PHE129     -0.0203
     59  CD1      -26.8030  -21.8580   39.2250 C.ar  129  PHE129     -0.0042
     60  CD2      -29.1870  -21.7640   39.0180 C.ar  129  PHE129     -0.0042
     61  CE1      -26.8980  -21.4560   40.5600 C.ar  129  PHE129     -0.0003
     62  CE2      -29.2940  -21.3610   40.3480 C.ar  129  PHE129     -0.0003
     63  CZ       -28.1480  -21.2070   41.1200 C.ar  129  PHE129     -0.0000
     64  N        -35.2860  -20.4880   38.1120 N.3   177  TRP177     -0.1241
     65  CA       -34.4270  -19.6470   37.2900 C.3   177  TRP177      0.1605
     66  C        -33.3230  -20.5660   36.8090 C.2   177  TRP177      0.2264
     67  O        -32.6680  -21.2220   37.6180 O.2   177  TRP177     -0.2867
     68  CB       -33.7800  -18.5010   38.0700 C.3   177  TRP177      0.0550
     69  CG       -32.7350  -17.8160   37.2170 C.ar  177  TRP177      0.0003
     70  CD1      -32.9640  -16.9990   36.1460 C.ar  177  TRP177      0.0946
     71  CD2      -31.3120  -18.0040   37.2760 C.ar  177  TRP177      0.0152
     72  NE1      -31.7770  -16.6730   35.5310 N.ar  177  TRP177     -0.2442
     73  CE2      -30.7480  -17.2770   36.2020 C.ar  177  TRP177      0.0810
     74  CE3      -30.4610  -18.7200   38.1250 C.ar  177  TRP177      0.0012
     75  CZ2      -29.3680  -17.2450   35.9580 C.ar  177  TRP177      0.0191
     76  CZ3      -29.0880  -18.6870   37.8810 C.ar  177  TRP177      0.0001
     77  CH2      -28.5580  -17.9560   36.8080 C.ar  177  TRP177      0.0015
     78  N        -38.5470  -17.1770   36.2630 N.3   217  GLU217     -0.1245
     79  CA       -37.8140  -15.9130   36.2940 C.3   217  GLU217      0.1567
     80  C        -37.0100  -15.6490   35.0200 C.2   217  GLU217      0.2260
     81  O        -36.0600  -16.3680   34.7170 O.2   217  GLU217     -0.2867
     82  CB       -36.8800  -15.9080   37.5140 C.3   217  GLU217      0.0388
     83  CG       -35.9630  -14.7000   37.6240 C.3   217  GLU217      0.1160
     84  CD       -35.1060  -14.7260   38.8790 C.2   217  GLU217      0.3649
     85  OE1      -34.9900  -15.8000   39.5090 O.co2 217  GLU217     -0.2457
     86  OE2      -34.5350  -13.6720   39.2300 O.co2 217  GLU217     -0.2457
     87  N        -34.4670  -13.5730   32.3880 N.3   219  LYS219     -0.1245
     88  CA       -33.1930  -12.8680   32.4930 C.3   219  LYS219      0.1561
     89  C        -32.6260  -12.7270   31.0830 C.2   219  LYS219      0.2260
     90  O        -32.5230  -13.7060   30.3460 O.2   219  LYS219     -0.2867
     91  CB       -32.2230  -13.6420   33.3940 C.3   219  LYS219      0.0271
     92  CG       -30.9350  -12.8860   33.7220 C.3   219  LYS219      0.0035
     93  CD       -30.0390  -13.6830   34.6570 C.3   219  LYS219      0.0206
     94  CE       -28.8290  -12.8600   35.0930 C.3   219  LYS219      0.1093
     95  NZ       -27.8850  -13.6510   35.9300 N.3   219  LYS219     -0.1314
     96  N        -37.2160   -9.8480   38.3380 N.3   252  ASP252     -0.1239
     97  CA       -36.0120   -9.4820   39.0790 C.3   252  ASP252      0.1674
     98  C        -35.5940   -8.1740   38.4100 C.2   252  ASP252      0.2266
     99  O        -35.3240   -8.1500   37.2140 O.2   252  ASP252     -0.2867
    100  CB       -34.9220  -10.5450   38.9080 C.3   252  ASP252      0.1410
    101  CG       -33.6850  -10.2550   39.7500 C.2   252  ASP252      0.3668
    102  OD1      -33.1900   -9.1130   39.6980 O.co2 252  ASP252     -0.2456
    103  OD2      -33.2000  -11.1670   40.4540 O.co2 252  ASP252     -0.2456
    104  N        -32.6830   -7.8000   35.7170 N.3   255  HIS255     -0.1241
    105  CA       -32.6470   -8.7430   34.5960 C.3   255  HIS255      0.1621
    106  C        -33.1660   -8.2100   33.2620 C.2   255  HIS255      0.2264
    107  O        -33.5300   -8.9940   32.3850 O.2   255  HIS255     -0.2867
    108  CB       -33.4470  -10.0020   34.9490 C.3   255  HIS255      0.0745
    109  CG       -32.7920  -10.8780   35.9730 C.ar  255  HIS255      0.0817
    110  ND1      -33.2300  -12.1580   36.2380 N.ar  255  HIS255     -0.2268
    111  CD2      -31.7400  -10.6610   36.7970 C.ar  255  HIS255      0.1154
    112  CE1      -32.4750  -12.6940   37.1800 C.ar  255  HIS255      0.1986
    113  NE2      -31.5640  -11.8060   37.5370 N.ar  255  HIS255     -0.2212
    114  N        -38.0420   -9.9110   42.7180 N.3   279  HIS279     -0.1241
    115  CA       -36.7140  -10.2010   43.2350 C.3   279  HIS279      0.1621
    116  C        -36.1490   -8.7870   43.2390 C.2   279  HIS279      0.2264
    117  O        -35.7280   -8.2790   42.1980 O.2   279  HIS279     -0.2867
    118  CB       -35.9070  -11.0970   42.2930 C.3   279  HIS279      0.0745
    119  CG       -35.9230  -12.5500   42.6710 C.ar  279  HIS279      0.0817
    120  ND1      -35.0600  -13.4710   42.1160 N.ar  279  HIS279     -0.2268
    121  CD2      -36.6980  -13.2390   43.5430 C.ar  279  HIS279      0.1154
    122  CE1      -35.3010  -14.6640   42.6310 C.ar  279  HIS279      0.1986
    123  NE2      -36.2890  -14.5510   43.5000 N.ar  279  HIS279     -0.2212
    124  N        -26.8140   -7.2560   35.7960 N.3   287  ASP287     -0.1239
    125  CA       -27.4800   -7.8740   36.9380 C.3   287  ASP287      0.1674
    126  C        -26.5110   -7.7270   38.1150 C.2   287  ASP287      0.2266
    127  O        -25.9870   -8.7110   38.6450 O.2   287  ASP287     -0.2867
    128  CB       -27.7670   -9.3540   36.6470 C.3   287  ASP287      0.1410
    129  CG       -28.5980  -10.0110   37.7300 C.2   287  ASP287      0.3668
    130  OD1      -29.3780   -9.2990   38.3950 O.co2 287  ASP287     -0.2456
    131  OD2      -28.4860  -11.2440   37.9070 O.co2 287  ASP287     -0.2456
    132  N        -26.9780   -6.9380   41.2090 N.3   289  ASP289     -0.1239
    133  CA       -27.4470   -7.4360   42.5020 C.3   289  ASP289      0.1674
    134  C        -27.0740   -6.5550   43.6870 C.2   289  ASP289      0.2266
    135  O        -26.7270   -7.0530   44.7620 O.2   289  ASP289     -0.2867
    136  CB       -26.9370   -8.8630   42.7320 C.3   289  ASP289      0.1410
    137  CG       -27.6420   -9.8730   41.8540 C.2   289  ASP289      0.3668
    138  OD1      -28.8820   -9.7890   41.7490 O.co2 289  ASP289     -0.2456
    139  OD2      -26.9670  -10.7510   41.2810 O.co2 289  ASP289     -0.2456
    140  N        -33.2660  -10.2370   46.2970 N.3   325  ASP325     -0.1239
    141  CA       -32.2970  -11.1030   45.6350 C.3   325  ASP325      0.1674
    142  C        -31.0900  -10.2130   45.4280 C.2   325  ASP325      0.2266
    143  O        -31.0140   -9.4760   44.4470 O.2   325  ASP325     -0.2867
    144  CB       -32.8010  -11.6030   44.2750 C.3   325  ASP325      0.1410
    145  CG       -31.8620  -12.6280   43.6540 C.2   325  ASP325      0.3668
    146  OD1      -30.7700  -12.8630   44.2220 O.co2 325  ASP325     -0.2456
    147  OD2      -32.2070  -13.2020   42.6000 O.co2 325  ASP325     -0.2456
@<TRIPOS>BOND
     1    90    89    2
     2    89    88    1
     3   107   106    2
     4    87    88    1
     5    88    91    1
     6   106   105    1
     7    91    92    1
     8    92    93    1
     9   105   108    1
    10   105   104    1
    11    93    94    1
    12    81    80    2
    13   108   109    1
    14    80    79    1
    15    94    95    1
    16    72    70   ar
    17    72    73   ar
    18   124   125    1
    19    75    73   ar
    20    75    77   ar
    21   109   110   ar
    22   109   111   ar
    23    70    69   ar
    24    73    71   ar
    25   110   112   ar
    26    78    79    1
    27    79    82    1
    28   128   125    1
    29   128   129    1
    30    54    57    1
    31    54    55    1
    32    54    53    1
    33   111   113   ar
    34    77    76   ar
    35    66    65    1
    36    66    67    2
    37    56    55    2
    38   125   126    1
    39    57    58    1
    40   112   113   ar
    41    99    98    2
    42    69    71   ar
    43    69    68    1
    44    71    74   ar
    45    65    68    1
    46    65    64    1
    47    82    83    1
    48    83    84    1
    49   129   131   ar
    50   129   130   ar
    51    76    74   ar
    52   126   127    2
    53    96    97    1
    54    98    97    1
    55    58    60   ar
    56    58    59   ar
    57    84    86   ar
    58    84    85   ar
    59   100    97    1
    60   100   101    1
    61    60    62   ar
    62    59    61   ar
    63   102   101   ar
    64   101   103   ar
    65    62    63   ar
    66    52    51    1
    67    61    63   ar
    68   132   133    1
    69   139   137   ar
    70    51    48    1
    71    50    49    2
    72   138   137   ar
    73   137   136    1
    74    49    48    1
    75   120   122   ar
    76   120   119   ar
    77   117   116    2
    78   118   119    1
    79   118   115    1
    80    48    47    1
    81   133   136    1
    82   133   134    1
    83   147   145   ar
    84   122   123   ar
    85   119   121   ar
    86   114   115    1
    87    47    41   am
    88   115   116    1
    89   123   121   ar
    90   145   146   ar
    91   145   144    1
    92   134   135    2
    93    23    24   ar
    94    23    21   ar
    95    24    22   ar
    96    41    40    1
    97    41    42    2
    98    45    44    2
    99   144   141    1
   100    36    38   ar
   101    36    34   ar
   102   143   142    2
   103    38    37   ar
   104    40    43    1
   105    40    39    1
   106    21    20   ar
   107    43    44    1
   108    22    20   ar
   109    44    46   am
   110    34    33   ar
   111    34    32   ar
   112    33    31   ar
   113   142   141    1
   114   141   140    1
   115    37    35   ar
   116    20    19    1
   117     9    10   ar
   118     9     7   ar
   119    12    10   ar
   120    12    14   ar
   121    10     8   ar
   122    32    35   ar
   123    32    30   ar
   124    31    30   ar
   125    14    13   ar
   126     7     6   ar
   127    30    29    1
   128    19    16    1
   129     8     6   ar
   130     8    11   ar
   131     6     5    1
   132    13    11   ar
   133    16    17    1
   134    16    15    1
   135    17    18    2
   136    25    26    1
   137     5     2    1
   138    29    26    1
   139    26    27    1
   140     4     3    2
   141     2     3    1
   142     2     1    1
   143    27    28    2
