@<TRIPOS>MOLECULE
tmp/3m14A00.pdb
 114 113 0 0 0
SMALL
GASTEIGER

@<TRIPOS>ATOM
      1  N          8.6020    8.3310   11.1560 N.3    90  GLN90      -0.1245
      2  CA         8.9220    7.1790   10.3250 C.3    90  GLN90       0.1566
      3  C          8.6310    5.8830   11.1000 C.2    90  GLN90       0.2260
      4  O          8.5850    5.9150   12.3110 O.2    90  GLN90      -0.2867
      5  CB        10.3680    7.2040    9.8610 C.3    90  GLN90       0.0367
      6  CG        11.3790    7.2690   10.9980 C.3    90  GLN90       0.0905
      7  CD        12.1500    5.9800   11.1620 C.2    90  GLN90       0.2608
      8  OE1       11.6320    4.8940   11.1440 O.2    90  GLN90      -0.2717
      9  NE2       13.4490    6.1130   11.4090 N.am   90  GLN90      -0.0878
     10  N         10.0700    1.6180   10.8400 N.3    92  HIS92      -0.1241
     11  CA        10.9180    0.6230   10.2550 C.3    92  HIS92       0.1621
     12  C         10.8280   -0.6490   11.0980 C.2    92  HIS92       0.2264
     13  O         10.1900   -0.6770   12.1340 O.2    92  HIS92      -0.2867
     14  CB        12.3940    1.1140   10.1760 C.3    92  HIS92       0.0745
     15  CG        12.9310    1.3800   11.5470 C.ar   92  HIS92       0.0817
     16  ND1       12.8220    2.5990   12.1850 N.ar   92  HIS92      -0.2268
     17  CD2       13.5270    0.5790   12.4540 C.ar   92  HIS92       0.1154
     18  CE1       13.3430    2.5140   13.3950 C.ar   92  HIS92       0.1986
     19  NE2       13.7800    1.2790   13.5840 N.ar   92  HIS92      -0.2212
     20  N         13.1200   -4.3900   12.3830 N.3    94  HIS94      -0.1241
     21  CA        14.3130   -5.1870   12.5890 C.3    94  HIS94       0.1621
     22  C         13.8770   -6.6440   12.4420 C.2    94  HIS94       0.2264
     23  O         12.7950   -6.9900   12.9520 O.2    94  HIS94      -0.2867
     24  CB        14.9830   -4.9540   13.9340 C.3    94  HIS94       0.0745
     25  CG        15.2780   -3.5140   14.1910 C.ar   94  HIS94       0.0817
     26  ND1       16.5040   -2.9470   13.9290 N.ar   94  HIS94      -0.2268
     27  CD2       14.4980   -2.5030   14.6150 C.ar   94  HIS94       0.1154
     28  CE1       16.4700   -1.6480   14.2350 C.ar   94  HIS94       0.1986
     29  NE2       15.2670   -1.3430   14.6430 N.ar   94  HIS94      -0.2212
     30  N          9.2290   -0.5450   14.7780 N.3   117  HIS117     -0.1241
     31  CA         9.4740    0.6750   15.5540 C.3   117  HIS117      0.1621
     32  C          8.8010    1.8350   14.8360 C.2   117  HIS117      0.2264
     33  O          9.1570    2.1910   13.7090 O.2   117  HIS117     -0.2867
     34  CB        10.9620    0.9460   15.6220 C.3   117  HIS117      0.0745
     35  CG        11.6680   -0.0310   16.5290 C.ar  117  HIS117      0.0817
     36  ND1       13.0390   -0.2200   16.5340 N.ar  117  HIS117     -0.2268
     37  CD2       11.1740   -0.8500   17.4620 C.ar  117  HIS117      0.1154
     38  CE1       13.3540   -1.1120   17.4200 C.ar  117  HIS117      0.1986
     39  NE2       12.2400   -1.5330   18.0040 N.ar  117  HIS117     -0.2212
     40  N          8.5400    5.6550   15.1590 N.3   119  VAL119     -0.1245
     41  CA         9.3640    6.6910   15.7580 C.3   119  VAL119      0.1561
     42  C          8.6320    8.0450   15.7680 C.2   119  VAL119      0.2260
     43  O          8.1840    8.4920   14.7170 O.2   119  VAL119     -0.2867
     44  CB        10.7050    6.8200   15.0080 C.3   119  VAL119      0.0252
     45  CG1       11.6200    7.8270   15.6930 C.3   119  VAL119      0.0019
     46  CG2       11.4180    5.4800   14.8970 C.3   119  VAL119      0.0019
     47  N         12.5960   16.9860   14.7980 N.3   128  PHE128     -0.1241
     48  CA        13.3230   15.8000   15.1740 C.3   128  PHE128      0.1605
     49  C         14.7480   16.1150   15.6020 C.2   128  PHE128      0.2264
     50  O         15.2370   15.5650   16.6000 O.2   128  PHE128     -0.2867
     51  CB        13.2820   14.8060   13.9890 C.3   128  PHE128      0.0534
     52  CG        13.9920   13.5060   14.2720 C.ar  128  PHE128     -0.0203
     53  CD1       13.3460   12.4380   14.8670 C.ar  128  PHE128     -0.0042
     54  CD2       15.3170   13.3490   13.9470 C.ar  128  PHE128     -0.0042
     55  CE1       14.0560   11.2710   15.1250 C.ar  128  PHE128     -0.0003
     56  CE2       16.0220   12.2260   14.2020 C.ar  128  PHE128     -0.0003
     57  CZ        15.3790   11.1500   14.7850 C.ar  128  PHE128     -0.0000
     58  N          9.3420    5.8400   20.9890 N.3   140  VAL140     -0.1245
     59  CA         9.2710    4.7760   20.0090 C.3   140  VAL140      0.1561
     60  C          8.2620    3.7290   20.5130 C.2   140  VAL140      0.2260
     61  O          8.3880    3.2530   21.6170 O.2   140  VAL140     -0.2867
     62  CB        10.6500    4.1850   19.6590 C.3   140  VAL140      0.0252
     63  CG1       10.4360    3.1180   18.5900 C.3   140  VAL140      0.0019
     64  CG2       11.6210    5.2370   19.1720 C.3   140  VAL140      0.0019
     65  N         18.1030    5.1670   21.1090 N.3   195  LEU195     -0.1231
     66  CA        18.0270    4.6180   19.7660 C.3   195  LEU195      0.1693
     67  C         18.8180    3.3010   19.7870 C.2   195  LEU195      0.2593
     68  O         19.8380    3.2060   20.4730 O.2   195  LEU195     -0.2718
     69  CB        18.6930    5.5670   18.7870 C.3   195  LEU195      0.0284
     70  CG        18.1830    7.0010   18.6770 C.3   195  LEU195      0.0019
     71  CD1       18.9830    7.8500   17.7160 C.3   195  LEU195      0.0001
     72  CD2       16.7170    6.9020   18.2760 C.3   195  LEU195      0.0001
     73  N         18.3860    2.3150   18.9890 N.am  196  THR196     -0.1939
     74  CA        19.1250    1.0580   18.9660 C.3   196  THR196      0.2028
     75  C         20.0850    0.9620   17.8000 C.2   196  THR196      0.2643
     76  O         20.7260   -0.0460   17.6090 O.2   196  THR196     -0.2714
     77  CB        18.1470   -0.1500   18.8920 C.3   196  THR196      0.1808
     78  OG1       17.5710   -0.1440   17.5850 O.3   196  THR196     -0.2208
     79  CG2       17.0720   -0.1030   19.9390 C.3   196  THR196      0.0379
     80  N         20.1660    2.0060   16.9910 N.am  197  THR197     -0.1937
     81  CA        21.1810    2.1230   15.9400 C.3   197  THR197      0.2013
     82  C         22.0210    3.3440   16.1890 C.2   197  THR197      0.2484
     83  O         21.5270    4.2790   16.8070 O.2   197  THR197     -0.2729
     84  CB        20.5700    2.2410   14.5390 C.3   197  THR197      0.1807
     85  OG1       19.6490    3.3370   14.4980 O.3   197  THR197     -0.2208
     86  CG2       19.8050    0.9870   14.1590 C.3   197  THR197      0.0379
     87  N         23.2860    3.3510   15.7530 N.am  198  PRO198     -0.2715
     88  CA        24.0730    4.5920   15.8500 C.3   198  PRO198      0.1521
     89  C         23.2920    5.7720   15.3000 C.2   198  PRO198      0.2440
     90  O         22.6330    5.6050   14.2620 O.2   198  PRO198     -0.2731
     91  CB        25.2580    4.2140   14.9770 C.3   198  PRO198      0.0310
     92  CG        25.4740    2.7420   15.2120 C.3   198  PRO198      0.0237
     93  CD        24.0640    2.2450   15.1870 C.3   198  PRO198      0.0939
     94  N         23.3320    6.9150   15.9420 N.am  199  PRO199     -0.2727
     95  CA        24.2400    7.2500   17.0380 C.3   199  PRO199      0.1402
     96  C         23.8170    6.8670   18.4560 C.2   199  PRO199      0.2269
     97  O         24.4610    7.3130   19.4090 O.2   199  PRO199     -0.2865
     98  CB        24.3090    8.7930   16.9430 C.3   199  PRO199      0.0296
     99  CG        22.9940    9.1930   16.3760 C.3   199  PRO199      0.0237
    100  CD        22.5340    8.0710   15.4920 C.3   199  PRO199      0.0939
    101  N         10.6160    4.4040   25.5590 N.3   206  TRP206     -0.1241
    102  CA        10.1680    3.2100   24.8830 C.3   206  TRP206      0.1605
    103  C          8.8030    2.7860   25.3860 C.2   206  TRP206      0.2264
    104  O          8.5850    2.7270   26.6110 O.2   206  TRP206     -0.2867
    105  CB        11.1730    2.0520   25.1130 C.3   206  TRP206      0.0550
    106  CG        12.3010    2.1900   24.1310 C.ar  206  TRP206      0.0003
    107  CD1       13.5290    2.7680   24.3090 C.ar  206  TRP206      0.0946
    108  CD2       12.2590    1.7460   22.7700 C.ar  206  TRP206      0.0152
    109  NE1       14.2460    2.7050   23.1610 N.ar  206  TRP206     -0.2442
    110  CE2       13.5170    2.0840   22.1990 C.ar  206  TRP206      0.0810
    111  CE3       11.3250    1.0820   21.9600 C.ar  206  TRP206      0.0012
    112  CZ2       13.8110    1.7880   20.8870 C.ar  206  TRP206      0.0191
    113  CZ3       11.6220    0.7890   20.6470 C.ar  206  TRP206      0.0001
    114  CH2       12.8720    1.1540   20.1510 C.ar  206  TRP206      0.0015
@<TRIPOS>BOND
     1     5     2    1
     2     5     6    1
     3    14    11    1
     4    14    15    1
     5    11    10    1
     6    11    12    1
     7     2     3    1
     8     2     1    1
     9     6     7    1
    10    12    13    2
    11     3     4    2
    12     8     7    2
    13     7     9   am
    14    15    16   ar
    15    15    17   ar
    16    16    18   ar
    17    20    21    1
    18    22    21    1
    19    22    23    2
    20    17    19   ar
    21    21    24    1
    22    18    19   ar
    23    33    32    2
    24    26    25   ar
    25    26    28   ar
    26    24    25    1
    27    54    56   ar
    28    54    52   ar
    29    51    52    1
    30    51    48    1
    31    86    84    1
    32    25    27   ar
    33    56    57   ar
    34    28    29   ar
    35    90    89    2
    36    52    53   ar
    37    85    84    1
    38    84    81    1
    39    27    29   ar
    40    43    42    2
    41    30    31    1
    42    57    55   ar
    43    47    48    1
    44    32    31    1
    45    53    55   ar
    46    46    44    1
    47    91    92    1
    48    91    88    1
    49    44    45    1
    50    44    41    1
    51    40    41    1
    52    48    49    1
    53    93    92    1
    54    93    87    1
    55    89    88    1
    56    89    94   am
    57   100    94    1
    58   100    99    1
    59    31    34    1
    60    49    50    2
    61    34    35    1
    62    87    88    1
    63    87    82   am
    64    41    42    1
    65    81    82    1
    66    81    80    1
    67    94    95    1
    68    82    83    2
    69    99    98    1
    70    35    36   ar
    71    35    37   ar
    72    36    38   ar
    73    98    95    1
    74    80    75   am
    75    95    96    1
    76    38    39   ar
    77    37    39   ar
    78    78    77    1
    79    76    75    2
    80    71    70    1
    81    75    74    1
    82    72    70    1
    83    96    97    2
    84    63    62    1
    85    70    69    1
    86    69    66    1
    87    77    74    1
    88    77    79    1
    89    74    73    1
    90    73    67   am
    91    64    62    1
    92    62    59    1
    93    66    67    1
    94    66    65    1
    95    67    68    2
    96    59    60    1
    97    59    58    1
    98   114   113   ar
    99   114   112   ar
   100    60    61    2
   101   113   111   ar
   102   112   110   ar
   103   111   108   ar
   104   110   108   ar
   105   110   109   ar
   106   108   106   ar
   107   109   107   ar
   108   106   107   ar
   109   106   105    1
   110   102   105    1
   111   102   103    1
   112   102   101    1
   113   103   104    2
