@<TRIPOS>MOLECULE
tmp/3m1cA02.pdb
 101 96 0 0 0
SMALL
GASTEIGER

@<TRIPOS>ATOM
      1  N         17.2160   24.0630  117.7960 N.3   568  ILE568     -0.1245
      2  CA        16.9250   22.8020  118.4470 C.3   568  ILE568      0.1561
      3  C         15.4590   22.7390  118.8600 C.2   568  ILE568      0.2260
      4  O         14.7660   21.7740  118.5570 O.2   568  ILE568     -0.2867
      5  CB        17.8350   22.6080  119.6520 C.3   568  ILE568      0.0252
      6  CG1       19.2810   22.5870  119.1540 C.3   568  ILE568      0.0019
      7  CG2       17.4630   21.3340  120.4170 C.3   568  ILE568      0.0019
      8  CD1       20.2470   21.9040  120.0780 C.3   568  ILE568      0.0001
      9  N         13.3310   19.6060  116.7590 N.3   572  VAL572     -0.1245
     10  CA        13.0680   18.3860  117.4920 C.3   572  VAL572      0.1561
     11  C         11.5820   18.3020  117.7530 C.2   572  VAL572      0.2260
     12  O         11.0570   19.0890  118.5200 O.2   572  VAL572     -0.2867
     13  CB        13.7640   18.3640  118.8230 C.3   572  VAL572      0.0252
     14  CG1       13.3080   17.1360  119.5890 C.3   572  VAL572      0.0019
     15  CG2       15.2750   18.3630  118.6170 C.3   572  VAL572      0.0019
     16  N          8.2130   17.5610  119.2990 N.3   574  GLU574     -0.1245
     17  CA         7.6760   17.2030  120.6050 C.3   574  GLU574      0.1567
     18  C          6.2340   16.7380  120.4400 C.2   574  GLU574      0.2260
     19  O          5.5730   17.0920  119.4550 O.2   574  GLU574     -0.2867
     20  CB         7.7280   18.4000  121.5430 C.3   574  GLU574      0.0388
     21  CG         8.6170   18.1860  122.7510 C.3   574  GLU574      0.1160
     22  CD        10.1020   18.1980  122.4090 C.2   574  GLU574      0.3649
     23  OE1       10.5620   19.1150  121.6760 O.co2 574  GLU574     -0.2457
     24  OE2       10.8160   17.2960  122.8980 O.co2 574  GLU574     -0.2457
     25  N         10.9690   11.8310  131.6920 N.3   583  SER583     -0.1202
     26  CA        11.5660   11.9940  130.4000 C.3   583  SER583      0.2020
     27  C         13.0250   11.6650  130.5850 C.2   583  SER583      0.2619
     28  O         13.6860   12.2160  131.4580 O.2   583  SER583     -0.2717
     29  CB        11.4340   13.4440  129.9600 C.3   583  SER583      0.2103
     30  OG        12.1100   14.2940  130.8660 O.3   583  SER583     -0.2182
     31  N         13.5420   10.7750  129.7570 N.am  584  HIS584     -0.1961
     32  CA        14.9620   10.5450  129.7550 C.3   584  HIS584      0.1787
     33  C         15.4040   11.4690  128.6620 C.2   584  HIS584      0.2620
     34  O         15.4700   11.0920  127.4960 O.2   584  HIS584     -0.2715
     35  CB        15.2940    9.0980  129.4300 C.3   584  HIS584      0.0785
     36  CG        15.3050    8.2030  130.6280 C.ar  584  HIS584      0.0821
     37  ND1       14.1550    7.8130  131.2760 N.ar  584  HIS584     -0.2267
     38  CD2       16.3280    7.6210  131.2960 C.ar  584  HIS584      0.1154
     39  CE1       14.4680    7.0300  132.2920 C.ar  584  HIS584      0.1986
     40  NE2       15.7800    6.8960  132.3240 N.ar  584  HIS584     -0.2212
     41  N         15.6980   12.6990  129.0380 N.am  585  ASN585     -0.1958
     42  CA        16.0380   13.6730  128.0420 C.3   585  ASN585      0.1819
     43  C         17.5210   13.6150  127.8590 C.2   585  ASN585      0.2621
     44  O         18.2830   14.0000  128.7330 O.2   585  ASN585     -0.2715
     45  CB        15.6090   15.0630  128.4980 C.3   585  ASN585      0.1195
     46  CG        15.7620   16.1040  127.4170 C.2   585  ASN585      0.2630
     47  OD1       16.8610   16.3610  126.9340 O.2   585  ASN585     -0.2716
     48  ND2       14.6560   16.7240  127.0420 N.am  585  ASN585     -0.0877
     49  N         17.9290   13.1230  126.7030 N.am  586  ALA586     -0.1977
     50  CA        19.3410   13.1090  126.3710 C.3   586  ALA586      0.1597
     51  C         19.5670   14.2110  125.3460 C.2   586  ALA586      0.2287
     52  O         18.8300   14.3150  124.3700 O.2   586  ALA586     -0.2864
     53  CB        19.7400   11.7670  125.8080 C.3   586  ALA586      0.0319
     54  N         20.8820   15.9500  122.2390 N.3   588  PRO588     -0.2116
     55  CA        21.2920   15.4470  120.9360 C.3   588  PRO588      0.1372
     56  C         22.7380   15.7730  120.6440 C.2   588  PRO588      0.2244
     57  O         23.1460   16.9240  120.7480 O.2   588  PRO588     -0.2868
     58  CB        20.3790   16.2040  119.9620 C.3   588  PRO588      0.0268
     59  CG        19.8000   17.2950  120.7080 C.3   588  PRO588      0.0207
     60  CD        19.7170   16.8340  122.1280 C.3   588  PRO588      0.0892
     61  N         17.9560   11.8390  115.7390 N.3   601  VAL601     -0.1245
     62  CA        18.8080   12.4120  116.7410 C.3   601  VAL601      0.1561
     63  C         19.8300   11.3480  117.0980 C.2   601  VAL601      0.2260
     64  O         19.5120   10.1610  117.1730 O.2   601  VAL601     -0.2867
     65  CB        17.9690   12.8580  117.9280 C.3   601  VAL601      0.0252
     66  CG1       18.3830   12.1530  119.1890 C.3   601  VAL601      0.0019
     67  CG2       18.0300   14.3630  118.0620 C.3   601  VAL601      0.0019
     68  N         16.3910    6.9350  123.7330 N.3   607  LEU607     -0.1231
     69  CA        15.3630    7.8360  124.2490 C.3   607  LEU607      0.1678
     70  C         14.1460    7.0030  124.5770 C.2   607  LEU607      0.2434
     71  O         14.0660    5.8540  124.1730 O.2   607  LEU607     -0.2733
     72  CB        15.0010    8.9040  123.2340 C.3   607  LEU607      0.0284
     73  CG        16.1840    9.6590  122.6700 C.3   607  LEU607      0.0019
     74  CD1       15.6790   10.8220  121.8840 C.3   607  LEU607      0.0001
     75  CD2       17.0430   10.1230  123.7990 C.3   607  LEU607      0.0001
     76  N         13.1820    7.5790  125.2920 N.am  608  PRO608     -0.2718
     77  CA        12.0240    6.7870  125.7090 C.3   608  PRO608      0.1535
     78  C         10.9510    6.7670  124.6220 C.2   608  PRO608      0.2598
     79  O         10.0450    5.9230  124.6780 O.2   608  PRO608     -0.2715
     80  CB        11.5040    7.5440  126.9330 C.3   608  PRO608      0.0310
     81  CG        12.4330    8.7620  127.0960 C.3   608  PRO608      0.0237
     82  CD        13.0860    8.9590  125.7750 C.3   608  PRO608      0.0939
     83  N         11.0510    7.6770  123.6500 N.am  609  ARG609     -0.1978
     84  CA        10.0820    7.7250  122.5600 C.3   609  ARG609      0.1597
     85  C         10.8110    7.7560  121.2380 C.2   609  ARG609      0.2287
     86  O         12.0080    8.0020  121.2120 O.2   609  ARG609     -0.2864
     87  CB         9.1430    8.9340  122.6870 C.3   609  ARG609      0.0334
     88  CG         9.8590   10.2460  122.7700 C.3   609  ARG609      0.0492
     89  CD         8.9170   11.4360  122.7880 C.3   609  ARG609      0.2205
     90  NE         9.7100   12.6570  122.6700 N.pl3 609  ARG609     -0.0865
     91  CZ         9.7890   13.4150  121.5790 C.cat 609  ARG609      0.5346
     92  NH1        9.0770   13.1210  120.5060 N.pl3 609  ARG609      0.1354
     93  NH2       10.5640   14.4890  121.5760 N.pl3 609  ARG609      0.1354
     94  N         12.5150   10.8080  115.7330 N.3   629  LEU629     -0.1245
     95  CA        11.5510   11.4980  116.5450 C.3   629  LEU629      0.1561
     96  C         10.4590   12.1000  115.6880 C.2   629  LEU629      0.2260
     97  O         10.7130   12.6260  114.6090 O.2   629  LEU629     -0.2867
     98  CB        12.2420   12.5840  117.3540 C.3   629  LEU629      0.0270
     99  CG        13.1180   12.1000  118.4940 C.3   629  LEU629      0.0019
    100  CD1       13.8540   13.2800  119.0970 C.3   629  LEU629      0.0001
    101  CD2       12.2780   11.4020  119.5350 C.3   629  LEU629      0.0001
@<TRIPOS>BOND
     1    97    96    2
     2    96    95    1
     3    94    95    1
     4    61    62    1
     5    95    98    1
     6    62    63    1
     7    62    65    1
     8     9    10    1
     9    63    64    2
    10    98    99    1
    11    10    11    1
    12    10    13    1
    13    11    12    2
    14     1     2    1
    15    65    67    1
    16    65    66    1
    17     2     3    1
    18     2     5    1
    19    99   100    1
    20    99   101    1
    21     4     3    2
    22    15    13    1
    23    13    14    1
    24     6     5    1
    25     6     8    1
    26    16    17    1
    27    19    18    2
    28     5     7    1
    29    58    59    1
    30    58    55    1
    31    18    17    1
    32    92    91    1
    33    17    20    1
    34    56    57    2
    35    56    55    1
    36    59    60    1
    37    55    54    1
    38    86    85    2
    39    85    84    1
    40    20    21    1
    41    93    91    1
    42    91    90    2
    43    23    22   ar
    44    74    73    1
    45    60    54    1
    46    22    21    1
    47    22    24   ar
    48    84    87    1
    49    84    83    1
    50    73    72    1
    51    73    75    1
    52    90    89    1
    53    87    88    1
    54    88    89    1
    55    72    69    1
    56    83    78   am
    57    68    69    1
    58    71    70    2
    59    69    70    1
    60    52    51    2
    61    70    76   am
    62    78    79    2
    63    78    77    1
    64    76    77    1
    65    76    82    1
    66    51    50    1
    67    77    80    1
    68    82    81    1
    69    53    50    1
    70    50    49    1
    71    49    43   am
    72    80    81    1
    73    47    46    2
    74    48    46   am
    75    46    45    1
    76    34    33    2
    77    43    42    1
    78    43    44    2
    79    42    45    1
    80    42    41    1
    81    33    41   am
    82    33    32    1
    83    35    32    1
    84    35    36    1
    85    32    31    1
    86    31    27   am
    87    29    26    1
    88    29    30    1
    89    26    27    1
    90    26    25    1
    91    27    28    2
    92    36    37   ar
    93    36    38   ar
    94    37    39   ar
    95    38    40   ar
    96    39    40   ar
