@<TRIPOS>MOLECULE
tmp/3m1rC04.pdb
 83 83 0 0 0
SMALL
GASTEIGER

@<TRIPOS>ATOM
      1  N         17.7240  102.3930  -12.7550 N.3   113  PRO113     -0.2102
      2  CA        18.8730  102.3930  -11.8450 C.3   113  PRO113      0.1504
      3  C         18.5060  102.1590  -10.3810 C.2   113  PRO113      0.2576
      4  O         19.3870  101.8300   -9.5890 O.2   113  PRO113     -0.2718
      5  CB        19.4430  103.8010  -12.0140 C.3   113  PRO113      0.0282
      6  CG        18.9330  104.2630  -13.3350 C.3   113  PRO113      0.0208
      7  CD        17.5800  103.6740  -13.4620 C.3   113  PRO113      0.0893
      8  N         17.2370  102.3270  -10.0230 N.am  114  ASP114     -0.1960
      9  CA        16.8250  102.1470   -8.6360 C.3   114  ASP114      0.1840
     10  C         16.1520  100.7910   -8.3700 C.2   114  ASP114      0.2622
     11  O         15.7370  100.5180   -7.2410 O.2   114  ASP114     -0.2715
     12  CB        15.9100  103.2900   -8.1900 C.3   114  ASP114      0.1450
     13  CG        16.5830  104.6470   -8.2880 C.2   114  ASP114      0.3671
     14  OD1       16.2050  105.4260   -9.1930 O.co2 114  ASP114     -0.2456
     15  OD2       17.4830  104.9380   -7.4670 O.co2 114  ASP114     -0.2456
     16  N         16.0370   99.9530   -9.3970 N.am  115  TRP115     -0.1960
     17  CA        15.4870   98.6080   -9.2130 C.3   115  TRP115      0.1771
     18  C         16.4640   97.7510   -8.4310 C.2   115  TRP115      0.2619
     19  O         17.6350   97.6760   -8.7680 O.2   115  TRP115     -0.2715
     20  CB        15.1840   97.9330  -10.5570 C.3   115  TRP115      0.0590
     21  CG        14.8170   96.4670  -10.4530 C.ar  115  TRP115      0.0006
     22  CD1       13.9340   95.9020   -9.5790 C.ar  115  TRP115      0.0946
     23  CD2       15.2840   95.4000  -11.2930 C.ar  115  TRP115      0.0152
     24  NE1       13.8340   94.5460   -9.8110 N.ar  115  TRP115     -0.2442
     25  CE2       14.6590   94.2140  -10.8520 C.ar  115  TRP115      0.0810
     26  CE3       16.1820   95.3320  -12.3650 C.ar  115  TRP115      0.0012
     27  CZ2       14.8980   92.9770  -11.4440 C.ar  115  TRP115      0.0191
     28  CZ3       16.4290   94.1110  -12.9490 C.ar  115  TRP115      0.0001
     29  CH2       15.7800   92.9410  -12.4930 C.ar  115  TRP115      0.0015
     30  N         15.9790   97.1290   -7.3700 N.am  116  VAL116     -0.1977
     31  CA        16.7690   96.1650   -6.6260 C.3   116  VAL116      0.1596
     32  C         16.1300   94.8130   -6.9110 C.2   116  VAL116      0.2287
     33  O         14.9980   94.5520   -6.4940 O.2   116  VAL116     -0.2864
     34  CB        16.7500   96.4790   -5.1310 C.3   116  VAL116      0.0276
     35  CG1       17.1460   95.2610   -4.3220 C.3   116  VAL116      0.0022
     36  CG2       17.6620   97.6830   -4.8270 C.3   116  VAL116      0.0022
     37  N         26.8720   96.5240  -14.3150 N.3   137  THR137     -0.1203
     38  CA        25.8900   97.5970  -14.3290 C.3   137  THR137      0.1994
     39  C         26.0850   98.4950  -13.1210 C.2   137  THR137      0.2617
     40  O         25.9180   99.7050  -13.2030 O.2   137  THR137     -0.2717
     41  CB        24.4390   97.0530  -14.3360 C.3   137  THR137      0.1784
     42  OG1       23.9240   97.0610  -15.6730 O.3   137  THR137     -0.2211
     43  CG2       23.5480   97.9100  -13.4740 C.3   137  THR137      0.0376
     44  N         26.4400   97.9010  -11.9910 N.am  138  LYS138     -0.1979
     45  CA        26.5460   98.6730  -10.7610 C.3   138  LYS138      0.1596
     46  C         27.9860   99.0560  -10.4420 C.2   138  LYS138      0.2287
     47  O         28.2490  100.1740  -10.0180 O.2   138  LYS138     -0.2864
     48  CB        25.9170   97.9120   -9.5970 C.3   138  LYS138      0.0298
     49  CG        24.4480   97.6150   -9.8240 C.3   138  LYS138      0.0038
     50  CD        23.6430   98.9040   -9.9140 C.3   138  LYS138      0.0206
     51  CE        22.1750   98.6060  -10.1280 C.3   138  LYS138      0.1093
     52  NZ        21.3670   99.8480  -10.2290 N.3   138  LYS138     -0.1314
     53  N         28.9550   97.5680   -3.9120 N.3   231  PHE231     -0.1241
     54  CA        27.6160   96.9940   -3.7720 C.3   231  PHE231      0.1605
     55  C         27.6710   95.5870   -3.1950 C.2   231  PHE231      0.2264
     56  O         28.6900   94.8860   -3.3210 O.2   231  PHE231     -0.2867
     57  CB        26.8990   96.9820   -5.1220 C.3   231  PHE231      0.0534
     58  CG        26.6270   98.3480   -5.6740 C.ar  231  PHE231     -0.0203
     59  CD1       27.5790   99.0010   -6.4470 C.ar  231  PHE231     -0.0042
     60  CD2       25.4350   98.9940   -5.4000 C.ar  231  PHE231     -0.0042
     61  CE1       27.3410  100.2770   -6.9480 C.ar  231  PHE231     -0.0003
     62  CE2       25.1870  100.2660   -5.9010 C.ar  231  PHE231     -0.0003
     63  CZ        26.1470  100.9080   -6.6770 C.ar  231  PHE231     -0.0000
     64  N         23.7970   99.9020    0.1410 N.3   273  ASN273     -0.1225
     65  CA        24.1110   99.4380   -1.2020 C.3   273  ASN273      0.1785
     66  C         23.9020   97.9440   -1.4650 C.2   273  ASN273      0.2597
     67  O         24.6620   97.3260   -2.2030 O.2   273  ASN273     -0.2718
     68  CB        25.5390   99.8410   -1.5690 C.3   273  ASN273      0.1169
     69  CG        25.7760  101.3420   -1.4170 C.2   273  ASN273      0.2627
     70  OD1       26.6790  101.7700   -0.6940 O.2   273  ASN273     -0.2716
     71  ND2       24.9520  102.1440   -2.0840 N.am  273  ASN273     -0.0877
     72  N         22.8650   97.3680   -0.8780 N.am  274  VAL274     -0.1966
     73  CA        22.4460   96.0350   -1.2770 C.3   274  VAL274      0.1727
     74  C         21.8530   96.1500   -2.6780 C.2   274  VAL274      0.2616
     75  O         20.8380   96.8100   -2.8690 O.2   274  VAL274     -0.2715
     76  CB        21.4070   95.4850   -0.3120 C.3   274  VAL274      0.0290
     77  CG1       20.8960   94.1300   -0.7980 C.3   274  VAL274      0.0023
     78  CG2       22.0000   95.3880    1.0840 C.3   274  VAL274      0.0023
     79  N         22.4930   95.5260   -3.6590 N.am  275  ALA275     -0.1977
     80  CA        22.0590   95.6650   -5.0460 C.3   275  ALA275      0.1597
     81  C         21.0030   94.6350   -5.4710 C.2   275  ALA275      0.2287
     82  O         20.2890   94.8340   -6.4640 O.2   275  ALA275     -0.2864
     83  CB        23.2600   95.6260   -5.9830 C.3   275  ALA275      0.0319
@<TRIPOS>BOND
     1    42    41    1
     2    41    38    1
     3    41    43    1
     4    38    37    1
     5    38    39    1
     6     7     6    1
     7     7     1    1
     8     6     5    1
     9    40    39    2
    10    39    44   am
    11    28    29   ar
    12    28    26   ar
    13     1     2    1
    14    29    27   ar
    15    26    23   ar
    16     5     2    1
    17    44    45    1
    18     2     3    1
    19    27    25   ar
    20    23    25   ar
    21    23    21   ar
    22    25    24   ar
    23    45    46    1
    24    45    48    1
    25    20    21    1
    26    20    17    1
    27    21    22   ar
    28    46    47    2
    29     3     8   am
    30     3     4    2
    31    52    51    1
    32    51    50    1
    33     8     9    1
    34    50    49    1
    35    49    48    1
    36    24    22   ar
    37    16    17    1
    38    16    10   am
    39    17    18    1
    40    14    13   ar
    41    19    18    2
    42     9    10    1
    43     9    12    1
    44    18    30   am
    45    10    11    2
    46    13    12    1
    47    13    15   ar
    48    30    31    1
    49    61    63   ar
    50    61    59   ar
    51    32    31    1
    52    32    33    2
    53    63    62   ar
    54    31    34    1
    55    82    81    2
    56    59    58   ar
    57    83    80    1
    58    62    60   ar
    59    58    60   ar
    60    58    57    1
    61    81    80    1
    62    34    36    1
    63    34    35    1
    64    57    54    1
    65    80    79    1
    66    53    54    1
    67    54    55    1
    68    79    74   am
    69    56    55    2
    70    75    74    2
    71    74    73    1
    72    67    66    2
    73    71    69   am
    74    68    69    1
    75    68    65    1
    76    66    65    1
    77    66    72   am
    78    69    70    2
    79    73    72    1
    80    73    76    1
    81    65    64    1
    82    77    76    1
    83    76    78    1
