@<TRIPOS>MOLECULE
tmp/3m1rD00.pdb
 76 72 0 0 0
SMALL
GASTEIGER

@<TRIPOS>ATOM
      1  N         -2.9730   34.6570  -11.0780 N.3   151  ALA151     -0.1231
      2  CA        -2.0540   34.7770  -12.2020 C.3   151  ALA151      0.1694
      3  C         -0.9910   33.6800  -12.1400 C.2   151  ALA151      0.2592
      4  O         -0.3630   33.3920  -13.1490 O.2   151  ALA151     -0.2718
      5  CB        -1.3490   36.1770  -12.2110 C.3   151  ALA151      0.0304
      6  N         -0.7690   33.1010  -10.9550 N.am  152  HIS152     -0.1976
      7  CA         0.3550   32.1780  -10.7380 C.3   152  HIS152      0.1656
      8  C         -0.0870   30.8160  -10.2390 C.2   152  HIS152      0.2291
      9  O         -1.0730   30.7120   -9.5160 O.2   152  HIS152     -0.2864
     10  CB         1.3340   32.7330   -9.7020 C.3   152  HIS152      0.0771
     11  CG         1.5960   34.1950   -9.8390 C.ar  152  HIS152      0.0820
     12  ND1        0.7410   35.1490   -9.3250 N.ar  152  HIS152     -0.2267
     13  CD2        2.5930   34.8710  -10.4440 C.ar  152  HIS152      0.1154
     14  CE1        1.2190   36.3490   -9.5810 C.ar  152  HIS152      0.1986
     15  NE2        2.3360   36.2160  -10.2690 N.ar  152  HIS152     -0.2212
     16  N         -1.4130   33.5740  -15.9510 N.3   189  ARG189     -0.1245
     17  CA        -1.0950   34.6710  -16.8550 C.3   189  ARG189      0.1563
     18  C          0.2350   34.4610  -17.5690 C.2   189  ARG189      0.2260
     19  O          1.2030   34.0230  -16.9630 O.2   189  ARG189     -0.2867
     20  CB        -1.1070   36.0010  -16.0800 C.3   189  ARG189      0.0307
     21  CG        -1.1840   37.2400  -16.9620 C.3   189  ARG189      0.0489
     22  CD        -0.9480   38.4920  -16.1350 C.3   189  ARG189      0.2205
     23  NE        -2.0110   38.6820  -15.1460 N.pl3 189  ARG189     -0.0865
     24  CZ        -2.0540   39.6930  -14.2850 C.cat 189  ARG189      0.5346
     25  NH1       -1.0890   40.6090  -14.2900 N.pl3 189  ARG189      0.1354
     26  NH2       -3.0640   39.7990  -13.4240 N.pl3 189  ARG189      0.1354
     27  N          3.7530   34.9910  -18.8780 N.3   191  PHE191     -0.1227
     28  CA         4.9350   35.6420  -18.2890 C.3   191  PHE191      0.1736
     29  C          4.8740   35.8250  -16.7750 C.2   191  PHE191      0.2596
     30  O          5.7220   36.5050  -16.2110 O.2   191  PHE191     -0.2718
     31  CB         5.2920   36.9790  -18.9700 C.3   191  PHE191      0.0547
     32  CG         5.7650   36.8250  -20.3780 C.ar  191  PHE191     -0.0202
     33  CD1        5.0570   37.3850  -21.4240 C.ar  191  PHE191     -0.0042
     34  CD2        6.8970   36.0800  -20.6610 C.ar  191  PHE191     -0.0042
     35  CE1        5.4790   37.2190  -22.7230 C.ar  191  PHE191     -0.0003
     36  CE2        7.3180   35.9070  -21.9560 C.ar  191  PHE191     -0.0003
     37  CZ         6.6130   36.4760  -22.9930 C.ar  191  PHE191     -0.0000
     38  N          3.8960   35.2020  -16.1220 N.am  192  SER192     -0.1952
     39  CA         3.8400   35.1850  -14.6580 C.3   192  SER192      0.1924
     40  C          4.3380   33.8720  -14.0230 C.2   192  SER192      0.2314
     41  O          4.3100   33.7250  -12.7980 O.2   192  SER192     -0.2863
     42  CB         2.4050   35.4770  -14.1800 C.3   192  SER192      0.2116
     43  OG         1.9770   36.7500  -14.6390 O.3   192  SER192     -0.2180
     44  N         -4.2020   39.2640   -7.0850 N.3   241  ASP241     -0.1239
     45  CA        -3.2880   39.6260   -8.1620 C.3   241  ASP241      0.1674
     46  C         -3.6660   38.9840   -9.4940 C.2   241  ASP241      0.2266
     47  O         -3.0390   39.2580  -10.5120 O.2   241  ASP241     -0.2867
     48  CB        -1.8060   39.4200   -7.7960 C.3   241  ASP241      0.1410
     49  CG        -1.4300   37.9660   -7.6590 C.2   241  ASP241      0.3668
     50  OD1       -2.0910   37.0930   -8.2950 O.co2 241  ASP241     -0.2456
     51  OD2       -0.4590   37.7050   -6.9110 O.co2 241  ASP241     -0.2456
     52  N         -6.1760   40.0280  -10.7840 N.3   243  LEU243     -0.1245
     53  CA        -6.7060   41.2330  -11.4000 C.3   243  LEU243      0.1561
     54  C         -5.5920   42.0060  -12.0640 C.2   243  LEU243      0.2260
     55  O         -4.4530   41.9640  -11.6240 O.2   243  LEU243     -0.2867
     56  CB        -7.3820   42.1410  -10.3620 C.3   243  LEU243      0.0270
     57  CG        -8.6660   41.6080   -9.7450 C.3   243  LEU243      0.0019
     58  CD1       -8.9920   42.3590   -8.4560 C.3   243  LEU243      0.0001
     59  CD2       -9.8490   41.6780  -10.7440 C.3   243  LEU243      0.0001
     60  N          2.4810   41.4690   -6.5230 N.3   253  ALA253     -0.1231
     61  CA         2.8740   41.1420   -7.8920 C.3   253  ALA253      0.1694
     62  C          1.9000   41.7100   -8.9240 C.2   253  ALA253      0.2592
     63  O          0.9840   41.0270   -9.3430 O.2   253  ALA253     -0.2718
     64  CB         3.0320   39.6230   -8.0670 C.3   253  ALA253      0.0304
     65  N          2.1020   42.9630   -9.3240 N.am  254  ILE254     -0.1966
     66  CA         1.2580   43.6030  -10.3360 C.3   254  ILE254      0.1727
     67  C          1.8720   43.4500  -11.7280 C.2   254  ILE254      0.2616
     68  O          3.0840   43.3120  -11.8750 O.2   254  ILE254     -0.2715
     69  CB         1.0690   45.1270  -10.0880 C.3   254  ILE254      0.0290
     70  CG1        2.4230   45.8120   -9.9200 C.3   254  ILE254      0.0022
     71  CG2        0.1760   45.4000   -8.8810 C.3   254  ILE254      0.0023
     72  CD1        2.3080   47.3110   -9.7660 C.3   254  ILE254      0.0001
     73  N          1.0100   43.4990  -12.7390 N.am  255  GLY255     -0.1955
     74  CA         1.3930   43.5060  -14.1290 C.3   255  GLY255      0.1869
     75  C          0.1380   43.6350  -14.9720 C.2   255  GLY255      0.2309
     76  O         -0.9790   43.4760  -14.4690 O.2   255  GLY255     -0.2863
@<TRIPOS>BOND
     1    37    35   ar
     2    37    36   ar
     3    35    33   ar
     4    36    34   ar
     5    33    32   ar
     6    34    32   ar
     7    32    31    1
     8    31    28    1
     9    27    28    1
    10    28    29    1
    11    18    19    2
    12    18    17    1
    13    21    22    1
    14    21    20    1
    15    17    20    1
    16    17    16    1
    17    29    30    2
    18    29    38   am
    19    22    23    1
    20    38    39    1
    21    23    24    2
    22    75    76    2
    23    75    74    1
    24    39    42    1
    25    39    40    1
    26    43    42    1
    27    25    24    1
    28    24    26    1
    29    74    73    1
    30    40    41    2
    31     4     3    2
    32    73    67   am
    33     5     2    1
    34     2     3    1
    35     2     1    1
    36     3     6   am
    37    54    55    2
    38    54    53    1
    39    68    67    2
    40    67    66    1
    41    53    52    1
    42    53    56    1
    43     6     7    1
    44    59    57    1
    45     7     8    1
    46     7    10    1
    47    47    46    2
    48    13    15   ar
    49    13    11   ar
    50    56    57    1
    51    66    69    1
    52    66    65    1
    53    15    14   ar
    54     8     9    2
    55    69    70    1
    56    69    71    1
    57    70    72    1
    58    11    10    1
    59    11    12   ar
    60    57    58    1
    61    14    12   ar
    62    46    45    1
    63    63    62    2
    64    65    62   am
    65    62    61    1
    66    50    49   ar
    67    45    48    1
    68    45    44    1
    69    64    61    1
    70    61    60    1
    71    48    49    1
    72    49    51   ar
