@<TRIPOS>MOLECULE
tmp/3m1uA00.pdb
 94 92 0 0 0
SMALL
GASTEIGER

@<TRIPOS>ATOM
      1  N         30.4310    8.8450   45.1030 N.3   139  GLY139     -0.1210
      2  CA        31.8250    8.8930   45.5080 C.3   139  GLY139      0.1956
      3  C         32.7340    7.8700   44.8360 C.2   139  GLY139      0.2611
      4  O         33.9150    7.7630   45.1850 O.2   139  GLY139     -0.2717
      5  N         32.2130    7.1330   43.8580 N.am  140  GLN140     -0.1979
      6  CA        33.0100    6.0830   43.2170 C.3   140  GLN140      0.1601
      7  C         33.0720    6.1900   41.7030 C.2   140  GLN140      0.2287
      8  O         33.6810    5.3380   41.0340 O.2   140  GLN140     -0.2864
      9  CB        32.4030    4.7350   43.5930 C.3   140  GLN140      0.0394
     10  CG        32.5750    4.3810   45.0620 C.3   140  GLN140      0.0908
     11  CD        32.3230    2.9060   45.2940 C.2   140  GLN140      0.2608
     12  OE1       33.0640    2.0420   44.7940 O.2   140  GLN140     -0.2717
     13  NE2       31.2340    2.6000   45.9720 N.am  140  GLN140     -0.0878
     14  N         36.4750   10.8110   40.4460 N.3   144  PHE144     -0.1241
     15  CA        37.3740   10.0690   41.3310 C.3   144  PHE144      0.1605
     16  C         38.1820    9.0370   40.5500 C.2   144  PHE144      0.2264
     17  O         37.8960    7.8410   40.5980 O.2   144  PHE144     -0.2867
     18  CB        36.5990    9.4210   42.4970 C.3   144  PHE144      0.0534
     19  CG        35.9860   10.4300   43.4040 C.ar  144  PHE144     -0.0203
     20  CD1       36.7830   11.1220   44.3070 C.ar  144  PHE144     -0.0042
     21  CD2       34.6460   10.7510   43.3020 C.ar  144  PHE144     -0.0042
     22  CE1       36.2480   12.0920   45.1080 C.ar  144  PHE144     -0.0003
     23  CE2       34.0980   11.7470   44.1090 C.ar  144  PHE144     -0.0003
     24  CZ        34.9020   12.4190   44.9880 C.ar  144  PHE144     -0.0000
     25  N         37.2450   21.3630   43.4120 N.3   276  TYR276     -0.1241
     26  CA        37.8500   20.1700   43.9740 C.3   276  TYR276      0.1605
     27  C         38.3120   19.2520   42.8570 C.2   276  TYR276      0.2264
     28  O         37.5440   18.9250   41.9410 O.2   276  TYR276     -0.2867
     29  CB        36.7810   19.4310   44.8040 C.3   276  TYR276      0.0534
     30  CG        37.2540   18.1980   45.5650 C.ar  276  TYR276     -0.0201
     31  CD1       37.3370   16.9650   44.9430 C.ar  276  TYR276     -0.0009
     32  CD2       37.6520   18.2790   46.9060 C.ar  276  TYR276     -0.0009
     33  CE1       37.7850   15.8470   45.6150 C.ar  276  TYR276      0.0417
     34  CE2       38.1130   17.1720   47.5650 C.ar  276  TYR276      0.0417
     35  CZ        38.1740   15.9500   46.9250 C.ar  276  TYR276      0.1957
     36  OH        38.6230   14.8220   47.5790 O.3   276  TYR276     -0.2866
     37  N         40.1830   15.4370   42.9140 N.3   278  TRP278     -0.1241
     38  CA        40.7710   14.2900   43.6280 C.3   278  TRP278      0.1605
     39  C         42.2190   14.0680   43.2150 C.2   278  TRP278      0.2264
     40  O         42.5120   13.9100   42.0480 O.2   278  TRP278     -0.2867
     41  CB        39.9580   13.0350   43.3260 C.3   278  TRP278      0.0550
     42  CG        40.5180   11.7930   43.8840 C.ar  278  TRP278      0.0003
     43  CD1       41.1720   10.8170   43.2120 C.ar  278  TRP278      0.0946
     44  CD2       40.4400   11.3700   45.2370 C.ar  278  TRP278      0.0152
     45  NE1       41.5060    9.7910   44.0640 N.ar  278  TRP278     -0.2442
     46  CE2       41.0970   10.1200   45.3250 C.ar  278  TRP278      0.0810
     47  CE3       39.9000   11.9300   46.3910 C.ar  278  TRP278      0.0012
     48  CZ2       41.1920    9.4130   46.5130 C.ar  278  TRP278      0.0191
     49  CZ3       40.0120   11.2300   47.5860 C.ar  278  TRP278      0.0001
     50  CH2       40.6400    9.9820   47.6330 C.ar  278  TRP278      0.0015
     51  N         39.3220   10.6890   55.8350 N.3   344  GLY344     -0.1225
     52  CA        39.0020   11.1450   54.4690 C.3   344  GLY344      0.1811
     53  C         38.8510   12.6650   54.2350 C.2   344  GLY344      0.2280
     54  O         38.5400   13.1100   53.1200 O.2   344  GLY344     -0.2866
     55  N         34.4470   17.6470   48.8590 N.3   362  TRP362     -0.1227
     56  CA        33.5840   17.1850   47.7900 C.3   362  TRP362      0.1737
     57  C         32.1290   17.3600   48.2490 C.2   362  TRP362      0.2596
     58  O         31.4910   18.3390   47.9330 O.2   362  TRP362     -0.2718
     59  CB        33.8910   15.7270   47.4250 C.3   362  TRP362      0.0564
     60  CG        33.0650   15.2530   46.3200 C.ar  362  TRP362      0.0003
     61  CD1       32.1110   14.2830   46.3600 C.ar  362  TRP362      0.0946
     62  CD2       33.0850   15.7330   44.9720 C.ar  362  TRP362      0.0152
     63  NE1       31.5300   14.1350   45.1230 N.ar  362  TRP362     -0.2442
     64  CE2       32.1410   14.9870   44.2490 C.ar  362  TRP362      0.0810
     65  CE3       33.8460   16.6880   44.2980 C.ar  362  TRP362      0.0012
     66  CZ2       31.8930   15.1950   42.9130 C.ar  362  TRP362      0.0191
     67  CZ3       33.5950   16.8970   42.9490 C.ar  362  TRP362      0.0001
     68  CH2       32.6240   16.1630   42.2740 C.ar  362  TRP362      0.0015
     69  N         31.5860   16.4220   49.0040 N.am  363  GLY363     -0.1957
     70  CA        30.1640   16.5110   49.2980 C.3   363  GLY363      0.1869
     71  C         29.7540   16.0710   50.6810 C.2   363  GLY363      0.2309
     72  O         30.4990   15.4210   51.3980 O.2   363  GLY363     -0.2863
     73  N         27.4220   13.6770   52.7960 N.3   365  ARG365     -0.1245
     74  CA        26.8520   12.3380   52.5970 C.3   365  ARG365      0.1563
     75  C         25.3480   12.3520   52.7800 C.2   365  ARG365      0.2260
     76  O         24.8600   12.8530   53.7810 O.2   365  ARG365     -0.2867
     77  CB        27.4600   11.3720   53.5920 C.3   365  ARG365      0.0307
     78  CG        28.9050   11.0860   53.3420 C.3   365  ARG365      0.0489
     79  CD        29.4750   10.2640   54.4910 C.3   365  ARG365      0.2205
     80  NE        30.9060   10.0460   54.3420 N.pl3 365  ARG365     -0.0865
     81  CZ        31.6470    9.2900   55.1530 C.cat 365  ARG365      0.5346
     82  NH1       31.1070    8.6640   56.1910 N.pl3 365  ARG365      0.1354
     83  NH2       32.9450    9.1640   54.9250 N.pl3 365  ARG365      0.1354
     84  N         25.6300   12.1650   47.3200 N.3   374  ARG374     -0.1245
     85  CA        26.4950   13.2470   47.7540 C.3   374  ARG374      0.1563
     86  C         25.8230   14.5560   47.3630 C.2   374  ARG374      0.2260
     87  O         25.3870   14.7010   46.2160 O.2   374  ARG374     -0.2867
     88  CB        27.8560   13.1660   47.0490 C.3   374  ARG374      0.0307
     89  CG        28.7490   12.0140   47.5040 C.3   374  ARG374      0.0489
     90  CD        29.1430   12.1020   48.9720 C.3   374  ARG374      0.2205
     91  NE        29.9520   10.9470   49.3220 N.pl3 374  ARG374     -0.0865
     92  CZ        29.4830    9.7840   49.7730 C.cat 374  ARG374      0.5346
     93  NH1       28.1900    9.5830   49.9900 N.pl3 374  ARG374      0.1354
     94  NH2       30.3290    8.8140   50.0340 N.pl3 374  ARG374      0.1354
@<TRIPOS>BOND
     1    14    15    1
     2    16    17    2
     3    16    15    1
     4     8     7    2
     5    15    18    1
     6     7     6    1
     7    28    27    2
     8    40    39    2
     9    68    66   ar
    10    68    67   ar
    11    18    19    1
    12    27    26    1
    13    66    64   ar
    14    37    38    1
    15    67    65   ar
    16    43    42   ar
    17    43    45   ar
    18    39    38    1
    19     6     9    1
    20     6     5    1
    21    21    19   ar
    22    21    23   ar
    23    41    38    1
    24    41    42    1
    25    19    20   ar
    26    25    26    1
    27     9    10    1
    28     5     3   am
    29    42    44   ar
    30    26    29    1
    31    45    46   ar
    32    23    24   ar
    33    64    62   ar
    34    64    63   ar
    35    65    62   ar
    36    20    22   ar
    37    12    11    2
    38    29    30    1
    39     3     4    2
    40     3     2    1
    41    31    30   ar
    42    31    33   ar
    43    62    60   ar
    44    24    22   ar
    45    10    11    1
    46     1     2    1
    47    63    61   ar
    48    44    46   ar
    49    44    47   ar
    50    11    13   am
    51    46    48   ar
    52    30    32   ar
    53    33    35   ar
    54    87    86    2
    55    60    61   ar
    56    60    59    1
    57    47    49   ar
    58    48    50   ar
    59    32    34   ar
    60    35    34   ar
    61    35    36    1
    62    88    89    1
    63    88    85    1
    64    84    85    1
    65    86    85    1
    66    59    56    1
    67    89    90    1
    68    49    50   ar
    69    56    57    1
    70    56    55    1
    71    58    57    2
    72    57    69   am
    73    90    91    1
    74    69    70    1
    75    70    71    1
    76    91    92    2
    77    92    93    1
    78    92    94    1
    79    71    72    2
    80    74    75    1
    81    74    73    1
    82    74    77    1
    83    75    76    2
    84    54    53    2
    85    78    77    1
    86    78    79    1
    87    53    52    1
    88    80    79    1
    89    80    81    2
    90    52    51    1
    91    83    81    1
    92    81    82    1
