@<TRIPOS>MOLECULE
tmp/3m2jA00.pdb
 151 143 0 0 0
SMALL
GASTEIGER

@<TRIPOS>ATOM
      1  N         11.2360   14.3260   10.6930 N.3    38  ALA38      -0.1231
      2  CA        11.3150   13.7360   12.0180 C.3    38  ALA38       0.1694
      3  C         10.1410   14.1920   12.9090 C.2    38  ALA38       0.2592
      4  O          9.0080   14.2470   12.4510 O.2    38  ALA38      -0.2718
      5  CB        12.6850   14.0140   12.6860 C.3    38  ALA38       0.0304
      6  N         10.4100   14.4880   14.1850 N.am   39  SER39      -0.1952
      7  CA         9.3190   14.6390   15.1640 C.3    39  SER39       0.1924
      8  C          8.5370   15.8900   14.9810 C.2    39  SER39       0.2314
      9  O          7.5640   16.0360   15.6750 O.2    39  SER39      -0.2863
     10  CB         9.7940   14.5970   16.6280 C.3    39  SER39       0.2116
     11  OG         9.9100   13.2500   17.0670 O.3    39  SER39      -0.2180
     12  N          6.7210   16.5200   12.7750 N.3    41  ILE41      -0.1231
     13  CA         5.4310   16.0490   12.2530 C.3    41  ILE41       0.1692
     14  C          4.3880   15.8450   13.3730 C.2    41  ILE41       0.2591
     15  O          3.2160   15.8380   13.0860 O.2    41  ILE41      -0.2718
     16  CB         5.5830   14.7280   11.4110 C.3    41  ILE41       0.0266
     17  CG1        4.3620   14.5040   10.4870 C.3    41  ILE41       0.0019
     18  CG2        5.9300   13.5300   12.3100 C.3    41  ILE41       0.0020
     19  CD1        4.2560   15.5770    9.3130 C.3    41  ILE41       0.0001
     20  N          4.8450   15.6880   14.6260 N.am   42  LYS42      -0.1980
     21  CA         3.9550   15.6750   15.7880 C.3    42  LYS42       0.1596
     22  C          3.1220   16.9670   15.8700 C.2    42  LYS42       0.2287
     23  O          1.9800   16.9210   16.2470 O.2    42  LYS42      -0.2864
     24  CB         4.7460   15.4390   17.0860 C.3    42  LYS42       0.0298
     25  CG         5.4350   14.0580   17.1450 C.3    42  LYS42       0.0038
     26  CD         6.2310   13.8800   18.4100 C.3    42  LYS42       0.0206
     27  CE         6.4160   12.4260   18.7570 C.3    42  LYS42       0.1093
     28  NZ         7.4190   11.8240   17.8920 N.3    42  LYS42      -0.1314
     29  N         10.2920    3.0120   21.1450 N.3    71  ASN71      -0.1225
     30  CA        11.6490    3.2730   21.5990 C.3    71  ASN71       0.1785
     31  C         11.7790    4.3760   22.6820 C.2    71  ASN71       0.2597
     32  O         12.7260    4.3890   23.4780 O.2    71  ASN71      -0.2718
     33  CB        12.5470    3.5620   20.3850 C.3    71  ASN71       0.1169
     34  CG        12.1670    4.8540   19.6490 C.2    71  ASN71       0.2627
     35  OD1       11.0390    5.3720   19.7570 O.2    71  ASN71      -0.2716
     36  ND2       13.1110    5.3660   18.8870 N.am   71  ASN71      -0.0877
     37  N         10.8400    5.3100   22.7020 N.am   72  TYR72      -0.1976
     38  CA        10.9900    6.4890   23.5490 C.3    72  TYR72       0.1639
     39  C          9.6160    6.9310   24.0810 C.2    72  TYR72       0.2290
     40  O          8.8250    7.5290   23.3480 O.2    72  TYR72      -0.2864
     41  CB        11.7010    7.6190   22.7750 C.3    72  TYR72       0.0560
     42  CG        11.9570    8.8130   23.6540 C.ar   72  TYR72      -0.0198
     43  CD1       12.8340    8.7170   24.7410 C.ar   72  TYR72      -0.0009
     44  CD2       11.3010   10.0410   23.4270 C.ar   72  TYR72      -0.0009
     45  CE1       13.0500    9.7880   25.5680 C.ar   72  TYR72       0.0417
     46  CE2       11.5320   11.1130   24.2400 C.ar   72  TYR72       0.0417
     47  CZ        12.4000   10.9750   25.3070 C.ar   72  TYR72       0.1957
     48  OH        12.6420   12.0310   26.1370 O.3    72  TYR72      -0.2866
     49  N          7.0410    9.2160   21.5410 N.3    99  ASN99      -0.1240
     50  CA         6.8260    8.5030   20.2770 C.3    99  ASN99       0.1653
     51  C          5.6100    7.5950   20.3260 C.2    99  ASN99       0.2266
     52  O          4.8420    7.4970   19.3380 O.2    99  ASN99      -0.2867
     53  CB         8.0680    7.7120   19.8730 C.3    99  ASN99       0.1155
     54  CG         9.2420    8.5940   19.4340 C.2    99  ASN99       0.2627
     55  OD1        9.1430    9.8240   19.3510 O.2    99  ASN99      -0.2716
     56  ND2       10.3630    7.9390   19.1120 N.am   99  ASN99      -0.0877
     57  N          2.5460    9.8150   20.0720 N.3   102  GLN102     -0.1245
     58  CA         2.4090   10.1360   18.6520 C.3   102  GLN102      0.1566
     59  C          1.7610    9.0140   17.8760 C.2   102  GLN102      0.2260
     60  O          0.9210    9.2690   17.0600 O.2   102  GLN102     -0.2867
     61  CB         3.7510   10.5220   18.0280 C.3   102  GLN102      0.0367
     62  CG         3.8070   10.5300   16.5080 C.3   102  GLN102      0.0905
     63  CD         2.9100   11.5860   15.7940 C.2   102  GLN102      0.2608
     64  OE1        2.2920   12.4300   16.4350 O.2   102  GLN102     -0.2717
     65  NE2        2.8970   11.5580   14.4570 N.am  102  GLN102     -0.0878
     66  N          6.2260    6.1900   14.1070 N.3   133  CYS133     -0.1221
     67  CA         7.3680    6.2090   15.0690 C.3   133  CYS133      0.1794
     68  C          7.9270    4.8220   15.4580 C.2   133  CYS133      0.2443
     69  O          7.1660    3.9690   15.9330 O.2   133  CYS133     -0.2733
     70  CB         6.9470    6.8650   16.3950 C.3   133  CYS133      0.0970
     71  SG         6.7900    8.6490   16.4600 S.3   133  CYS133     -0.0800
     72  N          9.2660    4.6270   15.3620 N.am  134  PRO134     -0.2729
     73  CA        10.2490    5.5890   14.8870 C.3   134  PRO134      0.1401
     74  C         10.6740    5.4360   13.4200 C.2   134  PRO134      0.2269
     75  O         11.4250    6.2980   12.9390 O.2   134  PRO134     -0.2865
     76  CB        11.4520    5.3130   15.7910 C.3   134  PRO134      0.0296
     77  CG        11.4060    3.8160   15.9770 C.3   134  PRO134      0.0237
     78  CD         9.9330    3.3960   15.8300 C.3   134  PRO134      0.0939
     79  N         10.0280    6.3010   10.5160 N.3   136  LEU136     -0.1231
     80  CA        10.0130    7.5110    9.6680 C.3   136  LEU136      0.1693
     81  C         11.3350    8.3160    9.5690 C.2   136  LEU136      0.2592
     82  O         11.5830    9.0050    8.5680 O.2   136  LEU136     -0.2718
     83  CB         8.8300    8.4200   10.0420 C.3   136  LEU136      0.0284
     84  CG         8.8030    9.2860   11.3050 C.3   136  LEU136      0.0019
     85  CD1        9.5030   10.6180   11.0910 C.3   136  LEU136      0.0001
     86  CD2        7.3610    9.5210   11.7020 C.3   136  LEU136      0.0001
     87  N         12.1770    8.2270   10.5970 N.am  137  ASN137     -0.1960
     88  CA        13.4520    8.9620   10.6280 C.3   137  ASN137      0.1819
     89  C         14.5300    8.4210    9.6960 C.2   137  ASN137      0.2621
     90  O         15.4230    9.1690    9.2800 O.2   137  ASN137     -0.2715
     91  CB        13.9950    8.9970   12.0530 C.3   137  ASN137      0.1195
     92  CG        12.9850    9.5120   13.0190 C.2   137  ASN137      0.2630
     93  OD1       12.3320    8.7310   13.7040 O.2   137  ASN137     -0.2716
     94  ND2       12.7940   10.8290   13.0440 N.am  137  ASN137     -0.0877
     95  N         14.4440    7.1220    9.3880 N.am  138  GLU138     -0.1977
     96  CA        15.4310    6.4490    8.5380 C.3   138  GLU138      0.1602
     97  C         15.2020    6.7640    7.0470 C.2   138  GLU138      0.2287
     98  O         14.5630    5.9910    6.3250 O.2   138  GLU138     -0.2864
     99  CB        15.4960    4.9380    8.8350 C.3   138  GLU138      0.0415
    100  CG        16.7110    4.2390    8.2120 C.3   138  GLU138      0.1163
    101  CD        18.0340    4.9710    8.4690 C.2   138  GLU138      0.3649
    102  OE1       18.6460    4.7160    9.5300 O.co2 138  GLU138     -0.2457
    103  OE2       18.4640    5.7840    7.6050 O.co2 138  GLU138     -0.2457
    104  N         14.7300   14.9630   15.4190 N.3   204  ALA204     -0.1231
    105  CA        16.1000   14.4970   15.2520 C.3   204  ALA204      0.1694
    106  C         15.9570   13.1670   14.5390 C.2   204  ALA204      0.2592
    107  O         15.0270   12.4230   14.8480 O.2   204  ALA204     -0.2718
    108  CB        16.8090   14.3080   16.6120 C.3   204  ALA204      0.0304
    109  N         16.8950   12.7770   13.4880 N.am  205  ALA205     -0.1966
    110  CA        16.8000   11.5070   12.7700 C.3   205  ALA205      0.1728
    111  C         18.2110   11.2140   12.3060 C.2   205  ALA205      0.2616
    112  O         19.1240   12.0220   12.4940 O.2   205  ALA205     -0.2715
    113  CB        15.8630   11.6350   11.5970 C.3   205  ALA205      0.0334
    114  N         18.3700   10.0740   11.5010 N.am  206  SER206     -0.1950
    115  CA        19.6450    9.6830   10.9740 C.3   206  SER206      0.1924
    116  C         20.1580   10.7570   10.0620 C.2   206  SER206      0.2314
    117  O         19.4410   11.7410    9.7370 O.2   206  SER206     -0.2863
    118  CB        19.4960    8.3630   10.2230 C.3   206  SER206      0.2116
    119  OG        18.6230    8.5290    9.1330 O.3   206  SER206     -0.2180
    120  N         18.6320   17.3960   12.2720 N.3   210  ARG210     -0.1245
    121  CA        18.2830   18.1560   13.4740 C.3   210  ARG210      0.1563
    122  C         17.4280   19.3590   13.0940 C.2   210  ARG210      0.2260
    123  O         17.9080   20.2860   12.4330 O.2   210  ARG210     -0.2867
    124  CB        19.5360   18.5920   14.2670 C.3   210  ARG210      0.0307
    125  CG        19.2080   19.2290   15.6540 C.3   210  ARG210      0.0489
    126  CD        18.3600   18.2740   16.5250 C.3   210  ARG210      0.2205
    127  NE        18.3630   18.6040   17.9480 N.pl3 210  ARG210     -0.0865
    128  CZ        17.4340   18.1890   18.8160 C.cat 210  ARG210      0.5346
    129  NH1       16.3940   17.4940   18.4040 N.pl3 210  ARG210      0.1354
    130  NH2       17.5270   18.4830   20.1080 N.pl3 210  ARG210      0.1354
    131  N         25.3420    8.7240    7.6220 N.3   235  LYS235     -0.1245
    132  CA        24.1530    8.1600    8.2570 C.3   235  LYS235      0.1561
    133  C         24.2280    8.2160    9.7800 C.2   235  LYS235      0.2260
    134  O         23.2410    8.5540   10.4270 O.2   235  LYS235     -0.2867
    135  CB        23.9260    6.7330    7.7770 C.3   235  LYS235      0.0271
    136  CG        22.6060    6.0910    8.2240 C.3   235  LYS235      0.0035
    137  CD        22.3470    4.8320    7.4000 C.3   235  LYS235      0.0206
    138  CE        21.3550    3.8960    8.0470 C.3   235  LYS235      0.1093
    139  NZ        20.6050    3.0800    7.0100 N.3   235  LYS235     -0.1314
    140  N         24.5920   15.6070   15.4110 N.3   239  TYR239     -0.1241
    141  CA        24.2500   16.9750   15.1510 C.3   239  TYR239      0.1605
    142  C         24.7160   17.9120   16.2680 C.2   239  TYR239      0.2264
    143  O         25.1600   17.4980   17.3520 O.2   239  TYR239     -0.2867
    144  CB        22.7400   17.0840   15.0150 C.3   239  TYR239      0.0534
    145  CG        21.9760   16.5640   16.2310 C.ar  239  TYR239     -0.0201
    146  CD1       21.8780   17.3320   17.3970 C.ar  239  TYR239     -0.0009
    147  CD2       21.3260   15.3350   16.1880 C.ar  239  TYR239     -0.0009
    148  CE1       21.1850   16.9050   18.4810 C.ar  239  TYR239      0.0417
    149  CE2       20.5980   14.8920   17.2620 C.ar  239  TYR239      0.0417
    150  CZ        20.5370   15.6740   18.4180 C.ar  239  TYR239      0.1957
    151  OH        19.8230   15.2380   19.5040 O.3   239  TYR239     -0.2866
@<TRIPOS>BOND
     1    98    97    2
     2   139   138    1
     3    97    96    1
     4   137   138    1
     5   137   136    1
     6   103   101   ar
     7   131   132    1
     8   135   136    1
     9   135   132    1
    10   100   101    1
    11   100    99    1
    12   132   133    1
    13   101   102   ar
    14    96    99    1
    15    96    95    1
    16    82    81    2
    17   119   118    1
    18    90    89    2
    19    19    17    1
    20    95    89   am
    21    81    80    1
    22    81    87   am
    23    80    83    1
    24    80    79    1
    25    89    88    1
    26   117   116    2
    27   133   134    2
    28    83    84    1
    29   116   115    1
    30   118   115    1
    31    17    16    1
    32    87    88    1
    33    88    91    1
    34     1     2    1
    35   115   114    1
    36    85    84    1
    37    84    86    1
    38    16    13    1
    39    16    18    1
    40   114   111   am
    41   113   110    1
    42     2     5    1
    43     2     3    1
    44    91    92    1
    45    13    12    1
    46    13    14    1
    47   120   121    1
    48   111   112    2
    49   111   110    1
    50   123   122    2
    51     4     3    2
    52   110   109    1
    53     3     6   am
    54    75    74    2
    55    92    94   am
    56    92    93    2
    57    15    14    2
    58   122   121    1
    59    14    20   am
    60    74    73    1
    61   121   124    1
    62   109   106   am
    63    66    67    1
    64     6     7    1
    65   124   125    1
    66    65    63   am
    67   106   107    2
    68   106   105    1
    69    20    21    1
    70    73    72    1
    71    73    76    1
    72     8     7    1
    73     8     9    2
    74   144   141    1
    75   144   145    1
    76    67    68    1
    77    67    70    1
    78   141   140    1
    79   141   142    1
    80     7    10    1
    81   105   104    1
    82   105   108    1
    83    72    68   am
    84    72    78    1
    85    68    69    2
    86   125   126    1
    87    21    22    1
    88    21    24    1
    89    76    77    1
    90    63    64    2
    91    63    62    1
    92    78    77    1
    93    22    23    2
    94   147   145   ar
    95   147   149   ar
    96   145   146   ar
    97   142   143    2
    98    70    71    1
    99    62    61    1
   100   126   127    1
   101    10    11    1
   102    60    59    2
   103    24    25    1
   104    25    26    1
   105   149   150   ar
   106   146   148   ar
   107    59    58    1
   108    28    27    1
   109   127   128    2
   110    61    58    1
   111   129   128    1
   112    26    27    1
   113   150   148   ar
   114   150   151    1
   115    58    57    1
   116   128   130    1
   117    36    34   am
   118    56    54   am
   119    52    51    2
   120    55    54    2
   121    54    53    1
   122    34    35    2
   123    34    33    1
   124    53    50    1
   125    50    51    1
   126    50    49    1
   127    33    30    1
   128    29    30    1
   129    30    31    1
   130    31    37   am
   131    31    32    2
   132    37    38    1
   133    41    38    1
   134    41    42    1
   135    40    39    2
   136    44    42   ar
   137    44    46   ar
   138    38    39    1
   139    42    43   ar
   140    46    47   ar
   141    43    45   ar
   142    47    45   ar
   143    47    48    1
