@<TRIPOS>MOLECULE
tmp/3m2kA00.pdb
 120 113 0 0 0
SMALL
GASTEIGER

@<TRIPOS>ATOM
      1  N        -10.8650  -32.4300  -10.5050 N.3    38  ALA38      -0.1231
      2  CA       -10.9240  -33.0450  -11.7610 C.3    38  ALA38       0.1694
      3  C         -9.7910  -32.6220  -12.8370 C.2    38  ALA38       0.2592
      4  O         -8.5750  -32.6380  -12.5830 O.2    38  ALA38      -0.2718
      5  CB       -12.3210  -32.9130  -12.2780 C.3    38  ALA38       0.0304
      6  N        -10.0970  -32.2670  -14.0740 N.am   39  SER39      -0.1952
      7  CA        -8.9260  -32.0910  -14.9870 C.3    39  SER39       0.1924
      8  C         -8.3120  -30.6640  -14.9130 C.2    39  SER39       0.2314
      9  O         -7.4590  -30.3840  -15.6860 O.2    39  SER39      -0.2863
     10  CB        -9.3690  -32.3120  -16.4380 C.3    39  SER39       0.2116
     11  OG        -9.7580  -33.6760  -16.6500 O.3    39  SER39      -0.2180
     12  N         -4.3950  -30.4140  -14.6380 N.3    42  LYS42      -0.1245
     13  CA        -3.5140  -30.6860  -15.7090 C.3    42  LYS42       0.1561
     14  C         -2.7270  -29.3620  -15.9230 C.2    42  LYS42       0.2260
     15  O         -1.5020  -29.3790  -16.2550 O.2    42  LYS42      -0.2867
     16  CB        -4.3010  -31.1380  -16.9080 C.3    42  LYS42       0.0271
     17  CG        -4.6790  -32.6580  -16.9920 C.3    42  LYS42       0.0035
     18  CD        -5.5780  -32.9710  -18.2800 C.3    42  LYS42       0.0206
     19  CE        -6.3050  -34.2940  -18.2740 C.3    42  LYS42       0.1093
     20  NZ        -7.8440  -34.2710  -18.4980 N.3    42  LYS42      -0.1314
     21  N         -9.7860  -43.4400  -21.0290 N.3    71  ASN71      -0.1225
     22  CA       -11.1680  -43.2410  -21.5570 C.3    71  ASN71       0.1785
     23  C        -11.2560  -41.9790  -22.4320 C.2    71  ASN71       0.2597
     24  O        -12.1690  -41.8940  -23.2620 O.2    71  ASN71      -0.2718
     25  CB       -12.2800  -43.1650  -20.4310 C.3    71  ASN71       0.1169
     26  CG       -12.3250  -41.7100  -19.7730 C.2    71  ASN71       0.2627
     27  OD1      -11.3000  -41.2180  -19.1880 O.2    71  ASN71      -0.2716
     28  ND2      -13.4870  -41.0000  -19.9390 N.am   71  ASN71      -0.0877
     29  N        -10.4080  -40.9570  -22.2680 N.am   72  TYR72      -0.1976
     30  CA       -10.4530  -39.8570  -23.3130 C.3    72  TYR72       0.1639
     31  C         -9.0150  -39.4970  -24.0140 C.2    72  TYR72       0.2290
     32  O         -8.0870  -39.1450  -23.3660 O.2    72  TYR72      -0.2864
     33  CB       -11.2470  -38.7600  -22.7300 C.3    72  TYR72       0.0560
     34  CG       -11.4750  -37.6670  -23.6630 C.ar   72  TYR72      -0.0198
     35  CD1      -12.2570  -37.8710  -24.8000 C.ar   72  TYR72      -0.0009
     36  CD2      -10.9140  -36.3680  -23.4090 C.ar   72  TYR72      -0.0009
     37  CE1      -12.4490  -36.7980  -25.6800 C.ar   72  TYR72       0.0417
     38  CE2      -11.1270  -35.3520  -24.2430 C.ar   72  TYR72       0.0417
     39  CZ       -11.8890  -35.5430  -25.3600 C.ar   72  TYR72       0.1957
     40  OH       -12.1120  -34.4240  -26.1080 O.3    72  TYR72      -0.2866
     41  N         -7.2910  -31.6150  -23.3070 N.3    97  SER97      -0.1217
     42  CA        -7.5700  -32.3880  -22.0570 C.3    97  SER97       0.1889
     43  C         -7.4830  -33.8660  -22.3190 C.2    97  SER97       0.2288
     44  O         -8.2820  -34.6500  -21.9520 O.2    97  SER97      -0.2866
     45  CB        -8.8700  -31.9700  -21.3200 C.3    97  SER97       0.2089
     46  OG        -8.9710  -32.2550  -19.9080 O.3    97  SER97      -0.2183
     47  N         -6.4140  -37.3160  -21.5450 N.3    99  ASN99      -0.1240
     48  CA        -6.2080  -38.0350  -20.1910 C.3    99  ASN99       0.1653
     49  C         -5.0710  -38.9660  -20.2260 C.2    99  ASN99       0.2266
     50  O         -4.2820  -39.0950  -19.2880 O.2    99  ASN99      -0.2867
     51  CB        -7.3570  -38.8930  -19.7550 C.3    99  ASN99       0.1155
     52  CG        -8.5910  -38.0760  -19.2930 C.2    99  ASN99       0.2627
     53  OD1       -8.6310  -36.8360  -19.0570 O.2    99  ASN99      -0.2716
     54  ND2       -9.6730  -38.8310  -19.1920 N.am   99  ASN99      -0.0877
     55  N        -11.2690  -26.4100  -25.0280 N.3   172  THR172     -0.1274
     56  CA       -12.2220  -27.0370  -24.2010 C.3   172  THR172      0.1548
     57  C        -13.1220  -26.0500  -23.4840 C.3   172  THR172      0.2036
     58  O        -14.0610  -26.5660  -22.9100 O.3   172  THR172     -0.2187
     59  CB       -11.5830  -28.1160  -23.1810 C.3   172  THR172      0.1721
     60  OG1      -10.6820  -27.5370  -22.2460 O.3   172  THR172     -0.2215
     61  CG2      -10.7700  -29.1090  -23.8970 C.3   172  THR172      0.0371
     62  N         -7.8620  -23.5640  -18.1250 N.3   190  LYS190     -0.1231
     63  CA        -8.0560  -25.0130  -18.0570 C.3   190  LYS190      0.1693
     64  C         -9.3860  -25.4070  -17.3630 C.2   190  LYS190      0.2593
     65  O         -9.5670  -25.0300  -16.2480 O.2   190  LYS190     -0.2718
     66  CB        -6.9220  -25.7120  -17.3940 C.3   190  LYS190      0.0285
     67  CG        -7.1040  -27.2330  -17.5700 C.3   190  LYS190      0.0035
     68  CD        -6.6710  -27.6950  -18.9960 C.3   190  LYS190      0.0206
     69  CE        -6.8330  -29.1410  -19.1790 C.3   190  LYS190      0.1093
     70  NZ        -8.3160  -29.4600  -19.2570 N.3   190  LYS190     -0.1314
     71  N        -10.2530  -26.1210  -18.0740 N.am  191  THR191     -0.1939
     72  CA       -11.4380  -26.6720  -17.6620 C.3   191  THR191      0.2028
     73  C        -11.3230  -28.1090  -16.9840 C.2   191  THR191      0.2643
     74  O        -10.3130  -28.9270  -17.2050 O.2   191  THR191     -0.2714
     75  CB       -12.3920  -26.7630  -18.9380 C.3   191  THR191      0.1808
     76  OG1      -12.0820  -27.9100  -19.7550 O.3   191  THR191     -0.2208
     77  CG2      -12.2840  -25.6000  -19.8560 C.3   191  THR191      0.0379
     78  N        -12.4220  -28.4010  -16.1270 N.am  192  GLY192     -0.1939
     79  CA       -12.5870  -29.7450  -15.5150 C.3   192  GLY192      0.2014
     80  C        -14.0070  -30.2790  -15.6270 C.2   192  GLY192      0.2639
     81  O        -14.9310  -29.5010  -15.9110 O.2   192  GLY192     -0.2714
     82  N        -14.1820  -31.5780  -15.4090 N.am  193  ALA193     -0.1963
     83  CA       -15.5080  -32.1490  -15.2050 C.3   193  ALA193      0.1728
     84  C        -15.4240  -33.5100  -14.5220 C.2   193  ALA193      0.2616
     85  O        -14.4050  -34.1960  -14.6090 O.2   193  ALA193     -0.2715
     86  CB       -16.2460  -32.2630  -16.5300 C.3   193  ALA193      0.0334
     87  N        -16.5000  -33.8940  -13.8440 N.am  194  ALA194     -0.1963
     88  CA       -16.6740  -35.2710  -13.3990 C.3   194  ALA194      0.1728
     89  C        -18.0930  -35.5130  -12.8940 C.2   194  ALA194      0.2613
     90  O        -18.8170  -34.5700  -12.5730 O.2   194  ALA194     -0.2715
     91  CB       -15.6590  -35.6110  -12.3180 C.3   194  ALA194      0.0334
     92  N        -18.3070  -36.7340  -12.2300 N.am  195  SER195     -0.2003
     93  CA       -19.7000  -37.1630  -11.8410 C.3   195  SER195      0.1610
     94  C        -20.1540  -36.1730  -10.7030 C.3   195  SER195      0.2063
     95  O        -19.2820  -35.3080  -10.1690 O.3   195  SER195     -0.2184
     96  CB       -19.4800  -38.4190  -11.1130 C.3   195  SER195      0.2063
     97  OG       -18.4550  -37.9330  -10.1960 O.3   195  SER195     -0.2184
     98  N        -18.2540  -29.4190  -12.6560 N.3   199  ARG199     -0.1245
     99  CA       -17.8560  -28.6230  -13.8050 C.3   199  ARG199      0.1563
    100  C        -17.0510  -27.3350  -13.4520 C.2   199  ARG199      0.2260
    101  O        -17.6020  -26.4270  -12.8010 O.2   199  ARG199     -0.2867
    102  CB       -19.0780  -28.2230  -14.5430 C.3   199  ARG199      0.0307
    103  CG       -18.7260  -27.3340  -15.6860 C.3   199  ARG199      0.0489
    104  CD       -18.0630  -28.2930  -16.5510 C.3   199  ARG199      0.2205
    105  NE       -18.0740  -28.0110  -17.9670 N.pl3 199  ARG199     -0.0865
    106  CZ       -17.2900  -28.6740  -18.7830 C.cat 199  ARG199      0.5346
    107  NH1      -16.5200  -29.6450  -18.2810 N.pl3 199  ARG199      0.1354
    108  NH2      -17.2680  -28.3130  -20.0440 N.pl3 199  ARG199      0.1354
    109  N        -24.0270  -31.9620  -16.0120 N.3   228  TYR228     -0.1241
    110  CA       -23.6680  -30.4970  -15.7230 C.3   228  TYR228      0.1605
    111  C        -24.0810  -29.5500  -16.8390 C.2   228  TYR228      0.2264
    112  O        -24.2110  -29.9590  -17.9850 O.2   228  TYR228     -0.2867
    113  CB       -22.1790  -30.3430  -15.4950 C.3   228  TYR228      0.0534
    114  CG       -21.3820  -30.7500  -16.6850 C.ar  228  TYR228     -0.0201
    115  CD1      -21.2920  -29.9160  -17.7330 C.ar  228  TYR228     -0.0009
    116  CD2      -20.6770  -32.0050  -16.7700 C.ar  228  TYR228     -0.0009
    117  CE1      -20.4930  -30.2620  -18.8670 C.ar  228  TYR228      0.0417
    118  CE2      -19.8870  -32.3760  -17.8630 C.ar  228  TYR228      0.0417
    119  CZ       -19.8220  -31.4470  -18.8910 C.ar  228  TYR228      0.1957
    120  OH       -19.2040  -31.6000  -20.0560 O.3   228  TYR228     -0.2866
@<TRIPOS>BOND
     1    40    39    1
     2    37    39   ar
     3    37    35   ar
     4    39    38   ar
     5    55    56    1
     6    35    34   ar
     7    38    36   ar
     8    56    57    1
     9    56    59    1
    10    31    32    2
    11    31    30    1
    12    61    59    1
    13    34    36   ar
    14    34    33    1
    15    57    58    1
    16    30    33    1
    17    30    29    1
    18    41    42    1
    19    24    23    2
    20    59    60    1
    21    23    29   am
    22    23    22    1
    23    43    42    1
    24    43    44    2
    25    42    45    1
    26    22    21    1
    27    22    25    1
    28    47    48    1
    29    45    46    1
    30    25    26    1
    31    49    48    1
    32    49    50    2
    33    48    51    1
    34   120   119    1
    35   108   106    1
    36    28    26   am
    37    77    75    1
    38    26    27    2
    39    51    52    1
    40    76    75    1
    41    52    54   am
    42    52    53    2
    43    70    69    1
    44    69    68    1
    45    68    67    1
    46    75    72    1
    47   119   117   ar
    48   119   118   ar
    49   117   115   ar
    50   106   107    1
    51   106   105    2
    52    20    19    1
    53    18    19    1
    54    18    17    1
    55    62    63    1
    56    71    72    1
    57    71    64   am
    58    63    66    1
    59    63    64    1
    60   112   111    2
    61   105   104    1
    62   118   116   ar
    63   115   114   ar
    64    72    73    1
    65    67    66    1
    66    64    65    2
    67    74    73    2
    68    17    16    1
    69    73    78   am
    70    16    13    1
    71   111   110    1
    72   116   114   ar
    73   114   113    1
    74    11    10    1
    75   104   103    1
    76    86    83    1
    77    10     7    1
    78    15    14    2
    79    78    79    1
    80   109   110    1
    81    14    13    1
    82    81    80    2
    83   110   113    1
    84    13    12    1
    85     9     8    2
    86   103   102    1
    87    80    79    1
    88    80    82   am
    89    82    83    1
    90    83    84    1
    91     7     8    1
    92     7     6    1
    93    85    84    2
    94   102    99    1
    95    84    87   am
    96     6     3   am
    97    87    88    1
    98    99   100    1
    99    99    98    1
   100   100   101    2
   101    88    89    1
   102    88    91    1
   103    89    90    2
   104    89    92   am
   105     3     4    2
   106     3     2    1
   107     5     2    1
   108    92    93    1
   109    93    96    1
   110    93    94    1
   111     2     1    1
   112    96    97    1
   113    94    95    1
