@<TRIPOS>MOLECULE
tmp/3m2nA00.pdb
 141 137 0 0 0
SMALL
GASTEIGER

@<TRIPOS>ATOM
      1  N        -12.6520    6.2120   11.1860 N.3    90  GLN90      -0.1245
      2  CA       -12.3650    5.0620   10.2790 C.3    90  GLN90       0.1566
      3  C        -12.6290    3.8060   11.0740 C.2    90  GLN90       0.2260
      4  O        -12.6840    3.8170   12.3020 O.2    90  GLN90      -0.2867
      5  CB       -10.8740    5.0340    9.8070 C.3    90  GLN90       0.0367
      6  CG        -9.8800    5.1890   10.9740 C.3    90  GLN90       0.0905
      7  CD        -9.0790    3.8810   11.2700 C.2    90  GLN90       0.2608
      8  OE1       -9.6220    2.7810   11.1140 O.2    90  GLN90      -0.2717
      9  NE2       -7.8050    4.0450   11.5700 N.am   90  GLN90      -0.0878
     10  N        -11.2140   -0.5760   10.8180 N.3    92  HIS92      -0.1241
     11  CA       -10.2860   -1.5080   10.1830 C.3    92  HIS92       0.1621
     12  C        -10.3850   -2.7890   11.0250 C.2    92  HIS92       0.2264
     13  O        -11.0460   -2.7980   12.0720 O.2    92  HIS92      -0.2867
     14  CB        -8.8570   -1.0270   10.1550 C.3    92  HIS92       0.0745
     15  CG        -8.3630   -0.7320   11.5430 C.ar   92  HIS92       0.0817
     16  ND1       -8.5640    0.4980   12.1600 N.ar   92  HIS92      -0.2268
     17  CD2       -7.7950   -1.5260   12.4670 C.ar   92  HIS92       0.1154
     18  CE1       -8.0590    0.4510   13.3910 C.ar   92  HIS92       0.1986
     19  NE2       -7.5610   -0.7580   13.6030 N.ar   92  HIS92      -0.2212
     20  N         -8.1110   -6.5080   12.3260 N.3    94  HIS94      -0.1241
     21  CA        -6.8610   -7.3400   12.5580 C.3    94  HIS94       0.1621
     22  C         -7.2730   -8.8050   12.4390 C.2    94  HIS94       0.2264
     23  O         -8.3700   -9.1590   12.9010 O.2    94  HIS94      -0.2867
     24  CB        -6.2610   -7.0820   13.9330 C.3    94  HIS94       0.0745
     25  CG        -5.9870   -5.6360   14.1830 C.ar   94  HIS94       0.0817
     26  ND1       -4.7190   -5.0670   13.9960 N.ar   94  HIS94      -0.2268
     27  CD2       -6.8180   -4.6370   14.5820 C.ar   94  HIS94       0.1154
     28  CE1       -4.7900   -3.7820   14.3800 C.ar   94  HIS94       0.1986
     29  NE2       -6.0650   -3.4920   14.6440 N.ar   94  HIS94      -0.2212
     30  N        -12.0500   -2.6550   14.7050 N.3   117  HIS117     -0.1241
     31  CA       -11.8390   -1.4600   15.5120 C.3   117  HIS117      0.1621
     32  C        -12.5080   -0.2870   14.8690 C.2   117  HIS117      0.2264
     33  O        -12.1520    0.0140   13.6870 O.2   117  HIS117     -0.2867
     34  CB       -10.3420   -1.2360   15.5520 C.3   117  HIS117      0.0745
     35  CG        -9.7100   -2.2140   16.5020 C.ar  117  HIS117      0.0817
     36  ND1       -8.3690   -2.4910   16.4680 N.ar  117  HIS117     -0.2268
     37  CD2      -10.2450   -3.0270   17.4460 C.ar  117  HIS117      0.1154
     38  CE1       -8.0720   -3.3860   17.3850 C.ar  117  HIS117      0.1986
     39  NE2       -9.1920   -3.7190   18.0090 N.ar  117  HIS117     -0.2212
     40  N        -12.9320    3.5090   15.0580 N.3   119  VAL119     -0.1245
     41  CA       -12.0710    4.5300   15.7730 C.3   119  VAL119      0.1561
     42  C        -12.7770    5.8610   15.8080 C.2   119  VAL119      0.2260
     43  O        -13.1080    6.3650   14.7340 O.2   119  VAL119     -0.2867
     44  CB       -10.7760    4.6770   14.9230 C.3   119  VAL119      0.0252
     45  CG1       -9.6770    5.6240   15.6060 C.3   119  VAL119      0.0019
     46  CG2      -10.0240    3.2870   14.6580 C.3   119  VAL119      0.0019
     47  N         -8.7010   14.8000   14.5690 N.3   128  PHE128     -0.1227
     48  CA        -8.0120   13.5730   14.9180 C.3   128  PHE128      0.1736
     49  C         -6.5530   13.7800   15.3050 C.2   128  PHE128      0.2596
     50  O         -6.0510   13.1620   16.3180 O.2   128  PHE128     -0.2718
     51  CB        -8.1150   12.5660   13.7780 C.3   128  PHE128      0.0547
     52  CG        -7.3920   11.2590   14.0620 C.ar  128  PHE128     -0.0202
     53  CD1       -8.0620   10.2290   14.7720 C.ar  128  PHE128     -0.0042
     54  CD2       -6.0140   11.1090   13.7980 C.ar  128  PHE128     -0.0042
     55  CE1       -7.4560    9.0070   15.0320 C.ar  128  PHE128     -0.0003
     56  CE2       -5.3220    9.8560   14.0840 C.ar  128  PHE128     -0.0003
     57  CZ        -6.0510    8.8060   14.7430 C.ar  128  PHE128     -0.0000
     58  N         -5.8370   14.6080   14.5200 N.am  129  GLY129     -0.1957
     59  CA        -4.4540   14.7510   14.8290 C.3   129  GLY129      0.1869
     60  C         -4.1280   15.3480   16.2040 C.2   129  GLY129      0.2309
     61  O         -3.1110   15.0080   16.8300 O.2   129  GLY129     -0.2863
     62  N         -5.1430   12.5840   19.2020 N.3   132  VAL132     -0.1245
     63  CA        -4.2120   11.4500   19.5630 C.3   132  VAL132      0.1561
     64  C         -3.1030   11.8990   20.5190 C.2   132  VAL132      0.2260
     65  O         -2.4220   11.0860   21.0990 O.2   132  VAL132     -0.2867
     66  CB        -3.5450   10.7340   18.3570 C.3   132  VAL132      0.0252
     67  CG1       -4.6140   10.0500   17.5630 C.3   132  VAL132      0.0019
     68  CG2       -2.6010   11.6530   17.4390 C.3   132  VAL132      0.0019
     69  N         -9.1620    9.4470   22.0110 N.3   138  LEU138     -0.1245
     70  CA        -9.8180    8.5200   21.1400 C.3   138  LEU138      0.1561
     71  C        -10.6940    7.5660   21.9400 C.2   138  LEU138      0.2260
     72  O        -10.3770    7.3030   23.1110 O.2   138  LEU138     -0.2867
     73  CB        -8.8210    7.6570   20.3720 C.3   138  LEU138      0.0270
     74  CG        -7.9310    8.3440   19.3220 C.3   138  LEU138      0.0019
     75  CD1       -7.2290    7.2470   18.4480 C.3   138  LEU138      0.0001
     76  CD2       -8.4700    9.3900   18.4440 C.3   138  LEU138      0.0001
     77  N        -12.0470    3.7150   20.9510 N.3   140  VAL140     -0.1245
     78  CA       -12.0790    2.6840   19.9050 C.3   140  VAL140      0.1561
     79  C        -13.0340    1.6260   20.4450 C.2   140  VAL140      0.2260
     80  O        -12.8940    1.0670   21.5530 O.2   140  VAL140     -0.2867
     81  CB       -10.6740    2.0700   19.5690 C.3   140  VAL140      0.0252
     82  CG1      -10.8060    1.0830   18.3960 C.3   140  VAL140      0.0019
     83  CG2       -9.7130    3.1880   19.2120 C.3   140  VAL140      0.0019
     84  N         -3.1250    3.1130   21.0470 N.3   195  LEU195     -0.1231
     85  CA        -3.1690    2.5930   19.7020 C.3   195  LEU195      0.1693
     86  C         -2.4130    1.2520   19.7330 C.2   195  LEU195      0.2593
     87  O         -1.3460    1.0810   20.4150 O.2   195  LEU195     -0.2718
     88  CB        -2.4420    3.5620   18.7750 C.3   195  LEU195      0.0284
     89  CG        -2.9090    4.9790   18.7130 C.3   195  LEU195      0.0019
     90  CD1       -2.0280    5.7280   17.7350 C.3   195  LEU195      0.0001
     91  CD2       -4.3570    5.0960   18.3400 C.3   195  LEU195      0.0001
     92  N         -2.8880    0.2880   18.9690 N.am  196  THR196     -0.1939
     93  CA        -2.1840   -1.0290   18.9270 C.3   196  THR196      0.2028
     94  C         -1.1580   -1.1080   17.7790 C.2   196  THR196      0.2643
     95  O         -0.5580   -2.2070   17.5780 O.2   196  THR196     -0.2714
     96  CB        -3.2400   -2.1830   18.7480 C.3   196  THR196      0.1808
     97  OG1       -3.7690   -2.1510   17.4580 O.3   196  THR196     -0.2208
     98  CG2       -4.2470   -2.1310   19.8880 C.3   196  THR196      0.0379
     99  N         -1.0370   -0.0280   16.9720 N.am  197  THR197     -0.1937
    100  CA         0.0370    0.0530   15.9970 C.3   197  THR197      0.2013
    101  C          0.8860    1.2730   16.2620 C.2   197  THR197      0.2484
    102  O          0.4410    2.2140   16.8960 O.2   197  THR197     -0.2729
    103  CB        -0.4570    0.1420   14.5630 C.3   197  THR197      0.1807
    104  OG1       -1.3280    1.3040   14.3170 O.3   197  THR197     -0.2208
    105  CG2       -1.2450   -1.1010   14.2200 C.3   197  THR197      0.0379
    106  N          2.1540    1.2070   15.7800 N.am  198  PRO198     -0.2715
    107  CA         2.8670    2.5110   15.9000 C.3   198  PRO198      0.1521
    108  C          2.0070    3.6910   15.3410 C.2   198  PRO198      0.2440
    109  O          1.3950    3.5620   14.2370 O.2   198  PRO198     -0.2731
    110  CB         4.1160    2.2410   15.0120 C.3   198  PRO198      0.0310
    111  CG         4.3720    0.7220   15.1460 C.3   198  PRO198      0.0237
    112  CD         2.9470    0.1180   15.1700 C.3   198  PRO198      0.0939
    113  N          2.0650    4.9030   15.9970 N.am  199  PRO199     -0.2727
    114  CA         2.9720    5.2830   17.0850 C.3   199  PRO199      0.1402
    115  C          2.6170    4.8580   18.5230 C.2   199  PRO199      0.2269
    116  O          3.1950    5.3220   19.4950 O.2   199  PRO199     -0.2865
    117  CB         3.0700    6.8290   16.8930 C.3   199  PRO199      0.0296
    118  CG         1.6730    7.2000   16.5010 C.3   199  PRO199      0.0237
    119  CD         1.3400    6.0910   15.4450 C.3   199  PRO199      0.0939
    120  N          0.3470    5.4590   20.6470 N.3   201  LEU201     -0.1245
    121  CA         0.1350    6.5960   21.5980 C.3   201  LEU201      0.1561
    122  C         -0.9100    6.1660   22.6410 C.2   201  LEU201      0.2260
    123  O         -1.9010    5.4370   22.3200 O.2   201  LEU201     -0.2867
    124  CB        -0.3780    7.8450   20.8310 C.3   201  LEU201      0.0270
    125  CG         0.7110    8.3630   19.8590 C.3   201  LEU201      0.0019
    126  CD1        0.0790    9.3720   18.8910 C.3   201  LEU201      0.0001
    127  CD2        1.9050    8.9680   20.7140 C.3   201  LEU201      0.0001
    128  N        -10.6740    2.2410   25.5720 N.3   206  TRP206     -0.1241
    129  CA       -11.0570    1.0550   24.8200 C.3   206  TRP206      0.1605
    130  C        -12.4620    0.5840   25.3310 C.2   206  TRP206      0.2264
    131  O        -12.6860    0.5260   26.5350 O.2   206  TRP206     -0.2867
    132  CB       -10.0090   -0.1150   25.0340 C.3   206  TRP206      0.0550
    133  CG        -8.9460    0.0440   24.0490 C.ar  206  TRP206      0.0003
    134  CD1       -7.6220    0.5990   24.2350 C.ar  206  TRP206      0.0946
    135  CD2       -9.0250   -0.3960   22.6740 C.ar  206  TRP206      0.0152
    136  NE1       -6.9980    0.6060   22.9940 N.ar  206  TRP206     -0.2442
    137  CE2       -7.7500   -0.0880   22.0600 C.ar  206  TRP206      0.0810
    138  CE3      -10.0270   -1.0460   21.9140 C.ar  206  TRP206      0.0012
    139  CZ2       -7.5150   -0.2890   20.6980 C.ar  206  TRP206      0.0191
    140  CZ3       -9.7630   -1.3430   20.5910 C.ar  206  TRP206      0.0001
    141  CH2       -8.4980   -0.9850   19.9750 C.ar  206  TRP206      0.0015
@<TRIPOS>BOND
     1     5     2    1
     2     5     6    1
     3    14    11    1
     4    14    15    1
     5    11    10    1
     6    11    12    1
     7     2     3    1
     8     2     1    1
     9     6     7    1
    10    12    13    2
    11     3     4    2
    12     8     7    2
    13     7     9   am
    14    15    16   ar
    15    15    17   ar
    16    16    18   ar
    17    20    21    1
    18    22    21    1
    19    22    23    2
    20    17    19   ar
    21    21    24    1
    22    18    19   ar
    23    33    32    2
    24    51    52    1
    25    51    48    1
    26    54    52   ar
    27    54    56   ar
    28    24    25    1
    29    26    25   ar
    30    26    28   ar
    31    52    53   ar
    32    56    57   ar
    33    25    27   ar
    34   105   103    1
    35   109   108    2
    36   104   103    1
    37    28    29   ar
    38    58    59    1
    39    58    49   am
    40   103   100    1
    41    47    48    1
    42    27    29   ar
    43    46    44    1
    44    30    31    1
    45    43    42    2
    46    57    55   ar
    47    53    55   ar
    48    59    60    1
    49    32    31    1
    50    48    49    1
    51    44    45    1
    52    44    41    1
    53   110   111    1
    54   110   107    1
    55    40    41    1
    56   111   112    1
    57   112   106    1
    58    49    50    2
    59   108   107    1
    60   108   113   am
    61   119   113    1
    62   119   118    1
    63    31    34    1
    64    34    35    1
    65    41    42    1
    66   106   107    1
    67   106   101   am
    68   100   101    1
    69   100    99    1
    70   113   114    1
    71    60    61    2
    72   101   102    2
    73    36    35   ar
    74    36    38   ar
    75   118   117    1
    76    35    37   ar
    77   117   114    1
    78    99    94   am
    79   114   115    1
    80    38    39   ar
    81    68    66    1
    82    37    39   ar
    83    97    96    1
    84    67    66    1
    85    95    94    2
    86    90    89    1
    87    94    93    1
    88    91    89    1
    89    66    63    1
    90    82    81    1
    91    76    74    1
    92    75    74    1
    93   115   116    2
    94    89    88    1
    95    96    93    1
    96    96    98    1
    97    88    85    1
    98   126   125    1
    99    93    92    1
   100    92    86   am
   101    62    63    1
   102    83    81    1
   103    74    73    1
   104    63    64    1
   105    81    78    1
   106    85    86    1
   107    85    84    1
   108    86    87    2
   109   125   127    1
   110   125   124    1
   111    78    79    1
   112    78    77    1
   113   141   140   ar
   114   141   139   ar
   115    73    70    1
   116    79    80    2
   117    64    65    2
   118   140   138   ar
   119   120   121    1
   120   139   137   ar
   121   124   121    1
   122    70    71    1
   123    70    69    1
   124   121   122    1
   125   138   135   ar
   126    71    72    2
   127   137   135   ar
   128   137   136   ar
   129   123   122    2
   130   135   133   ar
   131   136   134   ar
   132   133   134   ar
   133   133   132    1
   134   129   132    1
   135   129   130    1
   136   129   128    1
   137   130   131    2
