@<TRIPOS>MOLECULE
tmp/3m2pB00.pdb
 144 138 0 0 0
SMALL
GASTEIGER

@<TRIPOS>ATOM
      1  N         68.6080   60.2570  107.4290 N.3     8  GLY8       -0.1225
      2  CA        68.0960   61.6140  107.4940 C.3     8  GLY8        0.1811
      3  C         66.6680   61.6310  108.0080 C.2     8  GLY8        0.2280
      4  O         65.9060   62.5650  107.7170 O.2     8  GLY8       -0.2866
      5  N         65.7810   62.2890  110.5590 N.3    10  THR10      -0.1203
      6  CA        65.7860   63.4200  111.4670 C.3    10  THR10       0.1994
      7  C         65.2940   64.7240  110.8290 C.2    10  THR10       0.2618
      8  O         64.5350   65.4680  111.4380 O.2    10  THR10      -0.2717
      9  CB        67.2160   63.6320  111.9870 C.3    10  THR10       0.1784
     10  OG1       67.4600   62.7290  113.0780 O.3    10  THR10      -0.2211
     11  CG2       67.4420   65.0880  112.4130 C.3    10  THR10       0.0376
     12  N         65.7240   64.9970  109.6040 N.am   11  GLY11      -0.1942
     13  CA        65.4940   66.2940  108.9930 C.3    11  GLY11       0.2014
     14  C         64.0660   66.5970  108.5800 C.2    11  GLY11       0.2639
     15  O         63.1410   65.8650  108.9200 O.2    11  GLY11      -0.2714
     16  N         63.8980   67.6860  107.8310 N.am   12  PHE12      -0.1959
     17  CA        62.5870   68.1170  107.3550 C.3    12  PHE12       0.1771
     18  C         61.7600   66.9540  106.7930 C.2    12  PHE12       0.2619
     19  O         60.9590   66.3650  107.5230 O.2    12  PHE12      -0.2715
     20  CB        62.7330   69.2540  106.3380 C.3    12  PHE12       0.0574
     21  CG        61.4300   69.8830  105.9380 C.ar   12  PHE12      -0.0200
     22  CD1       60.5130   70.2790  106.8970 C.ar   12  PHE12      -0.0042
     23  CD2       61.1290   70.0980  104.6020 C.ar   12  PHE12      -0.0042
     24  CE1       59.3150   70.8640  106.5290 C.ar   12  PHE12      -0.0003
     25  CE2       59.9370   70.6820  104.2250 C.ar   12  PHE12      -0.0003
     26  CZ        59.0280   71.0650  105.1870 C.ar   12  PHE12      -0.0000
     27  N         61.9700   66.6200  105.5150 N.am   13  LEU13      -0.1963
     28  CA        61.2800   65.5080  104.8430 C.3    13  LEU13       0.1728
     29  C         61.2620   64.2300  105.6760 C.2    13  LEU13       0.2616
     30  O         60.2880   63.4900  105.6610 O.2    13  LEU13      -0.2715
     31  CB        61.9490   65.2020  103.5030 C.3    13  LEU13       0.0311
     32  CG        61.1200   64.6530  102.3330 C.3    13  LEU13       0.0022
     33  CD1       61.9420   63.6470  101.5240 C.3    13  LEU13       0.0001
     34  CD2       59.8310   64.0160  102.7990 C.3    13  LEU13       0.0001
     35  N         62.3520   63.9730  106.3890 N.am   14  GLY14      -0.1955
     36  CA        62.4440   62.8230  107.2700 C.3    14  GLY14       0.1869
     37  C         61.2770   62.6740  108.2270 C.2    14  GLY14       0.2309
     38  O         60.6120   61.6450  108.2410 O.2    14  GLY14      -0.2863
     39  N         67.9700   56.5100  111.1280 N.3    31  LEU31      -0.1231
     40  CA        69.4230   56.5070  111.2630 C.3    31  LEU31       0.1693
     41  C         69.8650   57.9570  111.3190 C.2    31  LEU31       0.2593
     42  O         69.2930   58.8050  110.6380 O.2    31  LEU31      -0.2718
     43  CB        70.0920   55.7940  110.0890 C.3    31  LEU31       0.0284
     44  CG        70.3510   54.2870  110.2060 C.3    31  LEU31       0.0019
     45  CD1       69.0780   53.5240  110.5030 C.3    31  LEU31       0.0001
     46  CD2       70.9880   53.7560  108.9460 C.3    31  LEU31       0.0001
     47  N         70.8680   58.2500  112.1400 N.am   32  THR32      -0.1939
     48  CA        71.3140   59.6260  112.3400 C.3    32  THR32       0.2028
     49  C         72.7560   59.6560  112.8280 C.2    32  THR32       0.2642
     50  O         73.2660   58.6580  113.3090 O.2    32  THR32      -0.2714
     51  CB        70.3870   60.3600  113.3270 C.3    32  THR32       0.1808
     52  OG1       70.9880   61.5920  113.7480 O.3    32  THR32      -0.2208
     53  CG2       70.1030   59.4820  114.5380 C.3    32  THR32       0.0379
     54  N         73.4210   60.7930  112.6820 N.am   33  ARG33      -0.1977
     55  CA        74.8180   60.9040  113.0840 C.3    33  ARG33       0.1597
     56  C         74.9480   61.1540  114.5900 C.2    33  ARG33       0.2287
     57  O         76.0110   60.9540  115.1850 O.2    33  ARG33      -0.2864
     58  CB        75.5160   62.0190  112.2950 C.3    33  ARG33       0.0334
     59  CG        75.5010   61.8270  110.7860 C.3    33  ARG33       0.0492
     60  CD        76.4840   62.7520  110.0690 C.3    33  ARG33       0.2205
     61  NE        76.0240   64.1230  109.7790 N.pl3  33  ARG33      -0.0865
     62  CZ        74.8200   64.6450  110.0480 C.cat  33  ARG33       0.5346
     63  NH1       74.5760   65.9110  109.7150 N.pl3  33  ARG33       0.1354
     64  NH2       73.8610   63.9360  110.6440 N.pl3  33  ARG33       0.1354
     65  N         77.8290   55.9820  109.4750 N.3    44  TYR44      -0.1241
     66  CA        77.6600   55.6130  108.0800 C.3    44  TYR44       0.1605
     67  C         78.9110   55.0440  107.4500 C.2    44  TYR44       0.2264
     68  O         79.1350   55.2360  106.2610 O.2    44  TYR44      -0.2867
     69  CB        77.1550   56.7820  107.2410 C.3    44  TYR44       0.0534
     70  CG        75.7720   57.2520  107.6060 C.ar   44  TYR44      -0.0201
     71  CD1       74.6510   56.7720  106.9440 C.ar   44  TYR44      -0.0009
     72  CD2       75.5860   58.1900  108.6040 C.ar   44  TYR44      -0.0009
     73  CE1       73.3860   57.2130  107.2800 C.ar   44  TYR44       0.0417
     74  CE2       74.3340   58.6350  108.9390 C.ar   44  TYR44       0.0417
     75  CZ        73.2410   58.1440  108.2820 C.ar   44  TYR44       0.1957
     76  OH        71.9990   58.6020  108.6350 O.3    44  TYR44      -0.2866
     77  N         67.3230   59.3440  102.6790 N.3    62  LEU62      -0.1231
     78  CA        67.1450   60.7970  102.6590 C.3    62  LEU62       0.1693
     79  C         68.3740   61.5890  103.1310 C.2    62  LEU62       0.2592
     80  O         68.4660   62.7930  102.8820 O.2    62  LEU62      -0.2718
     81  CB        65.9190   61.1990  103.4760 C.3    62  LEU62       0.0284
     82  CG        64.6160   60.5190  103.0670 C.3    62  LEU62       0.0019
     83  CD1       63.5530   60.7240  104.1330 C.3    62  LEU62       0.0001
     84  CD2       64.1440   61.0200  101.7240 C.3    62  LEU62       0.0001
     85  N         69.3100   60.9160  103.7980 N.am   63  ALA63      -0.1966
     86  CA        70.5330   61.5510  104.2950 C.3    63  ALA63       0.1728
     87  C         71.2970   62.2420  103.1890 C.2    63  ALA63       0.2616
     88  O         71.7640   61.5950  102.2550 O.2    63  ALA63      -0.2715
     89  CB        71.4200   60.5350  104.9540 C.3    63  ALA63       0.0334
     90  N         71.4410   63.5580  103.3070 N.am   64  ALA64      -0.1963
     91  CA        72.0860   64.3580  102.2690 C.3    64  ALA64       0.1728
     92  C         72.6550   65.6700  102.8110 C.2    64  ALA64       0.2617
     93  O         72.3320   66.0910  103.9250 O.2    64  ALA64      -0.2715
     94  CB        71.1130   64.6320  101.1370 C.3    64  ALA64       0.0334
     95  N         73.5050   66.3100  102.0110 N.am   65  THR65      -0.1937
     96  CA        74.1400   67.5640  102.3980 C.3    65  THR65       0.2028
     97  C         73.8060   68.6720  101.4100 C.2    65  THR65       0.2642
     98  O         73.7460   68.4340  100.1980 O.2    65  THR65      -0.2714
     99  CB        75.6550   67.4070  102.5310 C.3    65  THR65       0.1808
    100  OG1       75.9580   66.9360  103.8500 O.3    65  THR65      -0.2208
    101  CG2       76.3520   68.7320  102.3070 C.3    65  THR65       0.0379
    102  N         73.5750   69.8740  101.9440 N.am   66  ARG66      -0.1977
    103  CA        73.1200   71.0140  101.1470 C.3    66  ARG66       0.1597
    104  C         74.2520   71.6530  100.3490 C.2    66  ARG66       0.2287
    105  O         74.0780   71.9960   99.1730 O.2    66  ARG66      -0.2864
    106  CB        72.4800   72.0870  102.0360 C.3    66  ARG66       0.0334
    107  CG        71.1520   71.7180  102.6920 C.3    66  ARG66       0.0492
    108  CD        70.3910   72.9820  103.1290 C.3    66  ARG66       0.2205
    109  NE        71.2770   74.0530  103.6040 N.pl3  66  ARG66      -0.0865
    110  CZ        71.5990   75.1410  102.8990 C.cat  66  ARG66       0.5346
    111  NH1       71.1110   75.3220  101.6740 N.pl3  66  ARG66       0.1354
    112  NH2       72.4120   76.0550  103.4190 N.pl3  66  ARG66       0.1354
    113  N         80.9210   63.3210  100.1780 N.3    77  ASP77      -0.1225
    114  CA        80.5650   62.5190  101.3180 C.3    77  ASP77       0.1805
    115  C         79.2330   61.8240  101.0880 C.2    77  ASP77       0.2597
    116  O         79.1040   60.6350  101.3290 O.2    77  ASP77      -0.2718
    117  CB        80.4940   63.3980  102.5550 C.3    77  ASP77       0.1424
    118  CG        81.0310   62.7070  103.7660 C.2    77  ASP77       0.3668
    119  OD1       82.2610   62.4620  103.7810 O.co2  77  ASP77      -0.2456
    120  OD2       80.2270   62.3990  104.6830 O.co2  77  ASP77      -0.2456
    121  N         78.2400   62.5750  100.6310 N.am   78  ASN78      -0.1974
    122  CA        76.9430   62.0080  100.3160 C.3    78  ASN78       0.1688
    123  C         77.0790   60.8030   99.3960 C.2    78  ASN78       0.2292
    124  O         76.2920   59.8590   99.4600 O.2    78  ASN78      -0.2864
    125  CB        76.0770   63.0620   99.6410 C.3    78  ASN78       0.1181
    126  CG        75.6270   64.1370  100.6010 C.2    78  ASN78       0.2629
    127  OD1       75.5570   65.3230  100.2460 O.2    78  ASN78      -0.2716
    128  ND2       75.3180   63.7320  101.8370 N.am   78  ASN78      -0.0877
    129  N         78.7800   57.7950  101.3020 N.3    81  LEU81      -0.1245
    130  CA        77.7060   57.3650  102.1820 C.3    81  LEU81       0.1561
    131  C         76.6810   56.5350  101.4160 C.2    81  LEU81       0.2260
    132  O         76.2400   55.5000  101.8890 O.2    81  LEU81      -0.2867
    133  CB        77.0390   58.5860  102.8070 C.3    81  LEU81       0.0270
    134  CG        75.8890   58.4100  103.7930 C.3    81  LEU81       0.0019
    135  CD1       75.6300   59.7380  104.5000 C.3    81  LEU81       0.0001
    136  CD2       74.6200   57.9190  103.1120 C.3    81  LEU81       0.0001
    137  N         60.2000   71.5560   97.9900 N.3   155  LEU155     -0.1245
    138  CA        59.3560   71.2140   99.1380 C.3   155  LEU155      0.1561
    139  C         59.1140   72.3380  100.1510 C.2   155  LEU155      0.2260
    140  O         60.0440   73.0080  100.6120 O.2   155  LEU155     -0.2867
    141  CB        59.9140   70.0060   99.8810 C.3   155  LEU155      0.0270
    142  CG        60.6250   68.9290   99.0710 C.3   155  LEU155      0.0019
    143  CD1       61.9950   69.4450   98.5760 C.3   155  LEU155      0.0001
    144  CD2       60.7750   67.6690   99.9210 C.3   155  LEU155      0.0001
@<TRIPOS>BOND
     1   137   138    1
     2   143   142    1
     3   142   141    1
     4   142   144    1
     5   138   141    1
     6   138   139    1
     7   105   104    2
     8   123   124    2
     9   123   122    1
    10   125   122    1
    11   125   126    1
    12   139   140    2
    13   113   114    1
    14    98    97    2
    15   127   126    2
    16   122   121    1
    17   104   103    1
    18   126   128   am
    19   121   115   am
    20   115   114    1
    21   115   116    2
    22    94    91    1
    23   103   102    1
    24   103   106    1
    25   129   130    1
    26   114   117    1
    27    97   102   am
    28    97    96    1
    29   131   132    2
    30   131   130    1
    31    33    32    1
    32   111   110    1
    33    84    82    1
    34    95    96    1
    35    95    92   am
    36   106   107    1
    37   130   133    1
    38    88    87    2
    39    91    92    1
    40    91    90    1
    41   101    99    1
    42    32    34    1
    43    32    31    1
    44    96    99    1
    45    99   100    1
    46   117   118    1
    47    78    77    1
    48    78    79    1
    49    78    81    1
    50   107   108    1
    51   133   134    1
    52    92    93    2
    53    80    79    2
    54   110   112    1
    55   110   109    2
    56    82    81    1
    57    82    83    1
    58   136   134    1
    59   108   109    1
    60    79    85   am
    61    87    90   am
    62    87    86    1
    63    31    28    1
    64   118   119   ar
    65   118   120   ar
    66   134   135    1
    67    85    86    1
    68    25    23   ar
    69    25    26   ar
    70    86    89    1
    71    23    21   ar
    72    28    27    1
    73    28    29    1
    74    26    24   ar
    75    27    18   am
    76    30    29    2
    77    29    35   am
    78    21    20    1
    79    21    22   ar
    80    68    67    2
    81    20    17    1
    82    35    36    1
    83    24    22   ar
    84    18    17    1
    85    18    19    2
    86    71    73   ar
    87    71    70   ar
    88    69    70    1
    89    69    66    1
    90    36    37    1
    91    73    75   ar
    92    17    16    1
    93     1     2    1
    94    67    66    1
    95     2     3    1
    96    70    72   ar
    97     4     3    2
    98    16    14   am
    99    66    65    1
   100    37    38    2
   101    75    76    1
   102    75    74   ar
   103    14    15    2
   104    14    13    1
   105    72    74   ar
   106    46    44    1
   107    13    12    1
   108    12     7   am
   109    63    62    1
   110    61    62    2
   111    61    60    1
   112    62    64    1
   113    60    59    1
   114    43    44    1
   115    43    40    1
   116    44    45    1
   117     5     6    1
   118    42    41    2
   119    59    58    1
   120     7     8    2
   121     7     6    1
   122    39    40    1
   123    40    41    1
   124    41    47   am
   125     6     9    1
   126     9    11    1
   127     9    10    1
   128    47    48    1
   129    58    55    1
   130    48    49    1
   131    48    51    1
   132    54    49   am
   133    54    55    1
   134    49    50    2
   135    55    56    1
   136    51    52    1
   137    51    53    1
   138    56    57    2
