@<TRIPOS>MOLECULE
tmp/3m2rD02.pdb
 95 91 0 0 0
SMALL
GASTEIGER

@<TRIPOS>ATOM
      1  N         19.0390   39.6600  -39.6030 N.3   268  ARG268     -0.1245
      2  CA        19.4530   38.9570  -40.7970 C.3   268  ARG268      0.1563
      3  C         20.9180   38.6420  -40.7170 C.2   268  ARG268      0.2260
      4  O         21.3830   37.6310  -41.3170 O.2   268  ARG268     -0.2867
      5  CB        19.0880   39.7790  -42.0510 C.3   268  ARG268      0.0307
      6  CG        19.4300   38.9680  -43.3350 C.3   268  ARG268      0.0489
      7  CD        19.0580   39.7840  -44.5900 C.3   268  ARG268      0.2205
      8  NE        17.6550   39.9850  -44.7870 N.pl3 268  ARG268     -0.0865
      9  CZ        16.8290   39.0650  -45.2890 C.cat 268  ARG268      0.5346
     10  NH1       17.3160   37.9300  -45.8510 N.pl3 268  ARG268      0.1354
     11  NH2       15.5300   39.2410  -45.2480 N.pl3 268  ARG268      0.1354
     12  N         33.5080   40.6830  -44.4510 N.3   317  LEU317     -0.1245
     13  CA        32.7010   40.3410  -45.6070 C.3   317  LEU317      0.1561
     14  C         33.1430   38.9990  -46.2250 C.2   317  LEU317      0.2260
     15  O         32.2230   38.2720  -46.6920 O.2   317  LEU317     -0.2867
     16  CB        32.7300   41.4370  -46.6550 C.3   317  LEU317      0.0270
     17  CG        32.0120   42.7230  -46.1590 C.3   317  LEU317      0.0019
     18  CD1       32.1220   43.7970  -47.2730 C.3   317  LEU317      0.0001
     19  CD2       30.5520   42.5080  -45.8410 C.3   317  LEU317      0.0001
     20  N         30.4980   37.0620  -43.3260 N.3   321  MET321     -0.1230
     21  CA        29.3600   37.2770  -44.1600 C.3   321  MET321      0.1702
     22  C         29.3590   36.4910  -45.4770 C.2   321  MET321      0.2593
     23  O         28.4520   36.6550  -46.2790 O.2   321  MET321     -0.2718
     24  CB        29.1950   38.7450  -44.5480 C.3   321  MET321      0.0401
     25  CG        28.8550   39.6580  -43.3570 C.3   321  MET321      0.0596
     26  SD        27.2830   39.2550  -42.5670 S.3   321  MET321     -0.1393
     27  CE        26.1340   39.3130  -44.0070 C.3   321  MET321      0.0692
     28  N         30.3680   35.6050  -45.6780 N.am  322  SER322     -0.1952
     29  CA        30.3950   34.7610  -46.9110 C.3   322  SER322      0.1924
     30  C         31.2600   33.5640  -46.6100 C.2   322  SER322      0.2314
     31  O         30.7170   32.5970  -46.0480 O.2   322  SER322     -0.2863
     32  CB        30.7700   35.5660  -48.1770 C.3   322  SER322      0.2116
     33  OG        32.1440   36.0780  -48.1320 O.3   322  SER322     -0.2180
     34  N         37.9680   36.9530  -50.0890 N.3   327  PHE327     -0.1241
     35  CA        38.1440   38.3020  -50.7220 C.3   327  PHE327      0.1605
     36  C         39.5280   38.8450  -50.4760 C.2   327  PHE327      0.2264
     37  O         39.6950   40.0980  -50.2780 O.2   327  PHE327     -0.2867
     38  CB        37.0600   39.2390  -50.1920 C.3   327  PHE327      0.0534
     39  CG        35.6430   38.8300  -50.5070 C.ar  327  PHE327     -0.0203
     40  CD1       35.3340   38.1400  -51.6750 C.ar  327  PHE327     -0.0042
     41  CD2       34.6090   39.1870  -49.6530 C.ar  327  PHE327     -0.0042
     42  CE1       33.9910   37.8370  -51.9780 C.ar  327  PHE327     -0.0003
     43  CE2       33.2910   38.8530  -49.9270 C.ar  327  PHE327     -0.0003
     44  CZ        32.9760   38.2400  -51.1470 C.ar  327  PHE327     -0.0000
     45  N         40.5000   41.5950  -53.2820 N.3   330  TYR330     -0.1241
     46  CA        39.6520   42.7830  -53.1350 C.3   330  TYR330      0.1605
     47  C         40.2590   43.7480  -52.0980 C.2   330  TYR330      0.2264
     48  O         40.1730   44.9630  -52.3250 O.2   330  TYR330     -0.2867
     49  CB        38.1680   42.4880  -52.7630 C.3   330  TYR330      0.0534
     50  CG        37.2640   42.0220  -53.8510 C.ar  330  TYR330     -0.0201
     51  CD1       37.1510   42.7400  -55.0500 C.ar  330  TYR330     -0.0009
     52  CD2       36.5220   40.7870  -53.7020 C.ar  330  TYR330     -0.0009
     53  CE1       36.2030   42.3280  -56.0510 C.ar  330  TYR330      0.0417
     54  CE2       35.5870   40.3790  -54.6450 C.ar  330  TYR330      0.0417
     55  CZ        35.4640   41.1490  -55.7970 C.ar  330  TYR330      0.1957
     56  OH        34.5430   40.8350  -56.7780 O.3   330  TYR330     -0.2866
     57  N         32.1420   44.6140  -59.7830 N.3   439  PHE439     -0.1241
     58  CA        31.3830   43.3290  -59.9380 C.3   439  PHE439      0.1605
     59  C         29.9290   43.6620  -60.0160 C.2   439  PHE439      0.2264
     60  O         29.4680   44.8220  -59.9590 O.2   439  PHE439     -0.2867
     61  CB        31.7790   42.3670  -58.7990 C.3   439  PHE439      0.0534
     62  CG        31.1500   42.7230  -57.4400 C.ar  439  PHE439     -0.0203
     63  CD1       31.8330   43.5570  -56.5390 C.ar  439  PHE439     -0.0042
     64  CD2       29.9200   42.1600  -57.1120 C.ar  439  PHE439     -0.0042
     65  CE1       31.2040   43.9050  -55.3500 C.ar  439  PHE439     -0.0003
     66  CE2       29.3410   42.5220  -55.8880 C.ar  439  PHE439     -0.0003
     67  CZ        29.9570   43.4270  -55.0440 C.ar  439  PHE439     -0.0000
     68  N         25.9280   47.4970  -46.1330 N.3   473  ALA473     -0.1231
     69  CA        25.9600   46.2760  -45.2820 C.3   473  ALA473      0.1694
     70  C         26.4250   45.0640  -46.0480 C.2   473  ALA473      0.2592
     71  O         26.6130   43.9970  -45.3600 O.2   473  ALA473     -0.2718
     72  CB        24.5820   46.0520  -44.7760 C.3   473  ALA473      0.0304
     73  N         26.5810   45.0860  -47.3540 N.am  474  MET474     -0.1965
     74  CA        26.8830   43.8670  -48.1550 C.3   474  MET474      0.1736
     75  C         28.2310   43.8480  -48.8130 C.2   474  MET474      0.2616
     76  O         28.7370   42.7030  -49.0150 O.2   474  MET474     -0.2715
     77  CB        25.7940   43.7130  -49.2260 C.3   474  MET474      0.0427
     78  CG        24.4150   43.4710  -48.6380 C.3   474  MET474      0.0599
     79  SD        23.0450   44.1620  -49.6610 S.3   474  MET474     -0.1393
     80  CE        23.1890   45.8760  -49.2010 C.3   474  MET474      0.0692
     81  N         28.7370   44.9590  -49.3510 N.am  475  ASN475     -0.1958
     82  CA        29.6710   44.7780  -50.4690 C.3   475  ASN475      0.1819
     83  C         31.1320   45.0920  -50.2110 C.2   475  ASN475      0.2621
     84  O         31.4530   46.0860  -49.5240 O.2   475  ASN475     -0.2715
     85  CB        29.1370   45.5370  -51.6870 C.3   475  ASN475      0.1195
     86  CG        27.7090   45.1960  -52.0170 C.2   475  ASN475      0.2630
     87  OD1       26.7950   45.9900  -51.9870 O.2   475  ASN475     -0.2716
     88  ND2       27.5040   43.8680  -52.3620 N.am  475  ASN475     -0.0877
     89  N         32.0070   44.3210  -50.8490 N.am  476  VAL476     -0.1977
     90  CA        33.4390   44.5100  -50.7250 C.3   476  VAL476      0.1596
     91  C         33.8760   45.8110  -51.3850 C.2   476  VAL476      0.2287
     92  O         33.1440   46.4450  -52.1730 O.2   476  VAL476     -0.2864
     93  CB        34.2650   43.4110  -51.4370 C.3   476  VAL476      0.0276
     94  CG1       34.0510   42.1050  -50.7450 C.3   476  VAL476      0.0022
     95  CG2       33.8460   43.2750  -52.9210 C.3   476  VAL476      0.0022
@<TRIPOS>BOND
     1    59    60    2
     2    59    58    1
     3    58    57    1
     4    58    61    1
     5    61    62    1
     6    62    64   ar
     7    62    63   ar
     8    64    66   ar
     9    56    55    1
    10    63    65   ar
    11    53    55   ar
    12    53    51   ar
    13    66    67   ar
    14    55    54   ar
    15    65    67   ar
    16    51    50   ar
    17    54    52   ar
    18    50    52   ar
    19    50    49    1
    20    45    46    1
    21    46    49    1
    22    46    47    1
    23    95    93    1
    24    88    86   am
    25    48    47    2
    26    92    91    2
    27    86    87    2
    28    86    85    1
    29    42    40   ar
    30    42    44   ar
    31    85    82    1
    32    40    39   ar
    33    93    94    1
    34    93    90    1
    35    91    90    1
    36    44    43   ar
    37    89    90    1
    38    89    83   am
    39    35    36    1
    40    35    38    1
    41    35    34    1
    42    39    38    1
    43    39    41   ar
    44    36    37    2
    45    82    83    1
    46    82    81    1
    47    83    84    2
    48    43    41   ar
    49    79    80    1
    50    79    78    1
    51    81    75   am
    52    77    78    1
    53    77    74    1
    54    76    75    2
    55    75    74    1
    56    32    33    1
    57    32    29    1
    58    74    73    1
    59    73    70   am
    60    18    17    1
    61    29    30    1
    62    29    28    1
    63    15    14    2
    64    16    17    1
    65    16    13    1
    66    30    31    2
    67    23    22    2
    68    14    13    1
    69    17    19    1
    70    68    69    1
    71    70    71    2
    72    70    69    1
    73    10     9    1
    74    28    22   am
    75    13    12    1
    76    22    21    1
    77     9    11    1
    78     9     8    2
    79    69    72    1
    80     8     7    1
    81     7     6    1
    82    24    21    1
    83    24    25    1
    84    21    20    1
    85    27    26    1
    86    25    26    1
    87     6     5    1
    88     5     2    1
    89     4     3    2
    90     2     3    1
    91     2     1    1
