@<TRIPOS>MOLECULE
tmp/3m2rD00.pdb
 110 112 0 0 0
SMALL
GASTEIGER

@<TRIPOS>ATOM
      1  N         32.5380   33.6040  -46.9460 N.3   323  GLY323     -0.1210
      2  CA        33.4470   32.4640  -46.6960 C.3   323  GLY323      0.1956
      3  C         33.9120   31.8020  -47.9420 C.2   323  GLY323      0.2612
      4  O         33.6000   32.2110  -49.0540 O.2   323  GLY323     -0.2717
      5  N         34.7540   30.8130  -47.7820 N.am  324  GLY324     -0.1942
      6  CA        35.4020   30.1280  -48.9100 C.3   324  GLY324      0.2014
      7  C         36.7820   30.7380  -49.1730 C.2   324  GLY324      0.2639
      8  O         37.4890   31.2190  -48.3120 O.2   324  GLY324     -0.2714
      9  N         37.1290   30.6490  -50.4820 N.am  325  VAL325     -0.1963
     10  CA        38.3160   31.3700  -50.8940 C.3   325  VAL325      0.1727
     11  C         38.2830   32.8700  -50.4640 C.2   325  VAL325      0.2617
     12  O         39.3130   33.3480  -49.9810 O.2   325  VAL325     -0.2715
     13  CB        38.4390   31.2040  -52.4520 C.3   325  VAL325      0.0290
     14  CG1       39.4090   32.2460  -53.0740 C.3   325  VAL325      0.0023
     15  CG2       38.8790   29.7990  -52.8730 C.3   325  VAL325      0.0023
     16  N         37.1340   33.4640  -50.6080 N.am  326  GLY326     -0.1940
     17  CA        36.9080   34.7980  -49.9790 C.3   326  GLY326      0.2014
     18  C         37.5610   35.8750  -50.8280 C.2   326  GLY326      0.2639
     19  O         37.6040   35.8350  -52.0560 O.2   326  GLY326     -0.2714
     20  N         37.9680   36.9530  -50.0890 N.am  327  PHE327     -0.1959
     21  CA        38.1440   38.3020  -50.7220 C.3   327  PHE327      0.1771
     22  C         39.5280   38.8450  -50.4760 C.2   327  PHE327      0.2620
     23  O         39.6950   40.0980  -50.2780 O.2   327  PHE327     -0.2715
     24  CB        37.0600   39.2390  -50.1920 C.3   327  PHE327      0.0574
     25  CG        35.6430   38.8300  -50.5070 C.ar  327  PHE327     -0.0200
     26  CD1       35.3340   38.1400  -51.6750 C.ar  327  PHE327     -0.0042
     27  CD2       34.6090   39.1870  -49.6530 C.ar  327  PHE327     -0.0042
     28  CE1       33.9910   37.8370  -51.9780 C.ar  327  PHE327     -0.0003
     29  CE2       33.2910   38.8530  -49.9270 C.ar  327  PHE327     -0.0003
     30  CZ        32.9760   38.2400  -51.1470 C.ar  327  PHE327     -0.0000
     31  N         40.5710   38.0390  -50.5180 N.am  328  THR328     -0.1937
     32  CA        41.9080   38.5440  -50.2650 C.3   328  THR328      0.2028
     33  C         42.3180   39.7330  -51.1400 C.2   328  THR328      0.2642
     34  O         42.7510   40.7840  -50.6040 O.2   328  THR328     -0.2714
     35  CB        42.9550   37.4520  -50.4230 C.3   328  THR328      0.1808
     36  OG1       42.6310   36.3350  -49.5360 O.3   328  THR328     -0.2208
     37  CG2       44.3510   37.8750  -50.0730 C.3   328  THR328      0.0379
     38  N         42.2190   39.5590  -52.4580 N.am  329  GLN329     -0.1963
     39  CA        42.7170   40.5930  -53.3900 C.3   329  GLN329      0.1733
     40  C         41.7850   41.7100  -53.5500 C.2   329  GLN329      0.2616
     41  O         42.2140   42.8300  -53.9520 O.2   329  GLN329     -0.2715
     42  CB        43.0360   39.8710  -54.6960 C.3   329  GLN329      0.0408
     43  CG        44.2320   38.9160  -54.5790 C.3   329  GLN329      0.0908
     44  CD        44.2690   37.8990  -55.6780 C.2   329  GLN329      0.2608
     45  OE1       45.3400   37.7790  -56.3770 O.2   329  GLN329     -0.2717
     46  NE2       43.2560   37.0660  -55.8640 N.am  329  GLN329     -0.0878
     47  N         40.5000   41.5950  -53.2820 N.am  330  TYR330     -0.1974
     48  CA        39.6520   42.7830  -53.1350 C.3   330  TYR330      0.1639
     49  C         40.2590   43.7480  -52.0980 C.2   330  TYR330      0.2290
     50  O         40.1730   44.9630  -52.3250 O.2   330  TYR330     -0.2864
     51  CB        38.1680   42.4880  -52.7630 C.3   330  TYR330      0.0560
     52  CG        37.2640   42.0220  -53.8510 C.ar  330  TYR330     -0.0198
     53  CD1       37.1510   42.7400  -55.0500 C.ar  330  TYR330     -0.0009
     54  CD2       36.5220   40.7870  -53.7020 C.ar  330  TYR330     -0.0009
     55  CE1       36.2030   42.3280  -56.0510 C.ar  330  TYR330      0.0417
     56  CE2       35.5870   40.3790  -54.6450 C.ar  330  TYR330      0.0417
     57  CZ        35.4640   41.1490  -55.7970 C.ar  330  TYR330      0.1957
     58  OH        34.5430   40.8350  -56.7780 O.3   330  TYR330     -0.2866
     59  N         43.4770   43.5340  -61.6500 N.3   393  PHE393     -0.1227
     60  CA        42.7440   43.0710  -62.8090 C.3   393  PHE393      0.1736
     61  C         41.2490   43.1470  -62.6640 C.2   393  PHE393      0.2596
     62  O         40.5500   43.1480  -63.6550 O.2   393  PHE393     -0.2718
     63  CB        43.1640   41.5840  -63.0930 C.3   393  PHE393      0.0547
     64  CG        42.9500   40.6470  -61.8730 C.ar  393  PHE393     -0.0202
     65  CD1       41.7370   40.0990  -61.6310 C.ar  393  PHE393     -0.0042
     66  CD2       44.0450   40.3280  -61.0620 C.ar  393  PHE393     -0.0042
     67  CE1       41.5870   39.1880  -60.5280 C.ar  393  PHE393     -0.0003
     68  CE2       43.8570   39.4270  -59.9650 C.ar  393  PHE393     -0.0003
     69  CZ        42.6150   38.9280  -59.7730 C.ar  393  PHE393     -0.0000
     70  N         40.7490   43.2220  -61.3980 N.am  394  GLY394     -0.1942
     71  CA        39.2930   43.3210  -61.2470 C.3   394  GLY394      0.2014
     72  C         38.8110   44.7540  -61.2190 C.2   394  GLY394      0.2639
     73  O         39.4160   45.5720  -60.4630 O.2   394  GLY394     -0.2714
     74  N         37.7650   45.0550  -61.9070 N.am  395  GLY395     -0.1939
     75  CA        37.3010   46.4770  -61.9080 C.3   395  GLY395      0.2014
     76  C         37.0010   46.9550  -60.5030 C.2   395  GLY395      0.2639
     77  O         37.2090   48.1220  -60.1760 O.2   395  GLY395     -0.2714
     78  N         36.4760   46.0790  -59.6360 N.am  396  SER396     -0.1949
     79  CA        36.1430   46.5900  -58.2460 C.3   396  SER396      0.1924
     80  C         37.3870   47.0550  -57.5480 C.2   396  SER396      0.2314
     81  O         37.2890   48.0320  -56.7670 O.2   396  SER396     -0.2863
     82  CB        35.5880   45.4550  -57.4250 C.3   396  SER396      0.2116
     83  OG        34.4260   44.8440  -58.0450 O.3   396  SER396     -0.2180
     84  N         32.6710   47.8720  -61.1740 N.3   438  GLY438     -0.1210
     85  CA        33.0600   46.7090  -60.3980 C.3   438  GLY438      0.1956
     86  C         32.2830   45.4830  -60.8000 C.2   438  GLY438      0.2612
     87  O         31.7910   45.3000  -61.9030 O.2   438  GLY438     -0.2717
     88  N         32.1420   44.6140  -59.7830 N.am  439  PHE439     -0.1962
     89  CA        31.3830   43.3290  -59.9380 C.3   439  PHE439      0.1771
     90  C         29.9290   43.6620  -60.0160 C.2   439  PHE439      0.2619
     91  O         29.4680   44.8220  -59.9590 O.2   439  PHE439     -0.2715
     92  CB        31.7790   42.3670  -58.7990 C.3   439  PHE439      0.0574
     93  CG        31.1500   42.7230  -57.4400 C.ar  439  PHE439     -0.0200
     94  CD1       31.8330   43.5570  -56.5390 C.ar  439  PHE439     -0.0042
     95  CD2       29.9200   42.1600  -57.1120 C.ar  439  PHE439     -0.0042
     96  CE1       31.2040   43.9050  -55.3500 C.ar  439  PHE439     -0.0003
     97  CE2       29.3410   42.5220  -55.8880 C.ar  439  PHE439     -0.0003
     98  CZ        29.9570   43.4270  -55.0440 C.ar  439  PHE439     -0.0000
     99  N         29.0770   42.6200  -60.2690 N.am  440  TYR440     -0.1974
    100  CA        27.6860   42.8030  -60.5750 C.3   440  TYR440      0.1639
    101  C         26.9920   43.7520  -59.5880 C.2   440  TYR440      0.2290
    102  O         26.0770   44.4990  -59.9430 O.2   440  TYR440     -0.2864
    103  CB        27.0150   41.3660  -60.4610 C.3   440  TYR440      0.0560
    104  CG        25.9360   41.0240  -61.4430 C.ar  440  TYR440     -0.0198
    105  CD1       25.0310   41.9230  -61.9360 C.ar  440  TYR440     -0.0009
    106  CD2       25.8210   39.6830  -61.7980 C.ar  440  TYR440     -0.0009
    107  CE1       23.9870   41.5080  -62.8340 C.ar  440  TYR440      0.0417
    108  CE2       24.8400   39.2590  -62.6980 C.ar  440  TYR440      0.0417
    109  CZ        23.9390   40.1600  -63.1280 C.ar  440  TYR440      0.1957
    110  OH        22.9530   39.6940  -64.0400 O.3   440  TYR440     -0.2866
@<TRIPOS>BOND
     1   110   109    1
     2    62    61    2
     3   109   107   ar
     4   109   108   ar
     5    63    60    1
     6    63    64    1
     7   107   105   ar
     8    60    61    1
     9    60    59    1
    10   108   106   ar
    11    61    70   am
    12   105   104   ar
    13    75    74    1
    14    75    76    1
    15    74    72   am
    16    87    86    2
    17    64    65   ar
    18    64    66   ar
    19   106   104   ar
    20    65    67   ar
    21   104   103    1
    22    70    71    1
    23    71    72    1
    24    72    73    2
    25    84    85    1
    26    66    68   ar
    27    86    85    1
    28    86    88   am
    29   100   103    1
    30   100    99    1
    31   100   101    1
    32    67    69   ar
    33    76    77    2
    34    76    78   am
    35    99    90   am
    36    90    91    2
    37    90    89    1
    38    68    69   ar
    39   102   101    2
    40    89    88    1
    41    89    92    1
    42    78    79    1
    43    92    93    1
    44    79    80    1
    45    79    82    1
    46    83    82    1
    47    80    81    2
    48    93    95   ar
    49    93    94   ar
    50    95    97   ar
    51    58    57    1
    52    94    96   ar
    53    45    44    2
    54    55    57   ar
    55    55    53   ar
    56    97    98   ar
    57    46    44   am
    58    57    56   ar
    59    44    43    1
    60    96    98   ar
    61    53    52   ar
    62    42    43    1
    63    42    39    1
    64    56    54   ar
    65    41    40    2
    66    52    54   ar
    67    52    51    1
    68    40    39    1
    69    40    47   am
    70    39    38    1
    71    47    48    1
    72    48    51    1
    73    48    49    1
    74    14    13    1
    75    15    13    1
    76    38    33   am
    77    13    10    1
    78    50    49    2
    79    19    18    2
    80    28    26   ar
    81    28    30   ar
    82    26    25   ar
    83    30    29   ar
    84    33    34    2
    85    33    32    1
    86    10     9    1
    87    10    11    1
    88    18    20   am
    89    18    17    1
    90    21    22    1
    91    21    24    1
    92    21    20    1
    93    16    11   am
    94    16    17    1
    95    31    22   am
    96    31    32    1
    97    25    24    1
    98    25    27   ar
    99     9     7   am
   100    22    23    2
   101    11    12    2
   102    35    32    1
   103    35    37    1
   104    35    36    1
   105    29    27   ar
   106     7     6    1
   107     7     8    2
   108     4     3    2
   109     6     5    1
   110     3     5   am
   111     3     2    1
   112     1     2    1
