@<TRIPOS>MOLECULE
tmp/3m2rD03.pdb
 83 79 0 0 0
SMALL
GASTEIGER

@<TRIPOS>ATOM
      1  N         19.0390   39.6600  -39.6030 N.3   268  ARG268     -0.1245
      2  CA        19.4530   38.9570  -40.7970 C.3   268  ARG268      0.1563
      3  C         20.9180   38.6420  -40.7170 C.2   268  ARG268      0.2260
      4  O         21.3830   37.6310  -41.3170 O.2   268  ARG268     -0.2867
      5  CB        19.0880   39.7790  -42.0510 C.3   268  ARG268      0.0307
      6  CG        19.4300   38.9680  -43.3350 C.3   268  ARG268      0.0489
      7  CD        19.0580   39.7840  -44.5900 C.3   268  ARG268      0.2205
      8  NE        17.6550   39.9850  -44.7870 N.pl3 268  ARG268     -0.0865
      9  CZ        16.8290   39.0650  -45.2890 C.cat 268  ARG268      0.5346
     10  NH1       17.3160   37.9300  -45.8510 N.pl3 268  ARG268      0.1354
     11  NH2       15.5300   39.2410  -45.2480 N.pl3 268  ARG268      0.1354
     12  N         33.5080   40.6830  -44.4510 N.3   317  LEU317     -0.1245
     13  CA        32.7010   40.3410  -45.6070 C.3   317  LEU317      0.1561
     14  C         33.1430   38.9990  -46.2250 C.2   317  LEU317      0.2260
     15  O         32.2230   38.2720  -46.6920 O.2   317  LEU317     -0.2867
     16  CB        32.7300   41.4370  -46.6550 C.3   317  LEU317      0.0270
     17  CG        32.0120   42.7230  -46.1590 C.3   317  LEU317      0.0019
     18  CD1       32.1220   43.7970  -47.2730 C.3   317  LEU317      0.0001
     19  CD2       30.5520   42.5080  -45.8410 C.3   317  LEU317      0.0001
     20  N         30.4980   37.0620  -43.3260 N.3   321  MET321     -0.1230
     21  CA        29.3600   37.2770  -44.1600 C.3   321  MET321      0.1702
     22  C         29.3590   36.4910  -45.4770 C.2   321  MET321      0.2593
     23  O         28.4520   36.6550  -46.2790 O.2   321  MET321     -0.2718
     24  CB        29.1950   38.7450  -44.5480 C.3   321  MET321      0.0401
     25  CG        28.8550   39.6580  -43.3570 C.3   321  MET321      0.0596
     26  SD        27.2830   39.2550  -42.5670 S.3   321  MET321     -0.1393
     27  CE        26.1340   39.3130  -44.0070 C.3   321  MET321      0.0692
     28  N         30.3680   35.6050  -45.6780 N.am  322  SER322     -0.1952
     29  CA        30.3950   34.7610  -46.9110 C.3   322  SER322      0.1924
     30  C         31.2600   33.5640  -46.6100 C.2   322  SER322      0.2314
     31  O         30.7170   32.5970  -46.0480 O.2   322  SER322     -0.2863
     32  CB        30.7700   35.5660  -48.1770 C.3   322  SER322      0.2116
     33  OG        32.1440   36.0780  -48.1320 O.3   322  SER322     -0.2180
     34  N         37.9680   36.9530  -50.0890 N.3   327  PHE327     -0.1241
     35  CA        38.1440   38.3020  -50.7220 C.3   327  PHE327      0.1605
     36  C         39.5280   38.8450  -50.4760 C.2   327  PHE327      0.2264
     37  O         39.6950   40.0980  -50.2780 O.2   327  PHE327     -0.2867
     38  CB        37.0600   39.2390  -50.1920 C.3   327  PHE327      0.0534
     39  CG        35.6430   38.8300  -50.5070 C.ar  327  PHE327     -0.0203
     40  CD1       35.3340   38.1400  -51.6750 C.ar  327  PHE327     -0.0042
     41  CD2       34.6090   39.1870  -49.6530 C.ar  327  PHE327     -0.0042
     42  CE1       33.9910   37.8370  -51.9780 C.ar  327  PHE327     -0.0003
     43  CE2       33.2910   38.8530  -49.9270 C.ar  327  PHE327     -0.0003
     44  CZ        32.9760   38.2400  -51.1470 C.ar  327  PHE327     -0.0000
     45  N         32.1420   44.6140  -59.7830 N.3   439  PHE439     -0.1241
     46  CA        31.3830   43.3290  -59.9380 C.3   439  PHE439      0.1605
     47  C         29.9290   43.6620  -60.0160 C.2   439  PHE439      0.2264
     48  O         29.4680   44.8220  -59.9590 O.2   439  PHE439     -0.2867
     49  CB        31.7790   42.3670  -58.7990 C.3   439  PHE439      0.0534
     50  CG        31.1500   42.7230  -57.4400 C.ar  439  PHE439     -0.0203
     51  CD1       31.8330   43.5570  -56.5390 C.ar  439  PHE439     -0.0042
     52  CD2       29.9200   42.1600  -57.1120 C.ar  439  PHE439     -0.0042
     53  CE1       31.2040   43.9050  -55.3500 C.ar  439  PHE439     -0.0003
     54  CE2       29.3410   42.5220  -55.8880 C.ar  439  PHE439     -0.0003
     55  CZ        29.9570   43.4270  -55.0440 C.ar  439  PHE439     -0.0000
     56  N         25.9280   47.4970  -46.1330 N.3   473  ALA473     -0.1231
     57  CA        25.9600   46.2760  -45.2820 C.3   473  ALA473      0.1694
     58  C         26.4250   45.0640  -46.0480 C.2   473  ALA473      0.2592
     59  O         26.6130   43.9970  -45.3600 O.2   473  ALA473     -0.2718
     60  CB        24.5820   46.0520  -44.7760 C.3   473  ALA473      0.0304
     61  N         26.5810   45.0860  -47.3540 N.am  474  MET474     -0.1965
     62  CA        26.8830   43.8670  -48.1550 C.3   474  MET474      0.1736
     63  C         28.2310   43.8480  -48.8130 C.2   474  MET474      0.2616
     64  O         28.7370   42.7030  -49.0150 O.2   474  MET474     -0.2715
     65  CB        25.7940   43.7130  -49.2260 C.3   474  MET474      0.0427
     66  CG        24.4150   43.4710  -48.6380 C.3   474  MET474      0.0599
     67  SD        23.0450   44.1620  -49.6610 S.3   474  MET474     -0.1393
     68  CE        23.1890   45.8760  -49.2010 C.3   474  MET474      0.0692
     69  N         28.7370   44.9590  -49.3510 N.am  475  ASN475     -0.1958
     70  CA        29.6710   44.7780  -50.4690 C.3   475  ASN475      0.1819
     71  C         31.1320   45.0920  -50.2110 C.2   475  ASN475      0.2621
     72  O         31.4530   46.0860  -49.5240 O.2   475  ASN475     -0.2715
     73  CB        29.1370   45.5370  -51.6870 C.3   475  ASN475      0.1195
     74  CG        27.7090   45.1960  -52.0170 C.2   475  ASN475      0.2630
     75  OD1       26.7950   45.9900  -51.9870 O.2   475  ASN475     -0.2716
     76  ND2       27.5040   43.8680  -52.3620 N.am  475  ASN475     -0.0877
     77  N         32.0070   44.3210  -50.8490 N.am  476  VAL476     -0.1977
     78  CA        33.4390   44.5100  -50.7250 C.3   476  VAL476      0.1596
     79  C         33.8760   45.8110  -51.3850 C.2   476  VAL476      0.2287
     80  O         33.1440   46.4450  -52.1730 O.2   476  VAL476     -0.2864
     81  CB        34.2650   43.4110  -51.4370 C.3   476  VAL476      0.0276
     82  CG1       34.0510   42.1050  -50.7450 C.3   476  VAL476      0.0022
     83  CG2       33.8460   43.2750  -52.9210 C.3   476  VAL476      0.0022
@<TRIPOS>BOND
     1    47    48    2
     2    47    46    1
     3    46    45    1
     4    46    49    1
     5    49    50    1
     6    50    52   ar
     7    50    51   ar
     8    52    54   ar
     9    51    53   ar
    10    54    55   ar
    11    53    55   ar
    12    83    81    1
    13    76    74   am
    14    80    79    2
    15    74    75    2
    16    74    73    1
    17    42    40   ar
    18    42    44   ar
    19    73    70    1
    20    40    39   ar
    21    81    82    1
    22    81    78    1
    23    79    78    1
    24    44    43   ar
    25    77    78    1
    26    77    71   am
    27    35    36    1
    28    35    38    1
    29    35    34    1
    30    39    38    1
    31    39    41   ar
    32    36    37    2
    33    70    71    1
    34    70    69    1
    35    71    72    2
    36    43    41   ar
    37    67    68    1
    38    67    66    1
    39    69    63   am
    40    65    66    1
    41    65    62    1
    42    64    63    2
    43    63    62    1
    44    32    33    1
    45    32    29    1
    46    62    61    1
    47    61    58   am
    48    18    17    1
    49    29    30    1
    50    29    28    1
    51    15    14    2
    52    16    17    1
    53    16    13    1
    54    30    31    2
    55    23    22    2
    56    14    13    1
    57    17    19    1
    58    56    57    1
    59    58    59    2
    60    58    57    1
    61    10     9    1
    62    28    22   am
    63    13    12    1
    64    22    21    1
    65     9    11    1
    66     9     8    2
    67    57    60    1
    68     8     7    1
    69     7     6    1
    70    24    21    1
    71    24    25    1
    72    21    20    1
    73    27    26    1
    74    25    26    1
    75     6     5    1
    76     5     2    1
    77     4     3    2
    78     2     3    1
    79     2     1    1
