@<TRIPOS>MOLECULE
tmp/3m2rD01.pdb
 116 111 0 0 0
SMALL
GASTEIGER

@<TRIPOS>ATOM
      1  N         41.5650   33.8840  -12.6540 N.3   142  ALA142     -0.1231
      2  CA        42.0340   33.3380  -11.3780 C.3   142  ALA142      0.1694
      3  C         41.2330   33.9740  -10.2110 C.2   142  ALA142      0.2592
      4  O         40.6310   35.0270  -10.3520 O.2   142  ALA142     -0.2718
      5  CB        43.5890   33.5690  -11.2160 C.3   142  ALA142      0.0304
      6  N         41.2650   33.2140   -9.1080 N.am  143  ALA143     -0.1966
      7  CA        40.2980   33.4630   -8.0000 C.3   143  ALA143      0.1728
      8  C         40.8460   34.4010   -6.9510 C.2   143  ALA143      0.2616
      9  O         42.0810   34.3990   -6.6980 O.2   143  ALA143     -0.2715
     10  CB        39.9760   32.1840   -7.3480 C.3   143  ALA143      0.0334
     11  N         39.9680   35.0950   -6.2650 N.am  144  VAL144     -0.1963
     12  CA        40.3450   35.9890   -5.1770 C.3   144  VAL144      0.1727
     13  C         39.5380   35.7740   -3.8830 C.2   144  VAL144      0.2616
     14  O         39.9590   36.3240   -2.8410 O.2   144  VAL144     -0.2715
     15  CB        40.2850   37.4940   -5.5470 C.3   144  VAL144      0.0290
     16  CG1       41.4360   37.8120   -6.5860 C.3   144  VAL144      0.0023
     17  CG2       38.9200   37.9030   -6.1270 C.3   144  VAL144      0.0023
     18  N         38.3840   35.0820   -3.9220 N.am  145  VAL145     -0.1963
     19  CA        37.5650   34.9330   -2.6810 C.3   145  VAL145      0.1727
     20  C         37.2670   33.5690   -2.2990 C.2   145  VAL145      0.2616
     21  O         37.4500   33.1730   -1.0960 O.2   145  VAL145     -0.2715
     22  CB        36.2520   35.6930   -2.8700 C.3   145  VAL145      0.0290
     23  CG1       35.1850   35.4160   -1.6940 C.3   145  VAL145      0.0023
     24  CG2       36.4330   37.2210   -2.9670 C.3   145  VAL145      0.0023
     25  N         36.7100   32.7100   -3.1790 N.am  146  GLN146     -0.1963
     26  CA        36.2470   31.4230   -2.7160 C.3   146  GLN146      0.1733
     27  C         37.2840   30.3890   -2.5410 C.2   146  GLN146      0.2616
     28  O         38.3750   30.3750   -3.2550 O.2   146  GLN146     -0.2715
     29  CB        35.2790   30.8310   -3.7680 C.3   146  GLN146      0.0408
     30  CG        33.9120   31.6250   -3.8200 C.3   146  GLN146      0.0908
     31  CD        32.8100   30.9270   -4.6590 C.2   146  GLN146      0.2608
     32  OE1       32.1710   31.6930   -5.4570 O.2   146  GLN146     -0.2717
     33  NE2       32.5480   29.6900   -4.4970 N.am  146  GLN146     -0.0878
     34  N         37.0520   29.4360   -1.6180 N.am  147  GLU147     -0.1963
     35  CA        37.8410   28.2610   -1.5600 C.3   147  GLU147      0.1733
     36  C         37.5770   27.2140   -2.6570 C.2   147  GLU147      0.2616
     37  O         36.3740   27.1680   -3.1280 O.2   147  GLU147     -0.2715
     38  CB        37.6040   27.6220   -0.1260 C.3   147  GLU147      0.0429
     39  CG        38.3780   26.3710    0.1430 C.3   147  GLU147      0.1163
     40  CD        39.8810   26.5390    0.0690 C.2   147  GLU147      0.3649
     41  OE1       40.4820   26.5830   -1.0190 O.co2 147  GLU147     -0.2457
     42  OE2       40.5710   26.4810    1.1950 O.co2 147  GLU147     -0.2457
     43  N         38.5240   26.4100   -3.0350 N.am  148  HIS148     -0.1959
     44  CA        38.3890   25.3330   -3.9410 C.3   148  HIS148      0.1787
     45  C         38.0030   25.8190   -5.3960 C.2   148  HIS148      0.2620
     46  O         37.2170   25.1110   -6.0640 O.2   148  HIS148     -0.2715
     47  CB        37.4650   24.1710   -3.4730 C.3   148  HIS148      0.0785
     48  CG        37.8920   22.8730   -3.9760 C.ar  148  HIS148      0.0821
     49  ND1       37.7680   22.4290   -5.2770 N.ar  148  HIS148     -0.2267
     50  CD2       38.5790   21.8520   -3.3400 C.ar  148  HIS148      0.1154
     51  CE1       38.3940   21.2690   -5.4320 C.ar  148  HIS148      0.1986
     52  NE2       38.8840   20.8710   -4.2380 N.ar  148  HIS148     -0.2212
     53  N         38.5440   26.9400   -5.7880 N.am  149  MET149     -0.1963
     54  CA        38.4000   27.4090   -7.1900 C.3   149  MET149      0.1736
     55  C         39.4320   26.7480   -8.0420 C.2   149  MET149      0.2616
     56  O         40.6300   26.5680   -7.6340 O.2   149  MET149     -0.2715
     57  CB        38.5300   28.8940   -7.2520 C.3   149  MET149      0.0427
     58  CG        37.3790   29.7000   -6.5080 C.3   149  MET149      0.0599
     59  SD        35.7370   29.3730   -7.1720 S.3   149  MET149     -0.1393
     60  CE        35.1520   27.9530   -6.2580 C.3   149  MET149      0.0692
     61  N         39.0460   26.4640   -9.2950 N.am  150  VAL150     -0.1977
     62  CA        39.9460   25.9240  -10.3170 C.3   150  VAL150      0.1596
     63  C         40.0410   26.9790  -11.4080 C.2   150  VAL150      0.2287
     64  O         39.0480   27.6430  -11.7230 O.2   150  VAL150     -0.2864
     65  CB        39.4960   24.5510  -10.8080 C.3   150  VAL150      0.0276
     66  CG1       39.4640   23.5370   -9.6220 C.3   150  VAL150      0.0022
     67  CG2       38.0770   24.6360  -11.4840 C.3   150  VAL150      0.0022
     68  N         32.8240   40.4900  -14.9970 N.3   228  MET228     -0.1230
     69  CA        32.8440   39.4960  -13.9450 C.3   228  MET228      0.1702
     70  C         34.0580   39.7970  -13.0630 C.2   228  MET228      0.2592
     71  O         34.0040   39.6990  -11.7860 O.2   228  MET228     -0.2718
     72  CB        32.8710   38.0890  -14.4220 C.3   228  MET228      0.0401
     73  CG        31.6540   37.6230  -15.2950 C.3   228  MET228      0.0596
     74  SD        30.0240   38.0450  -14.6120 S.3   228  MET228     -0.1393
     75  CE        29.6650   39.6490  -15.3250 C.3   228  MET228      0.0692
     76  N         35.2380   40.0060  -13.7140 N.am  229  GLN229     -0.1979
     77  CA        36.5050   40.0700  -12.9630 C.3   229  GLN229      0.1601
     78  C         36.7110   41.4360  -12.4160 C.2   229  GLN229      0.2287
     79  O         37.3350   41.5130  -11.3020 O.2   229  GLN229     -0.2864
     80  CB        37.6520   39.5090  -13.8310 C.3   229  GLN229      0.0394
     81  CG        37.3320   38.1130  -14.3490 C.3   229  GLN229      0.0908
     82  CD        36.9960   37.1800  -13.2470 C.2   229  GLN229      0.2608
     83  OE1       35.8040   37.0920  -12.8580 O.2   229  GLN229     -0.2717
     84  NE2       37.9590   36.5070  -12.6450 N.am  229  GLN229     -0.0878
     85  N         34.6650   40.8790   -9.1840 N.3   232  MET232     -0.1245
     86  CA        35.3990   40.1770   -8.1540 C.3   232  MET232      0.1570
     87  C         36.4600   41.0190   -7.5550 C.2   232  MET232      0.2261
     88  O         36.7430   40.9380   -6.3180 O.2   232  MET232     -0.2867
     89  CB        36.0310   38.9170   -8.6710 C.3   232  MET232      0.0387
     90  CG        34.9940   37.7890   -9.0360 C.3   232  MET232      0.0595
     91  SD        33.8010   37.4700   -7.6850 S.3   232  MET232     -0.1393
     92  CE        34.9060   37.1990   -6.2640 C.3   232  MET232      0.0692
     93  N         35.0690   43.5960   -5.1370 N.3   235  ILE235     -0.1245
     94  CA        34.7740   42.8710   -3.8560 C.3   235  ILE235      0.1561
     95  C         36.0930   42.7410   -3.0730 C.2   235  ILE235      0.2260
     96  O         36.1040   43.0970   -1.8460 O.2   235  ILE235     -0.2867
     97  CB        34.1280   41.5280   -4.1520 C.3   235  ILE235      0.0252
     98  CG1       32.6580   41.7380   -4.5230 C.3   235  ILE235      0.0019
     99  CG2       34.1700   40.6430   -2.8250 C.3   235  ILE235      0.0019
    100  CD1       32.0260   40.4800   -5.1330 C.3   235  ILE235      0.0001
    101  N         30.8670   39.6290    0.0190 N.3   242  ALA242     -0.1231
    102  CA        31.0750   38.9780   -1.3390 C.3   242  ALA242      0.1694
    103  C         29.6780   38.6140   -1.8740 C.2   242  ALA242      0.2589
    104  O         29.2850   37.4630   -1.9400 O.2   242  ALA242     -0.2718
    105  CB        32.0790   37.8700   -1.2210 C.3   242  ALA242      0.0304
    106  N         29.0680   39.7120   -2.3550 N.am  243  GLY243     -0.2014
    107  CA        27.6800   39.5840   -2.8810 C.3   243  GLY243      0.1506
    108  C         26.6590   40.3240   -2.0290 C.3   243  GLY243      0.2054
    109  O         25.7920   39.5840   -1.3870 O.3   243  GLY243     -0.2184
    110  N         26.8890   45.3760   -4.8380 N.3   247  THR247     -0.1218
    111  CA        27.5760   44.5810   -5.8990 C.3   247  THR247      0.1862
    112  C         26.9340   44.7680   -7.2420 C.2   247  THR247      0.2287
    113  O         27.6710   44.8590   -8.2650 O.2   247  THR247     -0.2866
    114  CB        27.6450   43.1260   -5.4740 C.3   247  THR247      0.1770
    115  OG1       28.1820   43.0110   -4.1110 O.3   247  THR247     -0.2211
    116  CG2       28.5940   42.3210   -6.4150 C.3   247  THR247      0.0375
@<TRIPOS>BOND
     1    75    74    1
     2    73    74    1
     3    73    72    1
     4    68    69    1
     5    72    69    1
     6    81    80    1
     7    81    82    1
     8    69    70    1
     9    80    77    1
    10    76    70   am
    11    76    77    1
    12    82    83    2
    13    82    84   am
    14    70    71    2
    15    77    78    1
    16     1     2    1
    17    78    79    2
    18    64    63    2
    19    67    65    1
    20    63    62    1
    21     2     5    1
    22     2     3    1
    23    65    62    1
    24    65    66    1
    25     4     3    2
    26    62    61    1
    27     3     6   am
    28    61    55   am
    29    85    86    1
    30     6     7    1
    31    90    89    1
    32    90    91    1
    33    89    86    1
    34   113   112    2
    35    86    87    1
    36    55    56    2
    37    55    54    1
    38     7    10    1
    39     7     8    1
    40    91    92    1
    41    87    88    2
    42    57    54    1
    43    57    58    1
    44   112   111    1
    45    54    53    1
    46    59    58    1
    47    59    60    1
    48     8     9    2
    49     8    11   am
    50    16    15    1
    51   116   114    1
    52    11    12    1
    53    17    15    1
    54    46    45    2
    55   111   114    1
    56   111   110    1
    57    53    45   am
    58    15    12    1
    59   114   115    1
    60    32    31    2
    61    51    49   ar
    62    51    52   ar
    63    45    44    1
    64    49    48   ar
    65    12    13    1
    66    93    94    1
    67   100    98    1
    68    31    33   am
    69    31    30    1
    70    98    97    1
    71    52    50   ar
    72    97    94    1
    73    97    99    1
    74    48    47    1
    75    48    50   ar
    76    44    47    1
    77    44    43    1
    78    18    13   am
    79    18    19    1
    80    13    14    2
    81    94    95    1
    82    30    29    1
    83    29    26    1
    84    28    27    2
    85    25    26    1
    86    25    20   am
    87    37    36    2
    88    95    96    2
    89    43    36   am
    90    24    22    1
    91   107   106    1
    92   107   108    1
    93    22    19    1
    94    22    23    1
    95    26    27    1
    96    19    20    1
    97    36    35    1
    98    27    34   am
    99   106   103   am
   100    20    21    2
   101   108   109    1
   102   104   103    2
   103   103   102    1
   104    34    35    1
   105    35    38    1
   106   102   105    1
   107   102   101    1
   108    41    40   ar
   109    38    39    1
   110    40    39    1
   111    40    42   ar
