@<TRIPOS>MOLECULE
tmp/3m2tB00.pdb
 228 223 0 0 0
SMALL
GASTEIGER

@<TRIPOS>ATOM
      1  N         44.8110    3.1050   86.7400 N.3    10  VAL10      -0.1231
      2  CA        45.6020    2.2380   85.8690 C.3    10  VAL10       0.1692
      3  C         47.0970    2.5750   86.0860 C.2    10  VAL10       0.2592
      4  O         47.4770    3.7590   85.9670 O.2    10  VAL10      -0.2718
      5  CB        45.2760    2.4670   84.3620 C.3    10  VAL10       0.0266
      6  CG1       45.9930    1.4300   83.5260 C.3    10  VAL10       0.0020
      7  CG2       43.7540    2.4900   84.0950 C.3    10  VAL10       0.0020
      8  N         47.9190    1.5500   86.3730 N.am   11  GLY11      -0.1957
      9  CA        49.3590    1.7190   86.5470 C.3    11  GLY11       0.1869
     10  C         49.7040    2.1050   87.9830 C.2    11  GLY11       0.2309
     11  O         49.8790    3.2720   88.2650 O.2    11  GLY11      -0.2863
     12  N         52.4060    1.9710   89.8210 N.3    13  GLY13      -0.1210
     13  CA        53.7990    2.0910   90.1460 C.3    13  GLY13       0.1956
     14  C         54.1600    3.2470   91.0810 C.2    13  GLY13       0.2612
     15  O         53.3940    3.6540   91.9900 O.2    13  GLY13      -0.2717
     16  N         55.3530    3.7900   90.8730 N.am   14  ALA14      -0.1965
     17  CA        55.9190    4.7130   91.8680 C.3    14  ALA14       0.1728
     18  C         55.2140    6.0720   91.9060 C.2    14  ALA14       0.2616
     19  O         54.9150    6.5910   92.9890 O.2    14  ALA14      -0.2715
     20  CB        57.4490    4.8820   91.6660 C.3    14  ALA14       0.0334
     21  N         54.9540    6.6560   90.7460 N.am   15  GLN15      -0.1977
     22  CA        54.3090    7.9730   90.7420 C.3    15  GLN15       0.1601
     23  C         52.8410    7.8630   91.1390 C.2    15  GLN15       0.2287
     24  O         52.3090    8.7670   91.7590 O.2    15  GLN15      -0.2864
     25  CB        54.4560    8.7420   89.4210 C.3    15  GLN15       0.0394
     26  CG        53.4400    9.9390   89.2700 C.3    15  GLN15       0.0908
     27  CD        53.8110   11.2480   90.0420 C.2    15  GLN15       0.2608
     28  OE1       54.8380   11.3300   90.7250 O.2    15  GLN15      -0.2717
     29  NE2       52.9510   12.2680   89.9300 N.am   15  GLN15      -0.0878
     30  N         43.8630   -1.2170   88.2460 N.3    34  CYS34      -0.1221
     31  CA        44.2540   -2.0890   87.1580 C.3    34  CYS34       0.1808
     32  C         45.7740   -2.0040   86.9770 C.2    34  CYS34       0.2601
     33  O         46.3020   -0.9160   86.9930 O.2    34  CYS34      -0.2717
     34  CB        43.5190   -1.6250   85.9050 C.3    34  CYS34       0.0970
     35  SG        44.1520   -2.2400   84.4000 S.3    34  CYS34      -0.0800
     36  N         46.4550   -3.1410   86.8100 N.am   35  ASP35      -0.1959
     37  CA        47.8940   -3.2160   86.5370 C.3    35  ASP35       0.1840
     38  C         48.2440   -4.5980   85.9070 C.2    35  ASP35       0.2623
     39  O         47.6720   -5.6260   86.3000 O.2    35  ASP35      -0.2715
     40  CB        48.6860   -2.9900   87.8290 C.3    35  ASP35       0.1450
     41  CG        50.1640   -2.6340   87.5750 C.2    35  ASP35       0.3671
     42  OD1       50.5300   -1.4410   87.6980 O.co2  35  ASP35      -0.2456
     43  OD2       50.9680   -3.5430   87.2630 O.co2  35  ASP35      -0.2456
     44  N         49.1440   -4.6220   84.9130 N.am   36  SER36      -0.1936
     45  CA        49.7540   -5.8750   84.4170 C.3    36  SER36       0.2055
     46  C         50.0450   -6.8770   85.5180 C.2    36  SER36       0.2643
     47  O         49.8400   -8.0580   85.3520 O.2    36  SER36      -0.2714
     48  CB        51.1070   -5.5880   83.7730 C.3    36  SER36       0.2130
     49  OG        50.9710   -4.7470   82.6530 O.3    36  SER36      -0.2179
     50  N         50.6010   -6.3690   86.6140 N.am   37  ASP37      -0.1971
     51  CA        51.0100   -7.1350   87.7700 C.3    37  ASP37       0.1709
     52  C         49.9300   -6.9800   88.8220 C.2    37  ASP37       0.2293
     53  O         49.8940   -5.9900   89.5650 O.2    37  ASP37      -0.2864
     54  CB        52.3360   -6.5620   88.2970 C.3    37  ASP37       0.1436
     55  CG        52.9160   -7.3550   89.4880 C.2    37  ASP37       0.3671
     56  OD1       52.2580   -8.2830   90.0090 O.co2  37  ASP37      -0.2456
     57  OD2       54.0660   -7.0330   89.9060 O.co2  37  ASP37      -0.2456
     58  N         50.6950   -5.4980   92.1280 N.3    40  ARG40      -0.1245
     59  CA        50.7840   -4.0350   92.1760 C.3    40  ARG40       0.1563
     60  C         49.3730   -3.4650   92.2670 C.2    40  ARG40       0.2260
     61  O         49.1240   -2.5950   93.0720 O.2    40  ARG40      -0.2867
     62  CB        51.5040   -3.4600   90.9550 C.3    40  ARG40       0.0307
     63  CG        53.0120   -3.6720   90.9670 C.3    40  ARG40       0.0489
     64  CD        53.7700   -2.7210   90.0270 C.3    40  ARG40       0.2205
     65  NE        55.1510   -2.6580   90.4820 N.pl3  40  ARG40      -0.0865
     66  CZ        56.0770   -1.7960   90.0640 C.cat  40  ARG40       0.5346
     67  NH1       55.7840   -0.8870   89.1290 N.pl3  40  ARG40       0.1354
     68  NH2       57.3070   -1.8570   90.5950 N.pl3  40  ARG40       0.1354
     69  N         43.8840   -6.9190   85.4330 N.3    55  ASP55      -0.1225
     70  CA        45.2390   -6.8350   84.9160 C.3    55  ASP55       0.1805
     71  C         45.2350   -6.2400   83.5480 C.2    55  ASP55       0.2598
     72  O         46.2630   -6.2500   82.8720 O.2    55  ASP55      -0.2718
     73  CB        45.9820   -8.1970   84.9560 C.3    55  ASP55       0.1424
     74  CG        45.4200   -9.2170   83.9810 C.2    55  ASP55       0.3668
     75  OD1       44.4820   -8.9170   83.2180 O.co2  55  ASP55      -0.2456
     76  OD2       45.9300  -10.3480   83.9820 O.co2  55  ASP55      -0.2456
     77  N         44.0730   -5.7280   83.1410 N.am   56  ASN56      -0.1960
     78  CA        43.9760   -5.0090   81.8850 C.3    56  ASN56       0.1819
     79  C         42.8060   -4.0240   81.8380 C.2    56  ASN56       0.2621
     80  O         41.7440   -4.2350   82.4450 O.2    56  ASN56      -0.2715
     81  CB        43.9600   -5.9730   80.6860 C.3    56  ASN56       0.1195
     82  CG        42.6810   -6.7920   80.6070 C.2    56  ASN56       0.2630
     83  OD1       42.5220   -7.7970   81.3150 O.2    56  ASN56      -0.2716
     84  ND2       41.7580   -6.3590   79.7620 N.am   56  ASN56      -0.0877
     85  N         43.0240   -2.9290   81.1250 N.am   57  VAL57      -0.1977
     86  CA        42.0570   -1.8530   81.0820 C.3    57  VAL57       0.1596
     87  C         40.7050   -2.2480   80.4580 C.2    57  VAL57       0.2287
     88  O         39.6360   -1.8640   80.9750 O.2    57  VAL57      -0.2864
     89  CB        42.6020   -0.6130   80.3840 C.3    57  VAL57       0.0276
     90  CG1       41.4580    0.3690   80.0960 C.3    57  VAL57       0.0022
     91  CG2       43.6600    0.0630   81.2570 C.3    57  VAL57       0.0022
     92  N         48.8830    6.3000   85.4160 N.3    70  ALA70      -0.1231
     93  CA        50.3040    6.5820   85.5750 C.3    70  ALA70       0.1694
     94  C         51.2040    5.4280   85.0350 C.2    70  ALA70       0.2593
     95  O         51.8080    4.6610   85.7760 O.2    70  ALA70      -0.2718
     96  CB        50.6300    6.9290   87.0360 C.3    70  ALA70       0.0304
     97  N         51.2840    5.3310   83.7210 N.am   71  GLY71      -0.1943
     98  CA        52.1700    4.3940   83.0870 C.3    71  GLY71       0.1998
     99  C         52.8870    5.0350   81.9120 C.2    71  GLY71       0.2480
    100  O         53.0220    6.2780   81.8710 O.2    71  GLY71      -0.2729
    101  N         53.3610    4.2060   80.9580 N.am   72  PRO72      -0.2726
    102  CA        54.1420    4.6660   79.8010 C.3    72  PRO72       0.1402
    103  C         53.2440    5.3680   78.8260 C.2    72  PRO72       0.2269
    104  O         52.0380    5.1780   78.9460 O.2    72  PRO72      -0.2865
    105  CB        54.6810    3.3640   79.1820 C.3    72  PRO72       0.0296
    106  CG        54.5520    2.3090   80.2710 C.3    72  PRO72       0.0237
    107  CD        53.3880    2.7270   81.1110 C.3    72  PRO72       0.0939
    108  N         52.7350    4.8340   75.7280 N.3    74  GLN74      -0.1231
    109  CA        52.0500    3.8150   74.9220 C.3    74  GLN74       0.1698
    110  C         50.7290    3.4070   75.5890 C.2    74  GLN74       0.2592
    111  O         49.6870    3.2580   74.9280 O.2    74  GLN74      -0.2718
    112  CB        52.9790    2.6100   74.6560 C.3    74  GLN74       0.0381
    113  CG        53.3500    1.6910   75.8930 C.3    74  GLN74       0.0905
    114  CD        54.7370    0.9280   75.7610 C.2    74  GLN74       0.2608
    115  OE1       55.8170    1.4490   76.1830 O.2    74  GLN74      -0.2717
    116  NE2       54.6990   -0.2950   75.1800 N.am   74  GLN74      -0.0878
    117  N         50.7590    3.2750   76.9130 N.am   75  LEU75      -0.1966
    118  CA        49.5530    2.9430   77.6650 C.3    75  LEU75       0.1728
    119  C         48.5950    4.1420   77.7030 C.2    75  LEU75       0.2616
    120  O         47.3850    3.9890   77.5370 O.2    75  LEU75      -0.2715
    121  CB        49.9150    2.5160   79.0840 C.3    75  LEU75       0.0311
    122  CG        48.6940    2.4980   79.9900 C.3    75  LEU75       0.0022
    123  CD1       47.8340    1.2810   79.6640 C.3    75  LEU75       0.0001
    124  CD2       49.0470    2.5540   81.4800 C.3    75  LEU75       0.0001
    125  N         49.1260    5.3380   77.9440 N.am   76  HIS76      -0.1973
    126  CA        48.2750    6.5040   77.9730 C.3    76  HIS76       0.1656
    127  C         47.5610    6.6970   76.6590 C.2    76  HIS76       0.2291
    128  O         46.3600    7.0220   76.6230 O.2    76  HIS76      -0.2864
    129  CB        49.0810    7.7420   78.3410 C.3    76  HIS76       0.0771
    130  CG        49.6140    7.6750   79.7260 C.ar   76  HIS76       0.0820
    131  ND1       50.6300    8.4780   80.1770 N.ar   76  HIS76      -0.2267
    132  CD2       49.2810    6.8720   80.7670 C.ar   76  HIS76       0.1154
    133  CE1       50.8960    8.1810   81.4350 C.ar   76  HIS76       0.1986
    134  NE2       50.0880    7.2170   81.8220 N.ar   76  HIS76      -0.2212
    135  N         49.1440   10.7640   83.5900 N.3    91  GLU91      -0.1231
    136  CA        50.4450   11.3580   83.8570 C.3    91  GLU91       0.1699
    137  C         51.1240   11.7460   82.5610 C.2    91  GLU91       0.2592
    138  O         50.8340   11.1490   81.5170 O.2    91  GLU91      -0.2718
    139  CB        51.3550   10.3610   84.5290 C.3    91  GLU91       0.0402
    140  CG        51.5290   10.5840   85.9990 C.3    91  GLU91       0.1161
    141  CD        51.8280   12.0600   86.3920 C.2    91  GLU91       0.3649
    142  OE1       52.2790   12.9250   85.5690 O.co2  91  GLU91      -0.2457
    143  OE2       51.5840   12.3570   87.5740 O.co2  91  GLU91      -0.2457
    144  N         52.0380   12.7250   82.6180 N.am   92  LYS92      -0.1966
    145  CA        52.8990   12.9830   81.4690 C.3    92  LYS92       0.1713
    146  C         53.9010   11.8480   81.3510 C.2    92  LYS92       0.2458
    147  O         54.3160   11.2880   82.3520 O.2    92  LYS92      -0.2730
    148  CB        53.6250   14.3530   81.5550 C.3    92  LYS92       0.0311
    149  CG        54.0330   14.8230   82.9460 C.3    92  LYS92       0.0038
    150  CD        54.9380   13.7870   83.6400 C.3    92  LYS92       0.0206
    151  CE        56.1750   13.5100   82.8100 C.3    92  LYS92       0.1093
    152  NZ        57.1900   12.7750   83.6180 N.3    92  LYS92      -0.1314
    153  N         54.2740   11.4830   80.1150 N.am   93  PRO93      -0.2727
    154  CA        53.7470   12.0660   78.8700 C.3    93  PRO93       0.1402
    155  C         52.4820   11.3120   78.3690 C.2    93  PRO93       0.2269
    156  O         52.3530   10.0990   78.6170 O.2    93  PRO93      -0.2865
    157  CB        54.9000   11.8820   77.8870 C.3    93  PRO93       0.0296
    158  CG        55.7390   10.7080   78.4540 C.3    93  PRO93       0.0237
    159  CD        55.2900   10.4460   79.8680 C.3    93  PRO93       0.0939
    160  N         51.6820   18.9520   86.5520 N.3   119  ASN119     -0.1225
    161  CA        51.4760   19.4300   87.9060 C.3   119  ASN119      0.1785
    162  C         52.1830   20.7630   88.2420 C.2   119  ASN119      0.2597
    163  O         51.6840   21.5170   89.0800 O.2   119  ASN119     -0.2718
    164  CB        51.8410   18.3260   88.8910 C.3   119  ASN119      0.1169
    165  CG        53.3330   18.0060   88.8810 C.2   119  ASN119      0.2627
    166  OD1       54.0570   18.4260   89.7980 O.2   119  ASN119     -0.2716
    167  ND2       53.8060   17.3050   87.8440 N.am  119  ASN119     -0.0877
    168  N         53.3040   21.0610   87.5810 N.am  120  PHE120     -0.1976
    169  CA        54.0320   22.3210   87.8450 C.3   120  PHE120      0.1639
    170  C         53.0980   23.4920   87.6450 C.2   120  PHE120      0.2290
    171  O         53.0530   24.4360   88.4410 O.2   120  PHE120     -0.2864
    172  CB        55.2440   22.5010   86.9010 C.3   120  PHE120      0.0560
    173  CG        56.4340   21.6230   87.2160 C.ar  120  PHE120     -0.0200
    174  CD1       56.3060   20.2420   87.3130 C.ar  120  PHE120     -0.0042
    175  CD2       57.7020   22.1890   87.3570 C.ar  120  PHE120     -0.0042
    176  CE1       57.3930   19.4180   87.5650 C.ar  120  PHE120     -0.0003
    177  CE2       58.7770   21.4110   87.6190 C.ar  120  PHE120     -0.0003
    178  CZ        58.6330   19.9900   87.7170 C.ar  120  PHE120     -0.0000
    179  N         61.0450    3.8230   77.3350 N.3   157  TRP157     -0.1241
    180  CA        59.8750    3.2410   76.6530 C.3   157  TRP157      0.1605
    181  C         60.1640    2.7370   75.2240 C.2   157  TRP157      0.2264
    182  O         59.3430    2.9270   74.3300 O.2   157  TRP157     -0.2867
    183  CB        58.7310    4.2600   76.5920 C.3   157  TRP157      0.0550
    184  CG        58.5340    5.0370   77.8760 C.ar  157  TRP157      0.0003
    185  CD1       58.1830    4.5290   79.1060 C.ar  157  TRP157      0.0946
    186  CD2       58.6820    6.4640   78.0590 C.ar  157  TRP157      0.0152
    187  NE1       58.0910    5.5590   80.0290 N.ar  157  TRP157     -0.2442
    188  CE2       58.4040    6.7450   79.4120 C.ar  157  TRP157      0.0810
    189  CE3       59.0130    7.5220   77.2070 C.ar  157  TRP157      0.0012
    190  CZ2       58.4530    8.0550   79.9350 C.ar  157  TRP157      0.0191
    191  CZ3       59.0670    8.8380   77.7330 C.ar  157  TRP157      0.0001
    192  CH2       58.7860    9.0840   79.0760 C.ar  157  TRP157      0.0015
    193  N         60.0480   13.0890   79.3690 N.3   169  ALA169     -0.1231
    194  CA        60.0040   12.7240   80.7910 C.3   169  ALA169      0.1694
    195  C         60.1270   13.9470   81.7230 C.2   169  ALA169      0.2591
    196  O         59.5860   13.9590   82.8300 O.2   169  ALA169     -0.2718
    197  CB        61.0850   11.7050   81.1070 C.3   169  ALA169      0.0304
    198  N         60.8400   14.9730   81.2840 N.am  170  GLN170     -0.1979
    199  CA        61.2130   16.0590   82.1970 C.3   170  GLN170      0.1601
    200  C         60.8590   17.4300   81.6830 C.2   170  GLN170      0.2287
    201  O         60.1110   18.1360   82.3260 O.2   170  GLN170     -0.2864
    202  CB        62.7270   16.0780   82.4360 C.3   170  GLN170      0.0394
    203  CG        63.2670   14.7810   82.8450 C.3   170  GLN170      0.0908
    204  CD        63.0980   14.5550   84.3000 C.2   170  GLN170      0.2608
    205  OE1       63.5730   13.5390   84.8100 O.2   170  GLN170     -0.2717
    206  NE2       62.4390   15.5080   85.0090 N.am  170  GLN170     -0.0878
    207  N         57.4250   19.5380   81.3170 N.3   173  HIS173     -0.1241
    208  CA        56.9590   20.4070   82.3930 C.3   173  HIS173      0.1621
    209  C         57.3350   21.8870   82.2080 C.2   173  HIS173      0.2264
    210  O         56.5070   22.7860   82.3200 O.2   173  HIS173     -0.2867
    211  CB        57.5580   19.9280   83.7100 C.3   173  HIS173      0.0745
    212  CG        56.9560   18.6760   84.2420 C.ar  173  HIS173      0.0817
    213  ND1       55.6110   18.5580   84.5540 N.ar  173  HIS173     -0.2268
    214  CD2       57.5230   17.4790   84.5690 C.ar  173  HIS173      0.1154
    215  CE1       55.3780   17.3420   85.0320 C.ar  173  HIS173      0.1986
    216  NE2       56.5280   16.6710   85.0500 N.ar  173  HIS173     -0.2212
    217  N         49.9240   18.4210   92.6690 N.3   280  TYR280     -0.1241
    218  CA        49.2070   17.1860   92.4020 C.3   280  TYR280      0.1605
    219  C         47.7810   17.3590   92.8530 C.2   280  TYR280      0.2264
    220  O         46.8220   16.9960   92.1460 O.2   280  TYR280     -0.2867
    221  CB        49.8690   16.0290   93.1260 C.3   280  TYR280      0.0534
    222  CG        51.2710   15.8280   92.6820 C.ar  280  TYR280     -0.0201
    223  CD1       51.5570   15.5250   91.3580 C.ar  280  TYR280     -0.0009
    224  CD2       52.3180   15.9380   93.5670 C.ar  280  TYR280     -0.0009
    225  CE1       52.8710   15.3030   90.9300 C.ar  280  TYR280      0.0417
    226  CE2       53.6600   15.7320   93.1470 C.ar  280  TYR280      0.0417
    227  CZ        53.9150   15.4240   91.8360 C.ar  280  TYR280      0.1957
    228  OH        55.2090   15.2560   91.4210 O.3   280  TYR280     -0.2866
@<TRIPOS>BOND
     1   182   181    2
     2   112   109    1
     3   112   113    1
     4   109   110    1
     5   109   108    1
     6   111   110    2
     7   116   114   am
     8   181   180    1
     9   110   117   am
    10   114   113    1
    11   114   115    2
    12   183   180    1
    13   183   184    1
    14   128   127    2
    15   180   179    1
    16   127   126    1
    17   117   118    1
    18   189   191   ar
    19   189   186   ar
    20   120   119    2
    21   118   119    1
    22   118   121    1
    23   119   125   am
    24   191   192   ar
    25   184   186   ar
    26   184   185   ar
    27   157   158    1
    28   157   154    1
    29   125   126    1
    30   126   129    1
    31   186   188   ar
    32   129   130    1
    33   155   156    2
    34   155   154    1
    35   158   159    1
    36   103   104    2
    37   103   102    1
    38   154   153    1
    39   192   190   ar
    40   121   122    1
    41   185   187   ar
    42   105   102    1
    43   105   106    1
    44   193   194    1
    45   188   190   ar
    46   188   187   ar
    47   123   122    1
    48   130   131   ar
    49   130   132   ar
    50    84    82   am
    51   102   101    1
    52   159   153    1
    53   122   124    1
    54    90    89    1
    55   153   146   am
    56   131   133   ar
    57   106   107    1
    58    89    86    1
    59    89    91    1
    60    87    88    2
    61    87    86    1
    62    82    81    1
    63    82    83    2
    64    81    78    1
    65   132   134   ar
    66   194   197    1
    67   194   195    1
    68   101   107    1
    69   101    99   am
    70    86    85    1
    71    85    79   am
    72   198   195   am
    73   198   199    1
    74   207   208    1
    75   146   145    1
    76   146   147    2
    77   133   134   ar
    78   145   148    1
    79   145   144    1
    80   138   137    2
    81   148   149    1
    82   200   199    1
    83   200   201    2
    84   195   196    2
    85    79    78    1
    86    79    80    2
    87   100    99    2
    88    78    77    1
    89    99    98    1
    90   199   202    1
    91   209   210    2
    92   209   208    1
    93   208   211    1
    94   202   203    1
    95   137   144   am
    96   137   136    1
    97    49    48    1
    98   151   152    1
    99   151   150    1
   100   203   204    1
   101    72    71    2
   102   149   150    1
   103    98    97    1
   104    77    71   am
   105    75    74   ar
   106     6     5    1
   107    71    70    1
   108   135   136    1
   109   211   212    1
   110    97    94   am
   111    48    45    1
   112   136   139    1
   113    74    76   ar
   114    74    73    1
   115     7     5    1
   116   212   213   ar
   117   212   214   ar
   118   204   205    2
   119   204   206   am
   120     5     2    1
   121    35    34    1
   122    45    44    1
   123    45    46    1
   124   139   140    1
   125   213   215   ar
   126   214   216   ar
   127    44    38   am
   128    70    73    1
   129    70    69    1
   130   215   216   ar
   131    94    93    1
   132    94    95    2
   133    47    46    2
   134    92    93    1
   135    46    50   am
   136   142   141   ar
   137    93    96    1
   138     2     3    1
   139     2     1    1
   140    34    31    1
   141    38    39    2
   142    38    37    1
   143     4     3    2
   144   140   141    1
   145     3     8   am
   146     8     9    1
   147   141   143   ar
   148    37    36    1
   149    37    40    1
   150     9    10    1
   151   160   161    1
   152    50    51    1
   153    36    32   am
   154   172   173    1
   155   172   169    1
   156    32    33    2
   157    32    31    1
   158    31    30    1
   159   173   174   ar
   160   173   175   ar
   161    43    41   ar
   162   174   176   ar
   163   175   177   ar
   164   176   178   ar
   165    41    42   ar
   166    41    40    1
   167   168   169    1
   168   168   162   am
   169   177   178   ar
   170   170   169    1
   171   170   171    2
   172    51    54    1
   173    51    52    1
   174   167   165   am
   175   161   162    1
   176   161   164    1
   177    10    11    2
   178   162   163    2
   179    54    55    1
   180    52    53    2
   181   165   164    1
   182   165   166    2
   183    67    66    1
   184    26    25    1
   185    26    27    1
   186    25    22    1
   187    55    57   ar
   188    55    56   ar
   189    12    13    1
   190    29    27   am
   191    64    65    1
   192    64    63    1
   193    27    28    2
   194    66    65    2
   195    66    68    1
   196    13    14    1
   197    22    21    1
   198    22    23    1
   199    21    18   am
   200    16    14   am
   201    16    17    1
   202   225   223   ar
   203   225   227   ar
   204    62    63    1
   205    62    59    1
   206    14    15    2
   207    23    24    2
   208   223   222   ar
   209   228   227    1
   210    20    17    1
   211   227   226   ar
   212    17    18    1
   213    18    19    2
   214    58    59    1
   215   220   219    2
   216    59    60    1
   217    60    61    2
   218   218   217    1
   219   218   219    1
   220   218   221    1
   221   222   221    1
   222   222   224   ar
   223   226   224   ar
