@<TRIPOS>MOLECULE
tmp/3m2uD03.pdb
 95 91 0 0 0
SMALL
GASTEIGER

@<TRIPOS>ATOM
      1  N         18.9490   39.7050  -39.6040 N.3   268  ARG268     -0.1245
      2  CA        19.3820   38.9760  -40.8530 C.3   268  ARG268      0.1563
      3  C         20.8970   38.7060  -40.7410 C.2   268  ARG268      0.2260
      4  O         21.3110   37.6970  -41.3630 O.2   268  ARG268     -0.2867
      5  CB        19.0320   39.8410  -42.0700 C.3   268  ARG268      0.0307
      6  CG        19.3610   39.0200  -43.3740 C.3   268  ARG268      0.0489
      7  CD        18.9830   39.8880  -44.6040 C.3   268  ARG268      0.2205
      8  NE        17.5290   40.0590  -44.8110 N.pl3 268  ARG268     -0.0865
      9  CZ        16.7310   39.0930  -45.3200 C.cat 268  ARG268      0.5346
     10  NH1       17.2230   37.9720  -45.8610 N.pl3 268  ARG268      0.1354
     11  NH2       15.4000   39.2710  -45.2290 N.pl3 268  ARG268      0.1354
     12  N         33.4280   40.7710  -44.5200 N.3   317  LEU317     -0.1245
     13  CA        32.6080   40.4130  -45.6790 C.3   317  LEU317      0.1561
     14  C         33.0500   39.0570  -46.2760 C.2   317  LEU317      0.2260
     15  O         32.1480   38.3370  -46.7460 O.2   317  LEU317     -0.2867
     16  CB        32.6580   41.5030  -46.7250 C.3   317  LEU317      0.0270
     17  CG        31.9080   42.8120  -46.2700 C.3   317  LEU317      0.0019
     18  CD1       32.0480   43.9050  -47.3460 C.3   317  LEU317      0.0001
     19  CD2       30.4110   42.5990  -46.0220 C.3   317  LEU317      0.0001
     20  N         30.4440   37.0810  -43.3630 N.3   321  MET321     -0.1230
     21  CA        29.2630   37.3230  -44.2300 C.3   321  MET321      0.1702
     22  C         29.2920   36.5180  -45.5200 C.2   321  MET321      0.2593
     23  O         28.3690   36.6740  -46.3290 O.2   321  MET321     -0.2718
     24  CB        29.1440   38.8290  -44.5930 C.3   321  MET321      0.0401
     25  CG        28.8590   39.7230  -43.3490 C.3   321  MET321      0.0596
     26  SD        27.2330   39.3360  -42.5740 S.3   321  MET321     -0.1393
     27  CE        26.0940   39.4300  -44.0130 C.3   321  MET321      0.0692
     28  N         30.2830   35.6440  -45.7080 N.am  322  SER322     -0.1952
     29  CA        30.3050   34.7860  -46.9420 C.3   322  SER322      0.1924
     30  C         31.1720   33.5860  -46.6730 C.2   322  SER322      0.2314
     31  O         30.6660   32.5950  -46.0850 O.2   322  SER322     -0.2863
     32  CB        30.6870   35.5630  -48.2180 C.3   322  SER322      0.2116
     33  OG        32.0740   36.0660  -48.1760 O.3   322  SER322     -0.2180
     34  N         37.9440   37.0640  -50.1900 N.3   327  PHE327     -0.1241
     35  CA        38.1340   38.3910  -50.8300 C.3   327  PHE327      0.1605
     36  C         39.4960   39.0020  -50.5930 C.2   327  PHE327      0.2264
     37  O         39.6190   40.2140  -50.3690 O.2   327  PHE327     -0.2867
     38  CB        37.0190   39.3220  -50.2710 C.3   327  PHE327      0.0534
     39  CG        35.5850   38.9260  -50.5980 C.ar  327  PHE327     -0.0203
     40  CD1       35.2660   38.2120  -51.7590 C.ar  327  PHE327     -0.0042
     41  CD2       34.5440   39.2900  -49.7110 C.ar  327  PHE327     -0.0042
     42  CE1       33.9110   37.8560  -52.0260 C.ar  327  PHE327     -0.0003
     43  CE2       33.2290   38.8980  -49.9290 C.ar  327  PHE327     -0.0003
     44  CZ        32.8800   38.1800  -51.1200 C.ar  327  PHE327     -0.0000
     45  N         40.3930   41.7170  -53.3990 N.3   330  TYR330     -0.1241
     46  CA        39.5740   42.9400  -53.2550 C.3   330  TYR330      0.1605
     47  C         40.1680   43.9180  -52.2270 C.2   330  TYR330      0.2264
     48  O         40.1140   45.1230  -52.4260 O.2   330  TYR330     -0.2867
     49  CB        38.1150   42.6210  -52.8320 C.3   330  TYR330      0.0534
     50  CG        37.1630   42.0700  -53.9240 C.ar  330  TYR330     -0.0201
     51  CD1       36.9910   42.8260  -55.1490 C.ar  330  TYR330     -0.0009
     52  CD2       36.4700   40.9120  -53.7890 C.ar  330  TYR330     -0.0009
     53  CE1       36.0760   42.3760  -56.1490 C.ar  330  TYR330      0.0417
     54  CE2       35.5110   40.4880  -54.7650 C.ar  330  TYR330      0.0417
     55  CZ        35.3700   41.2300  -55.8750 C.ar  330  TYR330      0.1957
     56  OH        34.4750   40.8540  -56.8940 O.3   330  TYR330     -0.2866
     57  N         32.0510   44.7010  -59.8390 N.3   439  PHE439     -0.1241
     58  CA        31.2770   43.4280  -59.9840 C.3   439  PHE439      0.1605
     59  C         29.8020   43.7700  -60.0600 C.2   439  PHE439      0.2264
     60  O         29.3750   44.9330  -59.9780 O.2   439  PHE439     -0.2867
     61  CB        31.6690   42.4410  -58.8370 C.3   439  PHE439      0.0534
     62  CG        31.0620   42.7920  -57.4540 C.ar  439  PHE439     -0.0203
     63  CD1       31.7020   43.6840  -56.5890 C.ar  439  PHE439     -0.0042
     64  CD2       29.8220   42.2080  -57.1290 C.ar  439  PHE439     -0.0042
     65  CE1       31.0930   44.0900  -55.3920 C.ar  439  PHE439     -0.0003
     66  CE2       29.2050   42.6240  -55.8930 C.ar  439  PHE439     -0.0003
     67  CZ        29.8510   43.6170  -55.0690 C.ar  439  PHE439     -0.0000
     68  N         25.8060   47.6280  -46.1830 N.3   473  ALA473     -0.1231
     69  CA        25.8590   46.3610  -45.3290 C.3   473  ALA473      0.1694
     70  C         26.3380   45.1320  -46.0800 C.2   473  ALA473      0.2592
     71  O         26.5200   44.0900  -45.4330 O.2   473  ALA473     -0.2718
     72  CB        24.4590   46.1360  -44.7650 C.3   473  ALA473      0.0304
     73  N         26.4560   45.1870  -47.3980 N.am  474  MET474     -0.1965
     74  CA        26.6880   43.9530  -48.1980 C.3   474  MET474      0.1736
     75  C         28.0420   43.9060  -48.9020 C.2   474  MET474      0.2616
     76  O         28.4120   42.7450  -49.2680 O.2   474  MET474     -0.2715
     77  CB        25.5880   43.8410  -49.2690 C.3   474  MET474      0.0427
     78  CG        24.1750   43.5920  -48.6640 C.3   474  MET474      0.0599
     79  SD        22.8350   44.3280  -49.6800 S.3   474  MET474     -0.1393
     80  CE        23.0170   46.0540  -49.2040 C.3   474  MET474      0.0692
     81  N         28.6050   45.0240  -49.3960 N.am  475  ASN475     -0.1958
     82  CA        29.5410   44.8400  -50.5530 C.3   475  ASN475      0.1819
     83  C         30.9960   45.2250  -50.2840 C.2   475  ASN475      0.2621
     84  O         31.3190   46.1980  -49.5610 O.2   475  ASN475     -0.2715
     85  CB        29.0070   45.6450  -51.7220 C.3   475  ASN475      0.1195
     86  CG        27.5890   45.2870  -52.0680 C.2   475  ASN475      0.2630
     87  OD1       26.6750   46.1210  -52.0240 O.2   475  ASN475     -0.2716
     88  ND2       27.3370   44.0110  -52.4060 N.am  475  ASN475     -0.0877
     89  N         31.8760   44.4420  -50.9220 N.am  476  VAL476     -0.1977
     90  CA        33.3430   44.6390  -50.8210 C.3   476  VAL476      0.1596
     91  C         33.7610   45.9880  -51.4860 C.2   476  VAL476      0.2287
     92  O         32.9960   46.6160  -52.2230 O.2   476  VAL476     -0.2864
     93  CB        34.1070   43.4980  -51.5200 C.3   476  VAL476      0.0276
     94  CG1       33.8410   42.1760  -50.8190 C.3   476  VAL476      0.0022
     95  CG2       33.7890   43.4060  -53.0050 C.3   476  VAL476      0.0022
@<TRIPOS>BOND
     1    59    58    1
     2    59    60    2
     3    58    57    1
     4    58    61    1
     5    61    62    1
     6    62    64   ar
     7    62    63   ar
     8    64    66   ar
     9    56    55    1
    10    63    65   ar
    11    53    55   ar
    12    53    51   ar
    13    66    67   ar
    14    55    54   ar
    15    65    67   ar
    16    51    50   ar
    17    54    52   ar
    18    50    52   ar
    19    50    49    1
    20    45    46    1
    21    46    49    1
    22    46    47    1
    23    95    93    1
    24    48    47    2
    25    88    86   am
    26    92    91    2
    27    86    87    2
    28    86    85    1
    29    42    40   ar
    30    42    44   ar
    31    40    39   ar
    32    85    82    1
    33    93    90    1
    34    93    94    1
    35    91    90    1
    36    44    43   ar
    37    89    90    1
    38    89    83   am
    39    35    36    1
    40    35    38    1
    41    35    34    1
    42    39    38    1
    43    39    41   ar
    44    36    37    2
    45    82    83    1
    46    82    81    1
    47    83    84    2
    48    43    41   ar
    49    79    80    1
    50    79    78    1
    51    81    75   am
    52    77    78    1
    53    77    74    1
    54    76    75    2
    55    75    74    1
    56    32    33    1
    57    32    29    1
    58    74    73    1
    59    73    70   am
    60    18    17    1
    61    29    30    1
    62    29    28    1
    63    15    14    2
    64    16    17    1
    65    16    13    1
    66    30    31    2
    67    23    22    2
    68    14    13    1
    69    17    19    1
    70    68    69    1
    71    70    71    2
    72    70    69    1
    73    10     9    1
    74    28    22   am
    75    13    12    1
    76    22    21    1
    77    69    72    1
    78     9    11    1
    79     9     8    2
    80     8     7    1
    81     7     6    1
    82    24    21    1
    83    24    25    1
    84    21    20    1
    85    27    26    1
    86     6     5    1
    87    25    26    1
    88     5     2    1
    89     4     3    2
    90     2     3    1
    91     2     1    1
