@<TRIPOS>MOLECULE
tmp/3m2vA02.pdb
 95 91 0 0 0
SMALL
GASTEIGER

@<TRIPOS>ATOM
      1  N         19.1470   41.1620  -25.9640 N.3   268  ARG268     -0.1245
      2  CA        19.8660   41.2020  -24.6850 C.3   268  ARG268      0.1563
      3  C         21.0540   40.2240  -24.6320 C.2   268  ARG268      0.2260
      4  O         22.1190   40.5230  -23.9900 O.2   268  ARG268     -0.2867
      5  CB        18.9390   41.0200  -23.4720 C.3   268  ARG268      0.0307
      6  CG        19.7410   41.2850  -22.1350 C.3   268  ARG268      0.0489
      7  CD        18.8360   41.1070  -20.9020 C.3   268  ARG268      0.2205
      8  NE        17.8330   42.1760  -20.8310 N.pl3 268  ARG268     -0.0865
      9  CZ        18.0550   43.3900  -20.3060 C.cat 268  ARG268      0.5346
     10  NH1       19.2420   43.7210  -19.7370 N.pl3 268  ARG268      0.1354
     11  NH2       17.0830   44.2970  -20.3320 N.pl3 268  ARG268      0.1354
     12  N         27.3260   29.3890  -20.2750 N.3   317  LEU317     -0.1245
     13  CA        26.9710   30.2420  -19.1910 C.3   317  LEU317      0.1561
     14  C         28.2440   30.8120  -18.5540 C.2   317  LEU317      0.2260
     15  O         28.2790   32.0030  -18.1730 O.2   317  LEU317     -0.2867
     16  CB        26.1450   29.4370  -18.0980 C.3   317  LEU317      0.0270
     17  CG        24.6890   29.2510  -18.5720 C.3   317  LEU317      0.0019
     18  CD1       23.8470   28.5560  -17.4990 C.3   317  LEU317      0.0001
     19  CD2       23.9820   30.5830  -19.0100 C.3   317  LEU317      0.0001
     20  N         28.2080   33.9750  -21.5150 N.3   321  MET321     -0.1230
     21  CA        27.2270   34.7610  -20.7160 C.3   321  MET321      0.1702
     22  C         27.8260   35.3370  -19.4200 C.2   321  MET321      0.2593
     23  O         27.1460   36.0020  -18.6620 O.2   321  MET321     -0.2718
     24  CB        25.9680   33.9200  -20.3850 C.3   321  MET321      0.0401
     25  CG        25.1600   33.5370  -21.6580 C.3   321  MET321      0.0596
     26  SD        24.5180   35.0440  -22.5120 S.3   321  MET321     -0.1393
     27  CE        23.6100   35.8380  -21.1410 C.3   321  MET321      0.0692
     28  N         29.1230   35.0410  -19.1360 N.am  322  SER322     -0.1952
     29  CA        29.7100   35.6240  -17.9380 C.3   322  SER322      0.1924
     30  C         31.2520   35.7410  -18.1520 C.2   322  SER322      0.2314
     31  O         31.6940   36.7670  -18.6400 O.2   322  SER322     -0.2863
     32  CB        29.4170   34.8800  -16.6190 C.3   322  SER322      0.2116
     33  OG        29.8400   33.4980  -16.6370 O.3   322  SER322     -0.2180
     34  N         32.7780   28.3290  -14.3990 N.3   327  PHE327     -0.1241
     35  CA        31.7810   27.3670  -13.7990 C.3   327  PHE327      0.1605
     36  C         32.1920   25.9400  -13.9760 C.2   327  PHE327      0.2264
     37  O         31.3340   25.0350  -14.1560 O.2   327  PHE327     -0.2867
     38  CB        30.3610   27.6090  -14.4180 C.3   327  PHE327      0.0534
     39  CG        29.7940   28.9990  -14.1490 C.ar  327  PHE327     -0.0203
     40  CD1       30.0640   29.6850  -12.9120 C.ar  327  PHE327     -0.0042
     41  CD2       28.9380   29.5850  -15.0530 C.ar  327  PHE327     -0.0042
     42  CE1       29.5490   30.9880  -12.6380 C.ar  327  PHE327     -0.0003
     43  CE2       28.4000   30.8960  -14.7790 C.ar  327  PHE327     -0.0003
     44  CZ        28.7170   31.5980  -13.5790 C.ar  327  PHE327     -0.0000
     45  N         30.5740   23.4770  -11.2380 N.3   330  TYR330     -0.1241
     46  CA        29.0770   23.3900  -11.3170 C.3   330  TYR330      0.1605
     47  C         28.7780   22.3320  -12.3630 C.2   330  TYR330      0.2264
     48  O         27.7980   21.5740  -12.2700 O.2   330  TYR330     -0.2867
     49  CB        28.4540   24.7180  -11.7890 C.3   330  TYR330      0.0534
     50  CG        28.2210   25.7640  -10.7680 C.ar  330  TYR330     -0.0201
     51  CD1       27.5120   25.4840   -9.5860 C.ar  330  TYR330     -0.0009
     52  CD2       28.6710   27.0810  -10.9770 C.ar  330  TYR330     -0.0009
     53  CE1       27.2370   26.4690   -8.6710 C.ar  330  TYR330      0.0417
     54  CE2       28.4140   28.1040  -10.0410 C.ar  330  TYR330      0.0417
     55  CZ        27.6100   27.7920   -8.9070 C.ar  330  TYR330      0.1957
     56  OH        27.3590   28.8030   -7.9540 O.3   330  TYR330     -0.2866
     57  N         22.7020   28.1860   -5.2500 N.3   439  PHE439     -0.1241
     58  CA        23.1770   29.5700   -5.0940 C.3   439  PHE439      0.1605
     59  C         21.9840   30.5740   -5.0660 C.2   439  PHE439      0.2264
     60  O         20.8340   30.1620   -5.2160 O.2   439  PHE439     -0.2867
     61  CB        24.2430   29.8750   -6.2110 C.3   439  PHE439      0.0534
     62  CG        23.6470   30.1600   -7.5770 C.ar  439  PHE439     -0.0203
     63  CD1       23.3560   29.1190   -8.4790 C.ar  439  PHE439     -0.0042
     64  CD2       23.3780   31.4590   -7.9180 C.ar  439  PHE439     -0.0042
     65  CE1       22.7660   29.3920   -9.7630 C.ar  439  PHE439     -0.0003
     66  CE2       22.7840   31.7530   -9.1900 C.ar  439  PHE439     -0.0003
     67  CZ        22.4940   30.7190  -10.0580 C.ar  439  PHE439     -0.0000
     68  N         17.1800   30.9720  -19.1910 N.3   473  ALA473     -0.1231
     69  CA        18.1990   31.6940  -19.9990 C.3   473  ALA473      0.1694
     70  C         19.4170   32.1840  -19.1920 C.2   473  ALA473      0.2592
     71  O         20.3770   32.6400  -19.8050 O.2   473  ALA473     -0.2718
     72  CB        17.5050   32.9410  -20.6920 C.3   473  ALA473      0.0304
     73  N         19.4190   32.0140  -17.8740 N.am  474  MET474     -0.1965
     74  CA        20.4550   32.6460  -17.0110 C.3   474  MET474      0.1736
     75  C         21.3190   31.7090  -16.1980 C.2   474  MET474      0.2616
     76  O         22.4560   32.0940  -15.8580 O.2   474  MET474     -0.2715
     77  CB        19.7790   33.6440  -16.0030 C.3   474  MET474      0.0427
     78  CG        19.1210   34.7420  -16.8080 C.3   474  MET474      0.0599
     79  SD        17.7190   35.4400  -15.7570 S.3   474  MET474     -0.1393
     80  CE        16.4220   34.2700  -16.2560 C.3   474  MET474      0.0692
     81  N         20.8240   30.5550  -15.7580 N.am  475  ASN475     -0.1958
     82  CA        21.4760   29.9390  -14.5630 C.3   475  ASN475      0.1819
     83  C         22.1310   28.5820  -14.7570 C.2   475  ASN475      0.2621
     84  O         21.6060   27.7140  -15.4640 O.2   475  ASN475     -0.2715
     85  CB        20.4840   29.8490  -13.3710 C.3   475  ASN475      0.1195
     86  CG        19.8360   31.2000  -13.1320 C.2   475  ASN475      0.2630
     87  OD1       18.6210   31.3500  -13.3090 O.2   475  ASN475     -0.2716
     88  ND2       20.6320   32.2070  -12.8310 N.am  475  ASN475     -0.0877
     89  N         23.2780   28.3940  -14.0920 N.am  476  VAL476     -0.1977
     90  CA        23.9850   27.0900  -14.0730 C.3   476  VAL476      0.1596
     91  C         23.2220   25.9310  -13.4940 C.2   476  VAL476      0.2287
     92  O         22.2360   26.0890  -12.7530 O.2   476  VAL476     -0.2864
     93  CB        25.2990   27.1910  -13.2570 C.3   476  VAL476      0.0276
     94  CG1       26.2120   28.1750  -13.9380 C.3   476  VAL476      0.0022
     95  CG2       25.0010   27.6300  -11.7420 C.3   476  VAL476      0.0022
@<TRIPOS>BOND
     1     1     2    1
     2     2     3    1
     3     2     5    1
     4     3     4    2
     5     5     6    1
     6    26    25    1
     7    26    27    1
     8     6     7    1
     9    25    24    1
    10    20    21    1
    11     7     8    1
    12     8     9    2
    13    21    24    1
    14    21    22    1
    15    72    69    1
    16    11     9    1
    17     9    10    1
    18    12    13    1
    19    69    70    1
    20    69    68    1
    21    71    70    2
    22    22    28   am
    23    22    23    2
    24    70    73   am
    25    13    14    1
    26    13    16    1
    27    28    29    1
    28    19    17    1
    29    31    30    2
    30    17    16    1
    31    17    18    1
    32    14    15    2
    33    30    29    1
    34    29    32    1
    35    73    74    1
    36    74    75    1
    37    74    77    1
    38    78    77    1
    39    78    79    1
    40    33    32    1
    41    80    79    1
    42    75    76    2
    43    75    81   am
    44    81    82    1
    45    84    83    2
    46    41    43   ar
    47    41    39   ar
    48    43    44   ar
    49    83    82    1
    50    83    89   am
    51    82    85    1
    52    38    39    1
    53    38    35    1
    54    34    35    1
    55    37    36    2
    56    39    40   ar
    57    89    90    1
    58    90    91    1
    59    90    93    1
    60    36    35    1
    61    94    93    1
    62    44    42   ar
    63    91    92    2
    64    85    86    1
    65    87    86    2
    66    93    95    1
    67    86    88   am
    68    40    42   ar
    69    47    48    2
    70    47    46    1
    71    49    46    1
    72    49    50    1
    73    46    45    1
    74    52    50   ar
    75    52    54   ar
    76    50    51   ar
    77    67    65   ar
    78    67    66   ar
    79    54    55   ar
    80    65    63   ar
    81    51    53   ar
    82    66    64   ar
    83    55    53   ar
    84    55    56    1
    85    63    62   ar
    86    64    62   ar
    87    62    61    1
    88    61    58    1
    89    57    58    1
    90    60    59    2
    91    58    59    1
