@<TRIPOS>MOLECULE
tmp/3m2wA00.pdb
 153 142 0 0 0
SMALL
GASTEIGER

@<TRIPOS>ATOM
      1  N         31.4190    7.9570   15.2220 N.3    24  LEU24      -0.1231
      2  CA        32.1460    6.6870   15.1540 C.3    24  LEU24       0.1693
      3  C         32.8940    6.3310   16.4570 C.2    24  LEU24       0.2593
      4  O         33.6740    5.4010   16.4830 O.2    24  LEU24      -0.2718
      5  CB        33.1030    6.6940   13.9550 C.3    24  LEU24       0.0284
      6  CG        32.4590    6.6230   12.5710 C.3    24  LEU24       0.0019
      7  CD1       33.5390    6.7870   11.5270 C.3    24  LEU24       0.0001
      8  CD2       31.7470    5.3150   12.3440 C.3    24  LEU24       0.0001
      9  N         32.6420    7.0730   17.5310 N.am   25  GLY25      -0.1942
     10  CA        33.2160    6.7660   18.8420 C.3    25  GLY25       0.2014
     11  C         32.8190    7.8190   19.8630 C.2    25  GLY25       0.2639
     12  O         32.4130    8.9130   19.4810 O.2    25  GLY25      -0.2714
     13  N         32.9160    7.5050   21.1550 N.am   26  LEU26      -0.1963
     14  CA        32.6680    8.5060   22.2110 C.3    26  LEU26       0.1728
     15  C         33.7930    8.5110   23.2530 C.2    26  LEU26       0.2616
     16  O         34.3680    7.4650   23.5780 O.2    26  LEU26      -0.2715
     17  CB        31.3090    8.2900   22.8930 C.3    26  LEU26       0.0311
     18  CG        30.0990    9.0180   22.3490 C.3    26  LEU26       0.0022
     19  CD1       28.9610    8.6260   23.3070 C.3    26  LEU26       0.0001
     20  CD2       30.3460   10.5160   22.4230 C.3    26  LEU26       0.0001
     21  N         34.1070    9.6970   23.7700 N.am   27  GLY27      -0.1955
     22  CA        35.2470    9.8690   24.6680 C.3    27  GLY27       0.1869
     23  C         35.0350   10.9810   25.6770 C.2    27  GLY27       0.2309
     24  O         34.6120   12.0850   25.3270 O.2    27  GLY27      -0.2863
     25  N         33.8380   11.5260   18.0050 N.3    32  VAL32      -0.1245
     26  CA        34.4540   11.2250   16.7220 C.3    32  VAL32       0.1561
     27  C         33.3690   11.0740   15.6490 C.2    32  VAL32       0.2260
     28  O         32.4430   10.2660   15.7980 O.2    32  VAL32      -0.2867
     29  CB        35.3170    9.9480   16.8100 C.3    32  VAL32       0.0252
     30  CG1       35.9790    9.6560   15.4860 C.3    32  VAL32       0.0019
     31  CG2       36.3620   10.0980   17.8950 C.3    32  VAL32       0.0019
     32  N         32.1190   10.8800   11.3140 N.3    34  GLN34      -0.1245
     33  CA        32.5110   10.3890    9.9880 C.3    34  GLN34       0.1566
     34  C         32.6250   11.5590    9.0240 C.2    34  GLN34       0.2260
     35  O         31.8010   12.4680    9.0680 O.2    34  GLN34      -0.2867
     36  CB        31.4980    9.3670    9.4440 C.3    34  GLN34       0.0367
     37  CG        31.9980    8.7170    8.1390 C.3    34  GLN34       0.0905
     38  CD        31.0910    7.6040    7.6720 C.2    34  GLN34       0.2608
     39  OE1       29.8730    7.6660    7.9580 O.2    34  GLN34      -0.2717
     40  NE2       31.5950    6.6380    6.9690 N.am   34  GLN34      -0.0878
     41  N         38.3980    9.8840    9.6300 N.3    45  ALA45      -0.1245
     42  CA        37.7490   10.0640   10.9190 C.3    45  ALA45       0.1562
     43  C         38.0900   11.4510   11.4250 C.2    45  ALA45       0.2260
     44  O         39.1370   12.0050   11.0710 O.2    45  ALA45      -0.2867
     45  CB        38.2210    9.0320   11.8910 C.3    45  ALA45       0.0290
     46  N         38.3760   13.6010   14.9900 N.3    47  LYS47      -0.1245
     47  CA        38.2960   13.7330   16.4200 C.3    47  LYS47       0.1561
     48  C         38.1710   15.2350   16.7680 C.2    47  LYS47       0.2260
     49  O         38.9160   16.0530   16.2600 O.2    47  LYS47      -0.2867
     50  CB        39.5200   13.0860   17.0710 C.3    47  LYS47       0.0271
     51  CG        39.3620   12.9440   18.5280 C.3    47  LYS47       0.0035
     52  CD        40.5130   12.2550   19.2000 C.3    47  LYS47       0.0206
     53  CE        40.2530   12.2000   20.7280 C.3    47  LYS47       0.1093
     54  NZ        41.2890   11.4590   21.4310 N.3    47  LYS47      -0.1314
     55  N         47.5200    5.0680   15.0660 N.3    72  VAL72      -0.1245
     56  CA        46.6390    5.7020   14.0970 C.3    72  VAL72       0.1561
     57  C         47.2280    7.0240   13.6180 C.2    72  VAL72       0.2260
     58  O         47.7440    7.8090   14.4100 O.2    72  VAL72      -0.2867
     59  CB        45.2490    5.9880   14.6820 C.3    72  VAL72       0.0252
     60  CG1       45.3380    7.0530   15.8100 C.3    72  VAL72       0.0019
     61  CG2       44.2700    6.4320   13.5840 C.3    72  VAL72       0.0019
     62  N         41.9970   11.9370   11.0750 N.3    92  MET92      -0.1230
     63  CA        42.8090   10.7230   11.1470 C.3    92  MET92       0.1702
     64  C         42.3690    9.7070   10.1080 C.2    92  MET92       0.2592
     65  O         41.2630    9.7970    9.5440 O.2    92  MET92      -0.2718
     66  CB        42.6910   10.0950   12.5370 C.3    92  MET92       0.0401
     67  CG        42.9770   11.0670   13.6560 C.3    92  MET92       0.0596
     68  SD        42.7640   10.3060   15.2420 S.3    92  MET92      -0.1393
     69  CE        43.2700   11.6310   16.3530 C.3    92  MET92       0.0692
     70  N         43.2350    8.7240    9.8830 N.am   93  GLU93      -0.1966
     71  CA        42.9000    7.6110    9.0420 C.3    93  GLU93       0.1733
     72  C         41.7350    6.8900    9.6630 C.2    93  GLU93       0.2616
     73  O         41.6150    6.8190   10.8750 O.2    93  GLU93      -0.2715
     74  CB        44.0920    6.6790    8.8690 C.3    93  GLU93       0.0429
     75  CG        44.5060    5.9110   10.1150 C.3    93  GLU93       0.1163
     76  CD        45.6070    4.8930    9.8370 C.2    93  GLU93       0.3649
     77  OE1       45.3940    4.0140    8.9720 O.co2  93  GLU93      -0.2457
     78  OE2       46.6750    4.9640   10.4860 O.co2  93  GLU93      -0.2457
     79  N         40.8640    6.3810    8.8020 N.am   94  CYS94      -0.1954
     80  CA        39.6710    5.6300    9.2010 C.3    94  CYS94       0.1843
     81  C         40.0060    4.2240    9.6620 C.2    94  CYS94       0.2625
     82  O         40.7700    3.5130    9.0080 O.2    94  CYS94      -0.2714
     83  CB        38.7400    5.5200    8.0090 C.3    94  CYS94       0.0997
     84  SG        37.0800    5.3640    8.4940 S.3    94  CYS94      -0.0797
     85  N         39.4600    3.8230   10.7960 N.am   95  LEU95      -0.1963
     86  CA        39.7800    2.5110   11.3590 C.3    95  LEU95       0.1728
     87  C         38.4880    1.7990   11.6420 C.2    95  LEU95       0.2616
     88  O         37.9750    1.8570   12.7720 O.2    95  LEU95      -0.2715
     89  CB        40.6050    2.6380   12.6310 C.3    95  LEU95       0.0311
     90  CG        42.0140    3.2370   12.5140 C.3    95  LEU95       0.0022
     91  CD1       42.7000    3.1780   13.8550 C.3    95  LEU95       0.0001
     92  CD2       42.8220    2.5210   11.4990 C.3    95  LEU95       0.0001
     93  N         37.9490    1.1470   10.6070 N.am   96  ASP96      -0.1971
     94  CA        36.5890    0.6180   10.6890 C.3    96  ASP96       0.1709
     95  C         36.5290   -0.8920   10.8470 C.2    96  ASP96       0.2293
     96  O         35.4680   -1.4840   10.6920 O.2    96  ASP96      -0.2864
     97  CB        35.7330    1.0590    9.4920 C.3    96  ASP96       0.1436
     98  CG        36.3420    0.6840    8.1550 C.2    96  ASP96       0.3671
     99  OD1       37.2300   -0.1980    8.1030 O.co2  96  ASP96      -0.2456
    100  OD2       35.9250    1.3010    7.1490 O.co2  96  ASP96      -0.2456
    101  N         36.7540   -2.4140   13.6720 N.3    98  GLY98      -0.1210
    102  CA        36.3790   -2.7580   15.0440 C.3    98  GLY98       0.1956
    103  C         37.5440   -2.8740   16.0540 C.2    98  GLY98       0.2611
    104  O         38.7210   -2.8910   15.6860 O.2    98  GLY98      -0.2717
    105  N         37.1820   -2.9430   17.3340 N.am   99  GLU99      -0.1979
    106  CA        38.1210   -3.1340   18.4270 C.3    99  GLU99       0.1602
    107  C         38.7270   -4.5300   18.4500 C.2    99  GLU99       0.2287
    108  O         38.1150   -5.4810   18.0390 O.2    99  GLU99      -0.2864
    109  CB        37.4140   -2.9140   19.7750 C.3    99  GLU99       0.0415
    110  CG        36.7740   -1.5670   19.9450 C.3    99  GLU99       0.1163
    111  CD        35.9090   -1.4820   21.1940 C.2    99  GLU99       0.3649
    112  OE1       35.8450   -2.4540   21.9840 O.co2  99  GLU99      -0.2457
    113  OE2       35.2860   -0.4320   21.3920 O.co2  99  GLU99      -0.2457
    114  N         39.5580   -0.7980   24.4230 N.3   144  GLU144     -0.1231
    115  CA        38.7670    0.0950   23.5800 C.3   144  GLU144      0.1699
    116  C         39.6370    0.9990   22.6830 C.2   144  GLU144      0.2592
    117  O         39.1430    1.5390   21.7020 O.2   144  GLU144     -0.2718
    118  CB        37.7520    0.8980   24.4240 C.3   144  GLU144      0.0402
    119  CG        38.2840    1.3530   25.7900 C.3   144  GLU144      0.1161
    120  CD        38.1000    0.3450   26.9720 C.2   144  GLU144      0.3649
    121  OE1       38.8460   -0.6950   27.1270 O.co2 144  GLU144     -0.2457
    122  OE2       37.2090    0.6720   27.8000 O.co2 144  GLU144     -0.2457
    123  N         40.9300    1.1260   22.9790 N.am  145  ASN145     -0.1974
    124  CA        41.7930    1.9970   22.2000 C.3   145  ASN145      0.1688
    125  C         42.6460    1.2710   21.2030 C.2   145  ASN145      0.2292
    126  O         43.5450    1.8660   20.6110 O.2   145  ASN145     -0.2864
    127  CB        42.6840    2.8330   23.1160 C.3   145  ASN145      0.1181
    128  CG        41.9000    3.8360   23.9260 C.2   145  ASN145      0.2629
    129  OD1       40.8170    4.2740   23.5150 O.2   145  ASN145     -0.2716
    130  ND2       42.4240    4.1950   25.1010 N.am  145  ASN145     -0.0877
    131  N         42.2940   -0.6750   17.6530 N.3   147  LEU147     -0.1245
    132  CA        41.3270   -0.8470   16.5720 C.3   147  LEU147      0.1561
    133  C         41.9810   -1.2930   15.2770 C.2   147  LEU147      0.2260
    134  O         43.1550   -1.0170   15.0290 O.2   147  LEU147     -0.2867
    135  CB        40.6090    0.4710   16.3020 C.3   147  LEU147      0.0270
    136  CG        39.8160    1.2300   17.3590 C.3   147  LEU147      0.0019
    137  CD1       39.1200    2.3810   16.6420 C.3   147  LEU147      0.0001
    138  CD2       38.7890    0.3470   18.0440 C.3   147  LEU147      0.0001
    139  N         45.1250    3.8910   19.5120 N.3   160  THR160     -0.1203
    140  CA        44.4810    5.1990   19.4470 C.3   160  THR160      0.1994
    141  C         44.5020    5.9210   20.8050 C.2   160  THR160      0.2617
    142  O         44.9070    5.3540   21.8290 O.2   160  THR160     -0.2717
    143  CB        43.0160    5.0490   18.9940 C.3   160  THR160      0.1784
    144  OG1       42.2430    4.5010   20.0570 O.3   160  THR160     -0.2211
    145  CG2       42.9180    4.1210   17.7720 C.3   160  THR160      0.0376
    146  N         44.1050    7.1900   20.7740 N.am  161  ASP161     -0.1973
    147  CA        43.7500    8.0020   21.9580 C.3   161  ASP161      0.1709
    148  C         44.9140    8.5030   22.8230 C.2   161  ASP161      0.2293
    149  O         45.3180    7.8850   23.8050 O.2   161  ASP161     -0.2864
    150  CB        42.7310    7.2600   22.8030 C.3   161  ASP161      0.1436
    151  CG        41.8950    8.1860   23.6530 C.2   161  ASP161      0.3671
    152  OD1       42.2880    9.3600   23.8490 O.co2 161  ASP161     -0.2456
    153  OD2       40.8440    7.7190   24.1380 O.co2 161  ASP161     -0.2456
@<TRIPOS>BOND
     1    40    38   am
     2   100    98   ar
     3    38    39    2
     4    38    37    1
     5    83    84    1
     6    83    80    1
     7    99    98   ar
     8    37    36    1
     9    98    97    1
    10    79    80    1
    11    79    72   am
    12    74    71    1
    13    74    75    1
    14    77    76   ar
    15    82    81    2
    16    34    35    2
    17    34    33    1
    18    71    72    1
    19    71    70    1
    20    80    81    1
    21    36    33    1
    22    97    94    1
    23    65    64    2
    24    41    42    1
    25    81    85   am
    26    72    73    2
    27    76    75    1
    28    76    78   ar
    29    70    64   am
    30    33    32    1
    31    64    63    1
    32    93    94    1
    33    93    87   am
    34    94    95    1
    35    96    95    2
    36    85    86    1
    37    42    43    1
    38    42    45    1
    39    44    43    2
    40    62    63    1
    41    63    66    1
    42    86    87    1
    43    86    89    1
    44    92    90    1
    45     7     6    1
    46    87    88    2
    47     8     6    1
    48    90    89    1
    49    90    91    1
    50    66    67    1
    51     6     5    1
    52    61    59    1
    53    57    56    1
    54    57    58    2
    55    67    68    1
    56   101   102    1
    57     5     2    1
    58    56    59    1
    59    56    55    1
    60    59    60    1
    61    46    47    1
    62   134   133    2
    63   102   103    1
    64     2     1    1
    65     2     3    1
    66    68    69    1
    67   133   132    1
    68    30    29    1
    69    27    28    2
    70    27    26    1
    71   104   103    2
    72   103   105   am
    73    49    48    2
    74   135   132    1
    75   135   136    1
    76    47    48    1
    77    47    50    1
    78     3     4    2
    79     3     9   am
    80   132   131    1
    81   137   136    1
    82    26    29    1
    83    26    25    1
    84    29    31    1
    85    50    51    1
    86   105   106    1
    87   136   138    1
    88     9    10    1
    89   145   143    1
    90   108   107    2
    91   106   107    1
    92   106   109    1
    93    51    52    1
    94    10    11    1
    95   143   140    1
    96   143   144    1
    97    52    53    1
    98   140   139    1
    99   140   141    1
   100    12    11    2
   101   109   110    1
   102    11    13   am
   103   110   111    1
   104   126   125    2
   105    53    54    1
   106   146   141   am
   107   146   147    1
   108   141   142    2
   109    13    14    1
   110   111   113   ar
   111   111   112   ar
   112   125   124    1
   113   117   116    2
   114   147   150    1
   115   147   148    1
   116   124   123    1
   117   124   127    1
   118    14    17    1
   119    14    15    1
   120    18    20    1
   121    18    17    1
   122    18    19    1
   123   116   123   am
   124   116   115    1
   125   150   151    1
   126   148   149    2
   127   127   128    1
   128    15    16    2
   129    15    21   am
   130   129   128    2
   131   115   114    1
   132   115   118    1
   133   151   152   ar
   134   151   153   ar
   135    21    22    1
   136   128   130   am
   137   118   119    1
   138    22    23    1
   139    24    23    2
   140   119   120    1
   141   120   121   ar
   142   120   122   ar
