@<TRIPOS>MOLECULE
tmp/3m2xA01.pdb
 194 190 0 0 0
SMALL
GASTEIGER

@<TRIPOS>ATOM
      1  N         29.1190    1.4000   10.2620 N.3     2  TRP2       -0.1241
      2  CA        28.5830    0.3470   11.1170 C.3     2  TRP2        0.1605
      3  C         27.6450   -0.5740   10.3560 C.2     2  TRP2        0.2264
      4  O         27.0550   -0.2230    9.3400 O.2     2  TRP2       -0.2867
      5  CB        27.8700    1.0000   12.2990 C.3     2  TRP2        0.0550
      6  CG        26.6090    1.7340   11.9720 C.ar    2  TRP2        0.0003
      7  CD1       26.4720    3.0380   11.5780 C.ar    2  TRP2        0.0946
      8  CD2       25.2840    1.1960   12.0230 C.ar    2  TRP2        0.0152
      9  NE1       25.1500    3.3340   11.3780 N.ar    2  TRP2       -0.2442
     10  CE2       24.3930    2.2160   11.6460 C.ar    2  TRP2        0.0810
     11  CE3       24.7680   -0.0590   12.3550 C.ar    2  TRP2        0.0012
     12  CZ2       23.0150    2.0040   11.5970 C.ar    2  TRP2        0.0191
     13  CZ3       23.4040   -0.2680   12.3040 C.ar    2  TRP2        0.0001
     14  CH2       22.5350    0.7600   11.9250 C.ar    2  TRP2        0.0015
     15  N         25.9000   -4.9780   10.9300 N.3     4  TYR4       -0.1241
     16  CA        25.5150   -6.0980   11.7710 C.3     4  TYR4        0.1605
     17  C         26.3850   -7.3250   11.5640 C.2     4  TYR4        0.2264
     18  O         26.0730   -8.3990   12.0900 O.2     4  TYR4       -0.2867
     19  CB        24.0390   -6.4490   11.5000 C.3     4  TYR4        0.0534
     20  CG        23.0790   -5.3720   11.9690 C.ar    4  TYR4       -0.0201
     21  CD1       22.6440   -5.3010   13.2860 C.ar    4  TYR4       -0.0009
     22  CD2       22.6040   -4.4260   11.0860 C.ar    4  TYR4       -0.0009
     23  CE1       21.7650   -4.3060   13.6900 C.ar    4  TYR4        0.0417
     24  CE2       21.7270   -3.4320   11.4710 C.ar    4  TYR4        0.0417
     25  CZ        21.3030   -3.3740   12.7860 C.ar    4  TYR4        0.1957
     26  OH        20.4280   -2.3690   13.1640 O.3     4  TYR4       -0.2866
     27  N         17.8810    1.8880    3.5670 N.3    59  ASN59      -0.1240
     28  CA        19.0240    2.6980    3.9930 C.3    59  ASN59       0.1653
     29  C         20.2660    1.8530    4.2310 C.2    59  ASN59       0.2266
     30  O         21.1840    2.3270    4.8920 O.2    59  ASN59      -0.2867
     31  CB        18.6990    3.4930    5.2580 C.3    59  ASN59       0.1155
     32  CG        18.5590    2.6380    6.5030 C.2    59  ASN59       0.2627
     33  OD1       18.7880    1.4340    6.5580 O.2    59  ASN59      -0.2716
     34  ND2       18.1580    3.3180    7.5770 N.am   59  ASN59      -0.0877
     35  N         20.5140   -0.5790    6.1540 N.3    61  HIS61      -0.1226
     36  CA        20.4350   -1.2390    7.4510 C.3    61  HIS61       0.1752
     37  C         19.0690   -1.9020    7.6640 C.2    61  HIS61       0.2595
     38  O         18.9580   -3.0090    8.1900 O.2    61  HIS61      -0.2718
     39  CB        20.6870   -0.2550    8.5870 C.3    61  HIS61       0.0759
     40  CG        21.9540    0.5210    8.4400 C.ar   61  HIS61       0.0818
     41  ND1       23.1980   -0.0760    8.6160 N.ar   61  HIS61      -0.2268
     42  CD2       22.1880    1.8130    8.1400 C.ar   61  HIS61       0.1154
     43  CE1       24.1310    0.8340    8.4350 C.ar   61  HIS61       0.1986
     44  NE2       23.5570    1.9870    8.1400 N.ar   61  HIS61      -0.2212
     45  N         18.0180   -1.2150    7.2610 N.am   62  ALA62      -0.1980
     46  CA        16.6520   -1.6820    7.2980 C.3    62  ALA62       0.1597
     47  C         15.9190   -0.8820    6.2190 C.2    62  ALA62       0.2287
     48  O         16.6160   -0.1750    5.4930 O.2    62  ALA62      -0.2864
     49  CB        15.9960   -1.4510    8.6420 C.3    62  ALA62       0.0319
     50  N         12.8650    2.0250    5.7950 N.3    64  ASN64      -0.1240
     51  CA        12.1250    3.0220    6.5370 C.3    64  ASN64       0.1653
     52  C         10.8960    3.4900    5.7590 C.2    64  ASN64       0.2266
     53  O         11.0420    3.8550    4.5890 O.2    64  ASN64      -0.2867
     54  CB        12.9760    4.2590    6.8070 C.3    64  ASN64       0.1155
     55  CG        14.1610    4.0010    7.7130 C.2    64  ASN64       0.2627
     56  OD1       14.1420    3.0870    8.5420 O.2    64  ASN64      -0.2716
     57  ND2       15.1770    4.8480    7.5430 N.am   64  ASN64      -0.0877
     58  N          7.3730   10.0080   12.8600 N.3    88  ILE88      -0.1231
     59  CA         8.2400   10.4570   11.7750 C.3    88  ILE88       0.1692
     60  C          8.5530    9.3220   10.8190 C.2    88  ILE88       0.2591
     61  O          8.6160    9.5270    9.6040 O.2    88  ILE88      -0.2718
     62  CB         9.5390   11.0990   12.2970 C.3    88  ILE88       0.0266
     63  CG1       10.4860   11.5100   11.1640 C.3    88  ILE88       0.0019
     64  CG2       10.2350   10.2220   13.3220 C.3    88  ILE88       0.0020
     65  CD1       11.4830   12.5800   11.5360 C.3    88  ILE88       0.0001
     66  N          8.7150    8.0890   11.3250 N.am   89  GLN89      -0.1979
     67  CA         8.8830    6.9570   10.4320 C.3    89  GLN89       0.1601
     68  C          8.6540    5.6470   11.1850 C.2    89  GLN89       0.2287
     69  O          8.6020    5.6930   12.4140 O.2    89  GLN89      -0.2864
     70  CB        10.2780    6.9430    9.8170 C.3    89  GLN89       0.0394
     71  CG        11.4310    6.8780   10.8000 C.3    89  GLN89       0.0908
     72  CD        12.0930    5.5260   10.8530 C.2    89  GLN89       0.2608
     73  OE1       11.6190    4.5950   11.5030 O.2    89  GLN89      -0.2717
     74  NE2       13.2170    5.3920   10.1820 N.am   89  GLN89      -0.0878
     75  N         10.0860    1.3420   11.0390 N.3    91  HIS91      -0.1241
     76  CA        10.9810    0.3900   10.4040 C.3    91  HIS91       0.1621
     77  C         10.8820   -0.9330   11.1600 C.2    91  HIS91       0.2264
     78  O         10.2010   -0.9600   12.1780 O.2    91  HIS91      -0.2867
     79  CB        12.4260    0.8640   10.4250 C.3    91  HIS91       0.0745
     80  CG        12.9420    1.1060   11.8080 C.ar   91  HIS91       0.0817
     81  ND1       12.8470    2.3250   12.4450 N.ar   91  HIS91      -0.2268
     82  CD2       13.5630    0.2700   12.6840 C.ar   91  HIS91       0.1154
     83  CE1       13.3920    2.2310   13.6480 C.ar   91  HIS91       0.1986
     84  NE2       13.8300    0.9940   13.8150 N.ar   91  HIS91      -0.2212
     85  N         13.1610   -4.6510   12.4710 N.3    93  HIS93      -0.1241
     86  CA        14.3210   -5.5090   12.6090 C.3    93  HIS93       0.1621
     87  C         13.8330   -6.9570   12.5270 C.2    93  HIS93       0.2264
     88  O         12.7860   -7.3010   13.0810 O.2    93  HIS93      -0.2867
     89  CB        15.0690   -5.2910   13.9200 C.3    93  HIS93       0.0745
     90  CG        15.3380   -3.8610   14.2420 C.ar   93  HIS93       0.0817
     91  ND1       16.5630   -3.2730   13.9940 N.ar   93  HIS93      -0.2268
     92  CD2       14.5690   -2.8990   14.7790 C.ar   93  HIS93       0.1154
     93  CE1       16.5310   -2.0090   14.3720 C.ar   93  HIS93       0.1986
     94  NE2       15.3240   -1.7550   14.8610 N.ar   93  HIS93      -0.2212
     95  N          9.2610   -0.8930   14.8640 N.3   116  HIS116     -0.1241
     96  CA         9.5310    0.3300   15.5900 C.3   116  HIS116      0.1621
     97  C          8.8510    1.5320   14.9390 C.2   116  HIS116      0.2264
     98  O          9.2380    1.8790   13.8250 O.2   116  HIS116     -0.2867
     99  CB        11.0470    0.5920   15.7080 C.3   116  HIS116      0.0745
    100  CG        11.6910   -0.3950   16.6250 C.ar  116  HIS116      0.0817
    101  ND1       13.0350   -0.6360   16.7160 N.ar  116  HIS116     -0.2268
    102  CD2       11.1100   -1.2410   17.5220 C.ar  116  HIS116      0.1154
    103  CE1       13.2610   -1.5700   17.6110 C.ar  116  HIS116      0.1986
    104  NE2       12.1110   -1.9620   18.1350 N.ar  116  HIS116     -0.2212
    105  N          8.5570    5.3760   15.3390 N.3   118  VAL118     -0.1245
    106  CA         9.4430    6.3790   15.8850 C.3   118  VAL118      0.1561
    107  C          8.7690    7.7510   15.9280 C.2   118  VAL118      0.2260
    108  O          8.3380    8.2700   14.8940 O.2   118  VAL118     -0.2867
    109  CB        10.7560    6.4860   15.0790 C.3   118  VAL118      0.0252
    110  CG1       11.6340    7.5700   15.7120 C.3   118  VAL118      0.0019
    111  CG2       11.4640    5.1560   15.0090 C.3   118  VAL118      0.0019
    112  N         12.9970   16.9720   14.9110 N.3   127  PHE127     -0.1241
    113  CA        13.5860   15.7060   15.3230 C.3   127  PHE127      0.1605
    114  C         15.0110   15.8990   15.8390 C.2   127  PHE127      0.2264
    115  O         15.4270   15.3100   16.8350 O.2   127  PHE127     -0.2867
    116  CB        13.5670   14.6940   14.1720 C.3   127  PHE127      0.0534
    117  CG        14.1710   13.3460   14.5270 C.ar  127  PHE127     -0.0203
    118  CD1       13.3510   12.3830   15.0980 C.ar  127  PHE127     -0.0042
    119  CD2       15.4980   13.0380   14.3070 C.ar  127  PHE127     -0.0042
    120  CE1       13.8610   11.1510   15.4460 C.ar  127  PHE127     -0.0003
    121  CE2       16.0160   11.8090   14.6670 C.ar  127  PHE127     -0.0003
    122  CZ        15.1940   10.8640   15.2450 C.ar  127  PHE127     -0.0000
    123  N         16.5190   14.8900   19.6640 N.3   131  VAL131     -0.1245
    124  CA        17.5220   13.8610   19.9620 C.3   131  VAL131      0.1561
    125  C         18.7000   14.4220   20.7490 C.2   131  VAL131      0.2260
    126  O         19.7500   13.7970   20.8780 O.2   131  VAL131     -0.2867
    127  CB        18.0460   13.1230   18.7120 C.3   131  VAL131      0.0252
    128  CG1       16.9760   12.1590   18.2040 C.3   131  VAL131      0.0019
    129  CG2       18.4890   14.0850   17.6280 C.3   131  VAL131      0.0019
    130  N          9.3800    5.5520   21.1850 N.3   139  VAL139     -0.1245
    131  CA         9.2490    4.5260   20.1500 C.3   139  VAL139      0.1561
    132  C          8.2700    3.4550   20.6040 C.2   139  VAL139      0.2260
    133  O          8.4070    2.9320   21.7090 O.2   139  VAL139     -0.2867
    134  CB        10.6030    3.8740   19.8320 C.3   139  VAL139      0.0252
    135  CG1       10.4680    2.8430   18.7180 C.3   139  VAL139      0.0019
    136  CG2       11.6040    4.9570   19.4730 C.3   139  VAL139      0.0019
    137  N         18.0800    4.7890   21.1860 N.3   194  LEU194     -0.1231
    138  CA        18.0250    4.2440   19.8370 C.3   194  LEU194      0.1693
    139  C         18.8430    2.9560   19.8690 C.2   194  LEU194      0.2593
    140  O         19.8310    2.9160   20.6140 O.2   194  LEU194     -0.2718
    141  CB        18.5810    5.1950   18.7920 C.3   194  LEU194      0.0284
    142  CG        18.0160    6.6170   18.7240 C.3   194  LEU194      0.0019
    143  CD1       18.9280    7.5190   17.9100 C.3   194  LEU194      0.0001
    144  CD2       16.6250    6.5980   18.1340 C.3   194  LEU194      0.0001
    145  N         18.4380    1.9530   19.1130 N.am  195  THR195     -0.1939
    146  CA        19.1620    0.6860   19.1050 C.3   195  THR195      0.2028
    147  C         20.1490    0.6060   17.9520 C.2   195  THR195      0.2643
    148  O         20.8510   -0.3860   17.7100 O.2   195  THR195     -0.2714
    149  CB        18.1690   -0.4910   19.0080 C.3   195  THR195      0.1808
    150  OG1       17.4660   -0.3370   17.7700 O.3   195  THR195     -0.2208
    151  CG2       17.1780   -0.4500   20.1550 C.3   195  THR195      0.0379
    152  N         20.2320    1.6850   17.2000 N.am  196  THR196     -0.1937
    153  CA        21.2040    1.8410   16.1270 C.3   196  THR196      0.2013
    154  C         22.0890    3.0580   16.3800 C.2   196  THR196      0.2484
    155  O         21.6100    4.0150   16.9880 O.2   196  THR196     -0.2729
    156  CB        20.5160    2.0290   14.7690 C.3   196  THR196      0.1807
    157  OG1       19.5430    3.0810   14.8920 O.3   196  THR196     -0.2208
    158  CG2       19.7270    0.8040   14.3430 C.3   196  THR196      0.0379
    159  N         23.3350    3.0250   15.9280 N.am  197  PRO197     -0.2715
    160  CA        24.1810    4.2310   16.0130 C.3   197  PRO197      0.1521
    161  C         23.4450    5.4290   15.4530 C.2   197  PRO197      0.2440
    162  O         22.7690    5.2970   14.4250 O.2   197  PRO197     -0.2731
    163  CB        25.3950    3.8410   15.1770 C.3   197  PRO197      0.0310
    164  CG        25.4970    2.3690   15.4470 C.3   197  PRO197      0.0237
    165  CD        24.0640    1.8890   15.3410 C.3   197  PRO197      0.0939
    166  N         23.5130    6.5700   16.1160 N.am  198  PRO198     -0.2727
    167  CA        24.4150    6.8440   17.2230 C.3   198  PRO198      0.1402
    168  C         23.9180    6.5050   18.6230 C.2   198  PRO198      0.2269
    169  O         24.4990    7.0280   19.5910 O.2   198  PRO198     -0.2865
    170  CB        24.6020    8.3710   17.0870 C.3   198  PRO198      0.0296
    171  CG        23.3020    8.8640   16.5690 C.3   198  PRO198      0.0237
    172  CD        22.6900    7.7520   15.7810 C.3   198  PRO198      0.0939
    173  N         21.5530    7.1850   20.7210 N.3   200  LEU200     -0.1245
    174  CA        21.2570    8.2760   21.6400 C.3   200  LEU200      0.1561
    175  C         20.2330    7.8870   22.7000 C.2   200  LEU200      0.2260
    176  O         19.2210    7.2640   22.4180 O.2   200  LEU200     -0.2867
    177  CB        20.7610    9.5040   20.8620 C.3   200  LEU200      0.0270
    178  CG        21.7690    9.9750   19.8100 C.3   200  LEU200      0.0019
    179  CD1       21.1710   11.0220   18.8990 C.3   200  LEU200      0.0001
    180  CD2       23.0360   10.4770   20.4950 C.3   200  LEU200      0.0001
    181  N         10.6460    4.1330   25.6960 N.3   205  TRP205     -0.1241
    182  CA        10.1980    2.9060   25.0490 C.3   205  TRP205      0.1605
    183  C          8.8280    2.4660   25.5520 C.2   205  TRP205      0.2264
    184  O          8.5510    2.4490   26.7520 O.2   205  TRP205     -0.2867
    185  CB        11.2220    1.7630   25.2510 C.3   205  TRP205      0.0550
    186  CG        12.3470    1.9040   24.2570 C.ar  205  TRP205      0.0003
    187  CD1       13.5870    2.4560   24.4090 C.ar  205  TRP205      0.0946
    188  CD2       12.2950    1.4640   22.8900 C.ar  205  TRP205      0.0152
    189  NE1       14.3050    2.3880   23.2330 N.ar  205  TRP205     -0.2442
    190  CE2       13.5290    1.7760   22.2880 C.ar  205  TRP205      0.0810
    191  CE3       11.3170    0.8280   22.1280 C.ar  205  TRP205      0.0012
    192  CZ2       13.8050    1.4710   20.9510 C.ar  205  TRP205      0.0191
    193  CZ3       11.5950    0.5320   20.8080 C.ar  205  TRP205      0.0001
    194  CH2       12.8190    0.8500   20.2330 C.ar  205  TRP205      0.0015
@<TRIPOS>BOND
     1    27    28    1
     2    28    29    1
     3    28    31    1
     4    29    30    2
     5    53    52    2
     6    31    32    1
     7    48    47    2
     8    52    51    1
     9    50    51    1
    10    35    36    1
    11    47    46    1
    12    32    33    2
    13    32    34   am
    14    51    54    1
    15    54    55    1
    16    45    46    1
    17    45    37   am
    18    46    49    1
    19    36    37    1
    20    36    39    1
    21    57    55   am
    22    37    38    2
    23    55    56    2
    24    42    44   ar
    25    42    40   ar
    26    44    43   ar
    27    43    41   ar
    28    40    39    1
    29    40    41   ar
    30     4     3    2
    31    61    60    2
    32    70    67    1
    33    70    71    1
    34    74    72   am
    35     1     2    1
    36     3     2    1
    37    76    79    1
    38    76    75    1
    39    76    77    1
    40    79    80    1
    41    67    68    1
    42    67    66    1
    43    71    72    1
    44    60    66   am
    45    60    59    1
    46    72    73    2
    47    15    16    1
    48    22    24   ar
    49    22    20   ar
    50     2     5    1
    51    77    78    2
    52    63    65    1
    53    63    62    1
    54    68    69    2
    55     9     7   ar
    56     9    10   ar
    57    24    25   ar
    58    19    16    1
    59    19    20    1
    60    17    16    1
    61    17    18    2
    62     7     6   ar
    63    12    10   ar
    64    12    14   ar
    65    10     8   ar
    66    59    62    1
    67    59    58    1
    68    80    81   ar
    69    80    82   ar
    70    14    13   ar
    71    20    21   ar
    72     6     8   ar
    73     6     5    1
    74     8    11   ar
    75    62    64    1
    76    13    11   ar
    77    81    83   ar
    78    85    86    1
    79    87    86    1
    80    87    88    2
    81    86    89    1
    82    82    84   ar
    83    25    26    1
    84    25    23   ar
    85    21    23   ar
    86    83    84   ar
    87    98    97    2
    88    89    90    1
    89    91    90   ar
    90    91    93   ar
    91   116   117    1
    92   116   113    1
    93    90    92   ar
    94   119   117   ar
    95   119   121   ar
    96   158   156    1
    97    93    94   ar
    98   162   161    2
    99   117   118   ar
   100   121   122   ar
   101   156   157    1
   102   156   153    1
   103    92    94   ar
   104    95    96    1
   105   108   107    2
   106   112   113    1
   107    97    96    1
   108   111   109    1
   109   109   110    1
   110   109   106    1
   111   118   120   ar
   112   163   164    1
   113   163   160    1
   114   122   120   ar
   115   113   114    1
   116   105   106    1
   117   165   164    1
   118   165   159    1
   119   161   160    1
   120   161   166   am
   121    96    99    1
   122    99   100    1
   123   172   166    1
   124   172   171    1
   125   114   115    2
   126   106   107    1
   127   159   160    1
   128   159   154   am
   129   166   167    1
   130   153   154    1
   131   153   152    1
   132   154   155    2
   133   171   170    1
   134   100   101   ar
   135   100   102   ar
   136   101   103   ar
   137   170   167    1
   138   152   147   am
   139   167   168    1
   140   102   104   ar
   141   103   104   ar
   142   129   127    1
   143   148   147    2
   144   150   149    1
   145   143   142    1
   146   147   146    1
   147   144   142    1
   148   128   127    1
   149   168   169    2
   150   127   124    1
   151   135   134    1
   152   142   141    1
   153   141   138    1
   154   179   178    1
   155   149   146    1
   156   149   151    1
   157   146   145    1
   158   145   139   am
   159   136   134    1
   160   123   124    1
   161   178   180    1
   162   178   177    1
   163   134   131    1
   164   138   139    1
   165   138   137    1
   166   139   140    2
   167   124   125    1
   168   131   132    1
   169   131   130    1
   170   194   193   ar
   171   194   192   ar
   172   132   133    2
   173   173   174    1
   174   125   126    2
   175   193   191   ar
   176   177   174    1
   177   192   190   ar
   178   174   175    1
   179   191   188   ar
   180   190   188   ar
   181   190   189   ar
   182   176   175    2
   183   188   186   ar
   184   189   187   ar
   185   186   187   ar
   186   186   185    1
   187   182   185    1
   188   182   183    1
   189   182   181    1
   190   183   184    2
