@<TRIPOS>MOLECULE
tmp/3m2yA00.pdb
 104 109 0 0 0
SMALL
GASTEIGER

@<TRIPOS>ATOM
      1  N         34.7400    2.2200    5.9800 N.3     2  HIS2       -0.1226
      2  CA        33.8880    1.2540    6.6150 C.3     2  HIS2        0.1752
      3  C         32.7590    1.9820    7.3480 C.2     2  HIS2        0.2596
      4  O         32.7760    3.2030    7.5100 O.2     2  HIS2       -0.2718
      5  CB        34.7590    0.4550    7.5820 C.3     2  HIS2        0.0759
      6  CG        35.8510   -0.3200    6.9070 C.ar    2  HIS2        0.0818
      7  ND1       37.1920   -0.2590    7.1790 N.ar    2  HIS2       -0.2268
      8  CD2       35.7150   -1.2460    5.9370 C.ar    2  HIS2        0.1154
      9  CE1       37.8310   -1.0860    6.3850 C.ar    2  HIS2        0.1986
     10  NE2       36.9740   -1.7020    5.6250 N.ar    2  HIS2       -0.2212
     11  N         31.8020    1.2090    7.8040 N.am    3  HIS3       -0.1961
     12  CA        30.6240    1.7570    8.4630 C.3     3  HIS3        0.1787
     13  C         30.0740    0.7210    9.4250 C.2     3  HIS3        0.2620
     14  O         30.2640   -0.4780    9.2350 O.2     3  HIS3       -0.2715
     15  CB        29.6060    2.0540    7.3450 C.3     3  HIS3        0.0785
     16  CG        28.3920    2.8180    7.7300 C.ar    3  HIS3        0.0821
     17  ND1       28.2600    4.1510    7.4160 N.ar    3  HIS3       -0.2267
     18  CD2       27.2370    2.4680    8.3640 C.ar    3  HIS3        0.1154
     19  CE1       27.0930    4.5970    7.8520 C.ar    3  HIS3        0.1986
     20  NE2       26.4610    3.5920    8.4240 N.ar    3  HIS3       -0.2212
     21  N         29.3410    1.1640   10.4210 N.am    4  TRP4       -0.1974
     22  CA        28.6950    0.2720   11.3590 C.3     4  TRP4        0.1640
     23  C         27.6910   -0.5670   10.5860 C.2     4  TRP4        0.2290
     24  O         27.1170   -0.1270    9.5850 O.2     4  TRP4       -0.2864
     25  CB        28.0170    1.0490   12.4930 C.3     4  TRP4        0.0576
     26  CG        26.8230    1.8510   12.1300 C.ar    4  TRP4        0.0006
     27  CD1       26.7570    3.1620   11.7870 C.ar    4  TRP4        0.0946
     28  CD2       25.4590    1.3500   12.1020 C.ar    4  TRP4        0.0152
     29  NE1       25.4820    3.5300   11.5270 N.ar    4  TRP4       -0.2442
     30  CE2       24.6600    2.4430   11.7190 C.ar    4  TRP4        0.0810
     31  CE3       24.8710    0.1140   12.3610 C.ar    4  TRP4        0.0012
     32  CZ2       23.2830    2.2960   11.5960 C.ar    4  TRP4        0.0191
     33  CZ3       23.5220   -0.0400   12.2440 C.ar    4  TRP4        0.0001
     34  CH2       22.7500    1.0700   11.8530 C.ar    4  TRP4        0.0015
     35  N         32.2380   -8.1120   11.3650 N.3     9  HIS9       -0.1226
     36  CA        33.2830   -7.1300   11.4030 C.3     9  HIS9        0.1752
     37  C         32.8020   -5.7220   11.7080 C.2     9  HIS9        0.2596
     38  O         33.6380   -4.8890   12.0070 O.2     9  HIS9       -0.2718
     39  CB        34.1090   -7.1770   10.0950 C.3     9  HIS9        0.0759
     40  CG        34.7370   -8.5380    9.9350 C.ar    9  HIS9        0.0818
     41  ND1       35.7890   -8.9750   10.6790 N.ar    9  HIS9       -0.2268
     42  CD2       34.3800   -9.5430    9.0950 C.ar    9  HIS9        0.1154
     43  CE1       36.0780  -10.2140   10.2960 C.ar    9  HIS9        0.1986
     44  NE2       35.2650  -10.6020    9.3460 N.ar    9  HIS9       -0.2212
     45  N         31.5160   -5.4810   11.7120 N.am   10  ASN10      -0.1974
     46  CA        31.0310   -4.1370   11.9890 C.3    10  ASN10       0.1688
     47  C         29.7540   -4.1090   12.8240 C.2    10  ASN10       0.2292
     48  O         29.0660   -3.0710   12.9350 O.2    10  ASN10      -0.2864
     49  CB        30.8150   -3.3540   10.6960 C.3    10  ASN10       0.1181
     50  CG        29.7660   -3.9560    9.8200 C.2    10  ASN10       0.2629
     51  OD1       29.1720   -5.0010   10.1260 O.2    10  ASN10      -0.2716
     52  ND2       29.4640   -3.2990    8.7190 N.am   10  ASN10      -0.0877
     53  N         31.1700   -4.0360   17.8970 N.3    14  HIS14      -0.1226
     54  CA        32.1310   -3.0400   17.4660 C.3    14  HIS14       0.1752
     55  C         31.6710   -1.6160   17.6460 C.2    14  HIS14       0.2596
     56  O         32.4930   -0.6990   17.5740 O.2    14  HIS14      -0.2718
     57  CB        32.4310   -3.2620   15.9920 C.3    14  HIS14       0.0759
     58  CG        33.1420   -4.5030   15.6210 C.ar   14  HIS14       0.0818
     59  ND1       34.4500   -4.6360   15.6240 N.ar   14  HIS14      -0.2268
     60  CD2       32.7550   -5.7240   15.1960 C.ar   14  HIS14       0.1154
     61  CE1       34.9720   -5.7340   15.2420 C.ar   14  HIS14       0.1986
     62  NE2       33.8920   -6.4360   14.9950 N.ar   14  HIS14      -0.2212
     63  N         30.3690   -1.3740   17.8230 N.am   15  TRP15      -0.1976
     64  CA        29.8260   -0.0320   17.7570 C.3    15  TRP15       0.1640
     65  C         30.4340    0.9060   18.7810 C.2    15  TRP15       0.2290
     66  O         30.6140    2.0890   18.4980 O.2    15  TRP15      -0.2864
     67  CB        28.3080   -0.0700   17.9380 C.3    15  TRP15       0.0576
     68  CG        27.5810   -0.7750   16.8100 C.ar   15  TRP15       0.0006
     69  CD1       28.0550   -1.2360   15.6270 C.ar   15  TRP15       0.0946
     70  CD2       26.1700   -1.0910   16.8140 C.ar   15  TRP15       0.0152
     71  NE1       27.0560   -1.8300   14.8780 N.ar   15  TRP15      -0.2442
     72  CE2       25.8940   -1.7460   15.5890 C.ar   15  TRP15       0.0810
     73  CE3       25.1510   -0.8890   17.7300 C.ar   15  TRP15       0.0012
     74  CZ2       24.6150   -2.1980   15.2540 C.ar   15  TRP15       0.0191
     75  CZ3       23.8720   -1.3340   17.3790 C.ar   15  TRP15       0.0001
     76  CH2       23.5990   -1.9710   16.1780 C.ar   15  TRP15       0.0015
     77  N         33.3400    1.5100   19.6650 N.3    17  LYS17      -0.1231
     78  CA        34.5730    2.2000   19.2930 C.3    17  LYS17       0.1693
     79  C         34.3480    3.5420   18.5930 C.2    17  LYS17       0.2592
     80  O         35.1840    4.4330   18.6910 O.2    17  LYS17      -0.2718
     81  CB        35.4120    1.2720   18.4050 C.3    17  LYS17       0.0285
     82  CG        35.9860    0.1040   19.1900 C.3    17  LYS17       0.0035
     83  CD        36.7310   -0.8230   18.2800 C.3    17  LYS17       0.0206
     84  CE        35.8090   -1.7710   17.4930 C.3    17  LYS17       0.1093
     85  NZ        36.7450   -2.2120   16.4340 N.3    17  LYS17      -0.1314
     86  N         33.2260    3.6980   17.9350 N.am   18  ASP18      -0.1960
     87  CA        32.8710    4.9910   17.3210 C.3    18  ASP18       0.1840
     88  C         31.6930    5.6470   18.0320 C.2    18  ASP18       0.2622
     89  O         31.5050    6.8430   17.7960 O.2    18  ASP18      -0.2715
     90  CB        32.5840    4.8590   15.8150 C.3    18  ASP18       0.1450
     91  CG        33.9150    4.5810   15.1270 C.2    18  ASP18       0.3671
     92  OD1       34.3160    3.4140   15.0560 O.co2  18  ASP18      -0.2456
     93  OD2       34.5770    5.5600   14.7060 O.co2  18  ASP18      -0.2456
     94  N         30.9270    4.9520   18.8320 N.am   19  PHE19      -0.1974
     95  CA        29.7610    5.4380   19.5620 C.3    19  PHE19       0.1639
     96  C         29.8960    4.9620   20.9940 C.2    19  PHE19       0.2290
     97  O         29.2260    3.9900   21.4140 O.2    19  PHE19      -0.2864
     98  CB        28.4800    4.9400   18.8930 C.3    19  PHE19       0.0560
     99  CG        28.4370    5.2860   17.4160 C.ar   19  PHE19      -0.0200
    100  CD1       28.0100    6.5290   16.9550 C.ar   19  PHE19      -0.0042
    101  CD2       28.8780    4.3610   16.4680 C.ar   19  PHE19      -0.0042
    102  CE1       28.0440    6.8670   15.6080 C.ar   19  PHE19      -0.0003
    103  CE2       28.9050    4.6800   15.1490 C.ar   19  PHE19      -0.0003
    104  CZ        28.5080    5.9220   14.6940 C.ar   19  PHE19      -0.0000
@<TRIPOS>BOND
     1    10     8   ar
     2    10     9   ar
     3     8     6   ar
     4     1     2    1
     5     9     7   ar
     6     2     3    1
     7     2     5    1
     8     6     7   ar
     9     6     5    1
    10    15    16    1
    11    15    12    1
    12     3     4    2
    13     3    11   am
    14    17    16   ar
    15    17    19   ar
    16    16    18   ar
    17    11    12    1
    18    19    20   ar
    19    18    20   ar
    20    12    13    1
    21    52    50   am
    22    42    44   ar
    23    42    40   ar
    24    14    13    2
    25    44    43   ar
    26    13    21   am
    27    24    23    2
    28    50    51    2
    29    50    49    1
    30    40    39    1
    31    40    41   ar
    32    39    36    1
    33    43    41   ar
    34    21    22    1
    35    23    22    1
    36    49    46    1
    37    22    25    1
    38    35    36    1
    39    36    37    1
    40    29    30   ar
    41    29    27   ar
    42    32    30   ar
    43    32    34   ar
    44    37    45   am
    45    37    38    2
    46    45    46    1
    47    30    28   ar
    48    27    26   ar
    49    34    33   ar
    50    46    47    1
    51    28    26   ar
    52    28    31   ar
    53    26    25    1
    54    33    31   ar
    55    47    48    2
    56   104   103   ar
    57   104   102   ar
    58    93    91   ar
    59    71    72   ar
    60    71    69   ar
    61    62    60   ar
    62    62    61   ar
    63    92    91   ar
    64    91    90    1
    65   103   101   ar
    66    60    58   ar
    67    61    59   ar
    68    74    72   ar
    69    74    76   ar
    70    72    70   ar
    71   102   100   ar
    72    58    59   ar
    73    58    57    1
    74    69    68   ar
    75    90    87    1
    76    57    54    1
    77    76    75   ar
    78    85    84    1
    79   101    99   ar
    80    68    70   ar
    81    68    67    1
    82    70    73   ar
    83   100    99   ar
    84    87    86    1
    85    87    88    1
    86    75    73   ar
    87    99    98    1
    88    54    55    1
    89    54    53    1
    90    84    83    1
    91    56    55    2
    92    55    63   am
    93    64    63    1
    94    64    67    1
    95    64    65    1
    96    89    88    2
    97    86    79   am
    98    88    94   am
    99    83    82    1
   100    81    82    1
   101    81    78    1
   102    66    65    2
   103    79    80    2
   104    79    78    1
   105    94    95    1
   106    98    95    1
   107    78    77    1
   108    95    96    1
   109    96    97    2
