@<TRIPOS>MOLECULE
tmp/3m2yA01.pdb
 122 120 0 0 0
SMALL
GASTEIGER

@<TRIPOS>ATOM
      1  N          8.5270    7.9760   11.1680 N.3    91  GLN91      -0.1245
      2  CA         8.8200    6.8210   10.3280 C.3    91  GLN91       0.1566
      3  C          8.5070    5.5710   11.1220 C.2    91  GLN91       0.2260
      4  O          8.4610    5.6060   12.3500 O.2    91  GLN91      -0.2867
      5  CB        10.2580    6.8490    9.8490 C.3    91  GLN91       0.0367
      6  CG        11.3230    6.9290   10.9210 C.3    91  GLN91       0.0905
      7  CD        12.0530    5.6180   11.1580 C.2    91  GLN91       0.2608
      8  OE1       11.5110    4.5480   11.1770 O.2    91  GLN91      -0.2717
      9  NE2       13.3510    5.7580   11.4130 N.am   91  GLN91      -0.0878
     10  N          9.9890    1.2980   10.8910 N.3    93  HIS93      -0.1241
     11  CA        10.8700    0.3060   10.3210 C.3    93  HIS93       0.1621
     12  C         10.7770   -0.9680   11.1570 C.2    93  HIS93       0.2264
     13  O         10.1360   -0.9760   12.2130 O.2    93  HIS93      -0.2867
     14  CB        12.3070    0.8330   10.2540 C.3    93  HIS93       0.0745
     15  CG        12.8430    1.0950   11.6310 C.ar   93  HIS93       0.0817
     16  ND1       12.6910    2.3100   12.2710 N.ar   93  HIS93      -0.2268
     17  CD2       13.4840    0.2740   12.5170 C.ar   93  HIS93       0.1154
     18  CE1       13.2280    2.1910   13.4630 C.ar   93  HIS93       0.1986
     19  NE2       13.7060    0.9730   13.6770 N.ar   93  HIS93      -0.2212
     20  N         13.0770   -4.6820   12.4790 N.3    95  HIS95      -0.1241
     21  CA        14.2550   -5.5100   12.6680 C.3    95  HIS95       0.1621
     22  C         13.8140   -6.9680   12.5430 C.2    95  HIS95       0.2264
     23  O         12.7620   -7.2990   13.0530 O.2    95  HIS95      -0.2867
     24  CB        14.9020   -5.2710   14.0260 C.3    95  HIS95       0.0745
     25  CG        15.2000   -3.8470   14.3050 C.ar   95  HIS95       0.0817
     26  ND1       16.4330   -3.3110   14.1370 N.ar   95  HIS95      -0.2268
     27  CD2       14.3590   -2.7800   14.6880 C.ar   95  HIS95       0.1154
     28  CE1       16.3310   -1.9600   14.4720 C.ar   95  HIS95       0.1986
     29  NE2       15.1010   -1.6390   14.7590 N.ar   95  HIS95      -0.2212
     30  N          9.1330   -0.8860   14.8500 N.3   118  HIS118     -0.1241
     31  CA         9.3700    0.3500   15.5840 C.3   118  HIS118      0.1621
     32  C          8.6900    1.5080   14.8830 C.2   118  HIS118      0.2264
     33  O          9.0700    1.8630   13.7780 O.2   118  HIS118     -0.2867
     34  CB        10.8780    0.6140   15.6910 C.3   118  HIS118      0.0745
     35  CG        11.5520   -0.3580   16.5970 C.ar  118  HIS118      0.0817
     36  ND1       12.9100   -0.5560   16.6070 N.ar  118  HIS118     -0.2268
     37  CD2       11.0140   -1.1670   17.5400 C.ar  118  HIS118      0.1154
     38  CE1       13.1800   -1.4760   17.5220 C.ar  118  HIS118      0.1986
     39  NE2       12.0540   -1.8720   18.1120 N.ar  118  HIS118     -0.2212
     40  N          8.3850    5.3240   15.2000 N.3   120  VAL120     -0.1245
     41  CA         9.2510    6.3320   15.8130 C.3   120  VAL120      0.1561
     42  C          8.5500    7.6880   15.8270 C.2   120  VAL120      0.2260
     43  O          8.0750    8.1490   14.8070 O.2   120  VAL120     -0.2867
     44  CB        10.5700    6.4330   15.0220 C.3   120  VAL120      0.0252
     45  CG1       11.5040    7.4660   15.6340 C.3   120  VAL120      0.0019
     46  CG2       11.2240    5.0560   14.9240 C.3   120  VAL120      0.0019
     47  N         13.0430   16.6870   14.7830 N.3   129  PHE129     -0.1241
     48  CA        13.6450   15.4400   15.2220 C.3   129  PHE129      0.1605
     49  C         15.0680   15.6940   15.7060 C.2   129  PHE129      0.2264
     50  O         15.5220   15.1190   16.6900 O.2   129  PHE129     -0.2867
     51  CB        13.5420   14.4230   14.0930 C.3   129  PHE129      0.0534
     52  CG        14.1750   13.0910   14.4010 C.ar  129  PHE129     -0.0203
     53  CD1       13.3860   12.0490   14.8810 C.ar  129  PHE129     -0.0042
     54  CD2       15.5180   12.8570   14.2130 C.ar  129  PHE129     -0.0042
     55  CE1       13.9530   10.8390   15.1700 C.ar  129  PHE129     -0.0003
     56  CE2       16.0820   11.6430   14.5390 C.ar  129  PHE129     -0.0003
     57  CZ        15.2940   10.6370   14.9730 C.ar  129  PHE129     -0.0000
     58  N         12.2010   11.3410   22.1840 N.3   139  LEU139     -0.1245
     59  CA        11.5590   10.3810   21.2800 C.3   139  LEU139      0.1561
     60  C         10.6960    9.4430   22.0910 C.2   139  LEU139      0.2260
     61  O         10.9230    9.1560   23.2600 O.2   139  LEU139     -0.2867
     62  CB        12.5810    9.5280   20.5300 C.3   139  LEU139      0.0270
     63  CG        13.5760   10.2350   19.6550 C.3   139  LEU139      0.0019
     64  CD1       14.4440    9.2070   18.9240 C.3   139  LEU139      0.0001
     65  CD2       12.9180   11.1900   18.6450 C.3   139  LEU139      0.0001
     66  N          9.2210    5.5200   21.0530 N.3   141  VAL141     -0.1245
     67  CA         9.1730    4.4640   20.0730 C.3   141  VAL141      0.1561
     68  C          8.1540    3.4300   20.5420 C.2   141  VAL141      0.2260
     69  O          8.2790    2.9390   21.6660 O.2   141  VAL141     -0.2867
     70  CB        10.5370    3.8560   19.7110 C.3   141  VAL141      0.0252
     71  CG1       10.3510    2.8050   18.6210 C.3   141  VAL141      0.0019
     72  CG2       11.5070    4.9210   19.2860 C.3   141  VAL141      0.0019
     73  N         18.0900    4.9160   21.2150 N.3   196  LEU196     -0.1231
     74  CA        18.1100    4.4000   19.8410 C.3   196  LEU196      0.1693
     75  C         18.8270    3.0630   19.8680 C.2   196  LEU196      0.2593
     76  O         19.8300    2.9120   20.5700 O.2   196  LEU196     -0.2718
     77  CB        18.8950    5.3590   18.9630 C.3   196  LEU196      0.0284
     78  CG        18.1900    6.6020   18.3890 C.3   196  LEU196      0.0019
     79  CD1       17.3870    7.3650   19.3690 C.3   196  LEU196      0.0001
     80  CD2       19.2320    7.4940   17.6910 C.3   196  LEU196      0.0001
     81  N         18.3830    2.1040   19.0750 N.am  197  THR197     -0.1939
     82  CA        19.0590    0.8340   19.0180 C.3   197  THR197      0.2028
     83  C         20.0650    0.6940   17.8910 C.2   197  THR197      0.2643
     84  O         20.6830   -0.3520   17.7320 O.2   197  THR197     -0.2714
     85  CB        18.0440   -0.3440   18.9270 C.3   197  THR197      0.1808
     86  OG1       17.4050   -0.3140   17.6510 O.3   197  THR197     -0.2208
     87  CG2       17.0120   -0.3220   20.0400 C.3   197  THR197      0.0379
     88  N         20.2230    1.7370   17.1100 N.am  198  THR198     -0.1937
     89  CA        21.2510    1.8450   16.0940 C.3   198  THR198      0.2013
     90  C         22.1160    3.0620   16.4030 C.2   198  THR198      0.2484
     91  O         21.6480    4.0090   17.0140 O.2   198  THR198     -0.2729
     92  CB        20.6850    2.0400   14.6900 C.3   198  THR198      0.1807
     93  OG1       19.7960    3.1900   14.6640 O.3   198  THR198     -0.2208
     94  CG2       19.9040    0.8470   14.2340 C.3   198  THR198      0.0379
     95  N         23.3730    3.0400   15.9820 N.am  199  PRO199     -0.2715
     96  CA        24.1600    4.2560   16.0390 C.3   199  PRO199      0.1521
     97  C         23.4200    5.4510   15.4650 C.2   199  PRO199      0.2440
     98  O         22.7710    5.3150   14.4260 O.2   199  PRO199     -0.2731
     99  CB        25.3900    3.8620   15.1840 C.3   199  PRO199      0.0310
    100  CG        25.5390    2.3910   15.4220 C.3   199  PRO199      0.0237
    101  CD        24.1100    1.8850   15.4200 C.3   199  PRO199      0.0939
    102  N         23.4620    6.5940   16.1380 N.am  200  PRO200     -0.2727
    103  CA        24.3470    6.9390   17.2580 C.3   200  PRO200      0.1402
    104  C         23.9150    6.5330   18.6460 C.2   200  PRO200      0.2269
    105  O         24.5660    6.9650   19.6300 O.2   200  PRO200     -0.2865
    106  CB        24.4090    8.4780   17.1130 C.3   200  PRO200      0.0296
    107  CG        23.0360    8.8230   16.5960 C.3   200  PRO200      0.0237
    108  CD        22.6720    7.7450   15.6380 C.3   200  PRO200      0.0939
    109  N         10.5370    4.0750   25.6120 N.3   207  TRP207     -0.1241
    110  CA        10.1070    2.8820   24.9010 C.3   207  TRP207      0.1605
    111  C          8.7400    2.4760   25.4000 C.2   207  TRP207      0.2264
    112  O          8.5260    2.4130   26.6260 O.2   207  TRP207     -0.2867
    113  CB        11.1160    1.7070   25.1160 C.3   207  TRP207      0.0550
    114  CG        12.2430    1.8700   24.1370 C.ar  207  TRP207      0.0003
    115  CD1       13.4420    2.4300   24.3250 C.ar  207  TRP207      0.0946
    116  CD2       12.2080    1.4320   22.7710 C.ar  207  TRP207      0.0152
    117  NE1       14.1910    2.4000   23.1630 N.ar  207  TRP207     -0.2442
    118  CE2       13.4590    1.7890   22.2180 C.ar  207  TRP207      0.0810
    119  CE3       11.2640    0.7810   22.0050 C.ar  207  TRP207      0.0012
    120  CZ2       13.7140    1.4840   20.8730 C.ar  207  TRP207      0.0191
    121  CZ3       11.5420    0.4940   20.6810 C.ar  207  TRP207      0.0001
    122  CH2       12.7630    0.8470   20.1460 C.ar  207  TRP207      0.0015
@<TRIPOS>BOND
     1     5     2    1
     2     5     6    1
     3    14    11    1
     4    14    15    1
     5    11    10    1
     6    11    12    1
     7     2     3    1
     8     2     1    1
     9     6     7    1
    10     3     4    2
    11    12    13    2
    12     7     8    2
    13     7     9   am
    14    15    16   ar
    15    15    17   ar
    16    16    18   ar
    17    20    21    1
    18    17    19   ar
    19    22    21    1
    20    22    23    2
    21    21    24    1
    22    18    19   ar
    23    33    32    2
    24    24    25    1
    25    51    52    1
    26    51    48    1
    27    26    25   ar
    28    26    28   ar
    29    54    52   ar
    30    54    56   ar
    31    94    92    1
    32    25    27   ar
    33    52    53   ar
    34    98    97    2
    35    28    29   ar
    36    56    57   ar
    37    93    92    1
    38    27    29   ar
    39    92    89    1
    40    47    48    1
    41    43    42    2
    42    30    31    1
    43    53    55   ar
    44    32    31    1
    45    46    44    1
    46    57    55   ar
    47    44    45    1
    48    44    41    1
    49    99   100    1
    50    99    96    1
    51    40    41    1
    52    48    49    1
    53   101   100    1
    54   101    95    1
    55    97    96    1
    56    97   102   am
    57    31    34    1
    58   108   102    1
    59   108   107    1
    60    34    35    1
    61    49    50    2
    62    41    42    1
    63    95    96    1
    64    95    90   am
    65    89    90    1
    66    89    88    1
    67   102   103    1
    68    90    91    2
    69   107   106    1
    70    35    36   ar
    71    35    37   ar
    72    36    38   ar
    73    88    83   am
    74   106   103    1
    75   103   104    1
    76    38    39   ar
    77    37    39   ar
    78    86    85    1
    79    80    78    1
    80    84    83    2
    81    83    82    1
    82    78    77    1
    83    78    79    1
    84    71    70    1
    85    65    63    1
    86   104   105    2
    87    64    63    1
    88    85    82    1
    89    85    87    1
    90    77    74    1
    91    82    81    1
    92    81    75   am
    93    72    70    1
    94    63    62    1
    95    70    67    1
    96    74    75    1
    97    74    73    1
    98    75    76    2
    99    67    68    1
   100    67    66    1
   101   122   121   ar
   102   122   120   ar
   103    62    59    1
   104    68    69    2
   105   121   119   ar
   106   120   118   ar
   107    59    60    1
   108    59    58    1
   109   119   116   ar
   110    60    61    2
   111   118   116   ar
   112   118   117   ar
   113   116   114   ar
   114   117   115   ar
   115   114   115   ar
   116   114   113    1
   117   110   113    1
   118   110   111    1
   119   110   109    1
   120   111   112    2
