@<TRIPOS>MOLECULE
tmp/3m2zA00.pdb
 111 109 0 0 0
SMALL
GASTEIGER

@<TRIPOS>ATOM
      1  N         28.2880    5.0690    6.4240 N.3     1  HIS1       -0.1241
      2  CA        28.7240    4.8520    7.8050 C.3     1  HIS1        0.1621
      3  C         29.4630    3.5270    7.9760 C.2     1  HIS1        0.2264
      4  O         29.1780    2.5090    7.3510 O.2     1  HIS1       -0.2867
      5  CB        27.5420    4.9640    8.7600 C.3     1  HIS1        0.0745
      6  CG        26.4760    3.9280    8.7660 C.ar    1  HIS1        0.0817
      7  ND1       25.1550    4.2210    8.4870 N.ar    1  HIS1       -0.2268
      8  CD2       26.4880    2.6040    9.0380 C.ar    1  HIS1        0.1154
      9  CE1       24.4180    3.1230    8.5730 C.ar    1  HIS1        0.1986
     10  NE2       25.2160    2.1210    8.9120 N.ar    1  HIS1       -0.2212
     11  N         29.7570    1.6040   10.7870 N.3     3  TRP3       -0.1227
     12  CA        29.1110    0.5610   11.5800 C.3     3  TRP3        0.1737
     13  C         28.1280   -0.2760   10.7770 C.2     3  TRP3        0.2596
     14  O         27.5620    0.1410    9.7830 O.2     3  TRP3       -0.2718
     15  CB        28.3780    1.1650   12.7790 C.3     3  TRP3        0.0564
     16  CG        27.2140    2.0270   12.4430 C.ar    3  TRP3        0.0003
     17  CD1       27.1780    3.3610   12.1810 C.ar    3  TRP3        0.0946
     18  CD2       25.8540    1.5730   12.3410 C.ar    3  TRP3        0.0152
     19  NE1       25.9000    3.7740   11.9190 N.ar    3  TRP3       -0.2442
     20  CE2       25.0650    2.6870   12.0130 C.ar    3  TRP3        0.0810
     21  CE3       25.2830    0.3160   12.5070 C.ar    3  TRP3        0.0012
     22  CZ2       23.6980    2.5650   11.8420 C.ar    3  TRP3        0.0191
     23  CZ3       23.9090    0.2130   12.3350 C.ar    3  TRP3        0.0001
     24  CH2       23.1430    1.3310   12.0100 C.ar    3  TRP3        0.0015
     25  N         27.9070   -1.4890   11.2600 N.am    4  GLY4       -0.1942
     26  CA        26.9060   -2.3850   10.6970 C.3     4  GLY4        0.2014
     27  C         26.5570   -3.4600   11.7120 C.2     4  GLY4        0.2638
     28  O         26.5970   -3.2190   12.9210 O.2     4  GLY4       -0.2714
     29  N         26.2170   -4.6390   11.2060 N.am    5  TYR5       -0.1973
     30  CA        25.8270   -5.7780   12.0150 C.3     5  TYR5        0.1639
     31  C         26.7470   -6.9820   11.8250 C.2     5  TYR5        0.2290
     32  O         26.4260   -8.0960   12.2540 O.2     5  TYR5       -0.2864
     33  CB        24.3640   -6.1760   11.7260 C.3     5  TYR5        0.0560
     34  CG        23.3790   -5.1010   12.1350 C.ar    5  TYR5       -0.0198
     35  CD1       22.9700   -4.9970   13.4620 C.ar    5  TYR5       -0.0009
     36  CD2       22.8460   -4.1940   11.2380 C.ar    5  TYR5       -0.0009
     37  CE1       22.0680   -4.0210   13.8510 C.ar    5  TYR5        0.0417
     38  CE2       21.9420   -3.2140   11.6100 C.ar    5  TYR5        0.0417
     39  CZ        21.5510   -3.1330   12.9290 C.ar    5  TYR5        0.1957
     40  OH        20.6610   -2.1590   13.3400 O.3     5  TYR5       -0.2866
     41  N         32.1160   -5.0760   12.2330 N.3     9  ASN9       -0.1240
     42  CA        31.5910   -3.7410   12.5080 C.3     9  ASN9        0.1653
     43  C         30.2870   -3.7410   13.3030 C.2     9  ASN9        0.2266
     44  O         29.6590   -2.6930   13.4390 O.2     9  ASN9       -0.2867
     45  CB        31.3740   -3.0290   11.1650 C.3     9  ASN9        0.1155
     46  CG        30.3470   -3.7510   10.3130 C.2     9  ASN9        0.2627
     47  OD1       29.7430   -4.7460   10.7260 O.2     9  ASN9       -0.2716
     48  ND2       30.1310   -3.2340    9.1040 N.am    9  ASN9       -0.0877
     49  N         20.2540    0.9540    3.7880 N.3    61  GLY61      -0.1210
     50  CA        21.4670    0.1710    3.9210 C.3    61  GLY61       0.1956
     51  C         21.4620   -0.7060    5.1530 C.2    61  GLY61       0.2612
     52  O         22.2190   -1.6710    5.1970 O.2    61  GLY61      -0.2717
     53  N         20.6140   -0.3930    6.1180 N.am   62  CYS62      -0.1970
     54  CA        20.5250   -1.1510    7.3640 C.3    62  CYS62       0.1712
     55  C         19.1180   -1.6840    7.6030 C.2    62  CYS62       0.2296
     56  O         18.9120   -2.7790    8.1300 O.2    62  CYS62      -0.2864
     57  CB        20.9780   -0.2650    8.5300 C.3    62  CYS62       0.0983
     58  SG        22.7140    0.2750    8.4160 S.3    62  CYS62      -0.0798
     59  N         20.5210   -0.5350   -1.0930 N.3   167  LYS167     -0.1245
     60  CA        20.8420    0.6600   -0.3410 C.3   167  LYS167      0.1561
     61  C         20.6630    1.8990   -1.2090 C.2   167  LYS167      0.2260
     62  O         21.2050    1.9120   -2.3170 O.2   167  LYS167     -0.2867
     63  CB        22.2760    0.5950    0.1830 C.3   167  LYS167      0.0271
     64  CG        22.8180    1.9260    0.6890 C.3   167  LYS167      0.0035
     65  CD        24.0590    1.7710    1.5470 C.3   167  LYS167      0.0206
     66  CE        25.1290    0.9530    0.8430 C.3   167  LYS167      0.1093
     67  NZ        26.1910    0.4990    1.7980 N.3   167  LYS167     -0.1314
     68  N         21.6180   -5.3150    1.9100 N.3   228  PHE228     -0.1227
     69  CA        22.3810   -4.3100    2.6350 C.3   228  PHE228      0.1736
     70  C         23.1530   -3.4470    1.6210 C.2   228  PHE228      0.2595
     71  O         23.3360   -2.2530    1.8370 O.2   228  PHE228     -0.2718
     72  CB        23.3810   -4.9090    3.5890 C.3   228  PHE228      0.0547
     73  CG        22.9290   -5.4190    4.9380 C.ar  228  PHE228     -0.0202
     74  CD1       22.1490   -4.6680    5.8000 C.ar  228  PHE228     -0.0042
     75  CD2       23.3200   -6.7030    5.3220 C.ar  228  PHE228     -0.0042
     76  CE1       21.7550   -5.2000    7.0280 C.ar  228  PHE228     -0.0003
     77  CE2       22.9340   -7.2370    6.5390 C.ar  228  PHE228     -0.0003
     78  CZ        22.1490   -6.4700    7.3820 C.ar  228  PHE228     -0.0000
     79  N         23.6110   -4.1240    0.5690 N.am  229  ASN229     -0.1974
     80  CA        24.5020   -3.4940   -0.3990 C.3   229  ASN229      0.1688
     81  C         23.7660   -2.5790   -1.3680 C.2   229  ASN229      0.2292
     82  O         22.5490   -2.6340   -1.4740 O.2   229  ASN229     -0.2864
     83  CB        25.2550   -4.5490   -1.2310 C.3   229  ASN229      0.1181
     84  CG        24.2650   -5.5050   -1.8550 C.2   229  ASN229      0.2629
     85  OD1       23.7550   -6.3580   -1.1300 O.2   229  ASN229     -0.2716
     86  ND2       23.9770   -5.3240   -3.1390 N.am  229  ASN229     -0.0877
     87  N         26.5110   -4.0320   -6.6050 N.3   233  GLU233     -0.1231
     88  CA        27.5370   -4.5600   -5.7030 C.3   233  GLU233      0.1684
     89  C         27.2060   -6.0230   -5.3950 C.2   233  GLU233      0.2434
     90  O         26.0660   -6.4270   -5.6370 O.2   233  GLU233     -0.2733
     91  CB        27.6500   -3.7590   -4.4210 C.3   233  GLU233      0.0402
     92  CG        27.9310   -2.2790   -4.5400 C.3   233  GLU233      0.1161
     93  CD        27.6630   -1.4970   -3.2710 C.2   233  GLU233      0.3649
     94  OE1       27.4660   -2.0880   -2.1870 O.co2 233  GLU233     -0.2457
     95  OE2       27.6550   -0.2500   -3.3480 O.co2 233  GLU233     -0.2457
     96  N         28.1280   -6.8180   -4.8900 N.am  234  PRO234     -0.2729
     97  CA        27.8310   -8.2140   -4.5270 C.3   234  PRO234      0.1401
     98  C         26.7280   -8.2880   -3.4720 C.2   234  PRO234      0.2269
     99  O         26.7110   -7.4480   -2.5750 O.2   234  PRO234     -0.2865
    100  CB        29.1350   -8.7240   -3.9230 C.3   234  PRO234      0.0296
    101  CG        30.1630   -7.8790   -4.6080 C.3   234  PRO234      0.0237
    102  CD        29.5450   -6.4980   -4.6230 C.3   234  PRO234      0.0939
    103  N         24.4250   -8.9980   -0.4260 N.3   236  GLU236     -0.1245
    104  CA        24.4980   -9.4060    0.9720 C.3   236  GLU236      0.1567
    105  C         23.0950   -9.1880    1.5270 C.2   236  GLU236      0.2260
    106  O         22.5940   -8.0640    1.5710 O.2   236  GLU236     -0.2867
    107  CB        25.5960   -8.6670    1.7120 C.3   236  GLU236      0.0388
    108  CG        25.9200   -9.1980    3.0880 C.3   236  GLU236      0.1160
    109  CD        26.3030  -10.6500    3.2260 C.2   236  GLU236      0.3649
    110  OE1       27.0370  -11.2180    2.3930 O.co2 236  GLU236     -0.2457
    111  OE2       25.8690  -11.2880    4.2170 O.co2 236  GLU236     -0.2457
@<TRIPOS>BOND
     1    87    88    1
     2    88    89    1
     3    88    91    1
     4    90    89    2
     5    89    96   am
     6    96   102    1
     7    96    97    1
     8   102   101    1
     9   101   100    1
    10    92    91    1
    11    92    93    1
    12    97   100    1
    13    97    98    1
    14    98    99    2
    15    95    93   ar
    16    93    94   ar
    17    86    84   am
    18    62    61    2
    19    84    83    1
    20    84    85    2
    21    82    81    2
    22    81    80    1
    23    83    80    1
    24    61    60    1
    25    59    60    1
    26   103   104    1
    27    80    79    1
    28    60    63    1
    29    63    64    1
    30    79    70   am
    31    64    65    1
    32    66    65    1
    33    66    67    1
    34   104   105    1
    35   104   107    1
    36   105   106    2
    37    70    71    2
    38    70    69    1
    39   107   108    1
    40    68    69    1
    41   110   109   ar
    42    69    72    1
    43   108   109    1
    44   109   111   ar
    45    72    73    1
    46    49    50    1
    47    50    51    1
    48    73    75   ar
    49    73    74   ar
    50    51    52    2
    51    51    53   am
    52    75    77   ar
    53    74    76   ar
    54    53    54    1
    55     1     2    1
    56    77    78   ar
    57    76    78   ar
    58     4     3    2
    59    54    55    1
    60    54    57    1
    61    55    56    2
    62     2     3    1
    63     2     5    1
    64    58    57    1
    65     7     9   ar
    66     7     6   ar
    67     9    10   ar
    68     5     6    1
    69     6     8   ar
    70    10     8   ar
    71    48    46   am
    72    14    13    2
    73    46    47    2
    74    46    45    1
    75    26    25    1
    76    26    27    1
    77    13    25   am
    78    13    12    1
    79    11    12    1
    80    45    42    1
    81    29    27   am
    82    29    30    1
    83    36    38   ar
    84    36    34   ar
    85    12    15    1
    86    38    39   ar
    87    27    28    2
    88    33    30    1
    89    33    34    1
    90    31    30    1
    91    31    32    2
    92    22    24   ar
    93    22    20   ar
    94    19    20   ar
    95    19    17   ar
    96    24    23   ar
    97    20    18   ar
    98    34    35   ar
    99    17    16   ar
   100    41    42    1
   101    23    21   ar
   102    18    16   ar
   103    18    21   ar
   104    16    15    1
   105    42    43    1
   106    39    40    1
   107    39    37   ar
   108    43    44    2
   109    35    37   ar
