@<TRIPOS>MOLECULE
tmp/3m30A02.pdb
 95 91 0 0 0
SMALL
GASTEIGER

@<TRIPOS>ATOM
      1  N         19.2800   41.1540  -25.9440 N.3   268  ARG268     -0.1245
      2  CA        20.0490   41.2930  -24.6840 C.3   268  ARG268      0.1563
      3  C         21.2160   40.3270  -24.6690 C.2   268  ARG268      0.2260
      4  O         22.2760   40.6810  -24.0770 O.2   268  ARG268     -0.2867
      5  CB        19.0460   41.0980  -23.4910 C.3   268  ARG268      0.0307
      6  CG        19.8500   41.4140  -22.1630 C.3   268  ARG268      0.0489
      7  CD        18.9830   41.2010  -20.9310 C.3   268  ARG268      0.2205
      8  NE        17.9020   42.1960  -20.8580 N.pl3 268  ARG268     -0.0865
      9  CZ        18.0930   43.4140  -20.3360 C.cat 268  ARG268      0.5346
     10  NH1       19.2200   43.7450  -19.6680 N.pl3 268  ARG268      0.1354
     11  NH2       17.0720   44.2840  -20.4080 N.pl3 268  ARG268      0.1354
     12  N         27.3500   29.3440  -20.3470 N.3   317  LEU317     -0.1245
     13  CA        27.0560   30.2520  -19.2550 C.3   317  LEU317      0.1561
     14  C         28.3160   30.7870  -18.5610 C.2   317  LEU317      0.2260
     15  O         28.3380   31.9500  -18.1280 O.2   317  LEU317     -0.2867
     16  CB        26.1620   29.5500  -18.1940 C.3   317  LEU317      0.0270
     17  CG        24.7120   29.2300  -18.7070 C.3   317  LEU317      0.0019
     18  CD1       23.8960   28.5350  -17.6510 C.3   317  LEU317      0.0001
     19  CD2       23.9800   30.5250  -19.1190 C.3   317  LEU317      0.0001
     20  N         28.2900   33.9520  -21.5180 N.3   321  MET321     -0.1230
     21  CA        27.3420   34.7400  -20.7420 C.3   321  MET321      0.1702
     22  C         27.9130   35.2710  -19.4540 C.2   321  MET321      0.2593
     23  O         27.2060   35.9120  -18.6990 O.2   321  MET321     -0.2718
     24  CB        26.0860   33.9120  -20.4010 C.3   321  MET321      0.0401
     25  CG        25.2530   33.5680  -21.7110 C.3   321  MET321      0.0596
     26  SD        24.5980   35.0390  -22.5140 S.3   321  MET321     -0.1393
     27  CE        23.7880   35.9530  -21.1520 C.3   321  MET321      0.0692
     28  N         29.2190   35.0610  -19.1540 N.am  322  SER322     -0.1952
     29  CA        29.8260   35.5660  -17.8940 C.3   322  SER322      0.1924
     30  C         31.3560   35.7230  -18.1490 C.2   322  SER322      0.2314
     31  O         31.7640   36.7490  -18.6970 O.2   322  SER322     -0.2863
     32  CB        29.4320   34.6420  -16.6560 C.3   322  SER322      0.2116
     33  OG        29.9780   33.3980  -16.7530 O.3   322  SER322     -0.2180
     34  N         32.7940   28.3610  -14.3820 N.3   327  PHE327     -0.1298
     35  CA        31.8390   27.3710  -13.7910 C.3   327  PHE327      0.1290
     36  C         32.2280   25.9390  -14.0210 C.3   327  PHE327      0.2013
     37  O         31.3740   25.0020  -14.2620 O.3   327  PHE327     -0.2188
     38  CB        30.4280   27.6090  -14.4170 C.3   327  PHE327      0.0480
     39  CG        29.8450   28.9810  -14.1730 C.ar  327  PHE327     -0.0206
     40  CD1       30.1350   29.7390  -12.9860 C.ar  327  PHE327     -0.0042
     41  CD2       28.9830   29.5020  -15.1290 C.ar  327  PHE327     -0.0042
     42  CE1       29.5780   30.9920  -12.7560 C.ar  327  PHE327     -0.0003
     43  CE2       28.4090   30.7720  -14.8930 C.ar  327  PHE327     -0.0003
     44  CZ        28.7080   31.5780  -13.7320 C.ar  327  PHE327     -0.0000
     45  N         30.5580   23.5210  -11.2660 N.3   330  TYR330     -0.1241
     46  CA        29.0800   23.3850  -11.3940 C.3   330  TYR330      0.1605
     47  C         28.7970   22.3090  -12.4630 C.2   330  TYR330      0.2264
     48  O         27.7710   21.5660  -12.3170 O.2   330  TYR330     -0.2867
     49  CB        28.4800   24.6970  -11.8780 C.3   330  TYR330      0.0534
     50  CG        28.2530   25.7440  -10.8180 C.ar  330  TYR330     -0.0201
     51  CD1       27.4830   25.4420   -9.6430 C.ar  330  TYR330     -0.0009
     52  CD2       28.6870   27.0540  -10.9750 C.ar  330  TYR330     -0.0009
     53  CE1       27.2480   26.4780   -8.7110 C.ar  330  TYR330      0.0417
     54  CE2       28.4420   28.0890  -10.0840 C.ar  330  TYR330      0.0417
     55  CZ        27.6570   27.7800   -8.9600 C.ar  330  TYR330      0.1957
     56  OH        27.3190   28.7320   -7.9630 O.3   330  TYR330     -0.2866
     57  N         22.6860   28.1850   -5.2710 N.3   439  PHE439     -0.1241
     58  CA        23.1440   29.5570   -5.1020 C.3   439  PHE439      0.1605
     59  C         21.9460   30.5380   -5.0910 C.2   439  PHE439      0.2264
     60  O         20.7860   30.1470   -5.2550 O.2   439  PHE439     -0.2867
     61  CB        24.2440   29.8540   -6.2130 C.3   439  PHE439      0.0534
     62  CG        23.6400   30.1410   -7.6010 C.ar  439  PHE439     -0.0203
     63  CD1       23.3720   29.0740   -8.5050 C.ar  439  PHE439     -0.0042
     64  CD2       23.3780   31.4910   -7.9670 C.ar  439  PHE439     -0.0042
     65  CE1       22.7940   29.3350   -9.7790 C.ar  439  PHE439     -0.0003
     66  CE2       22.7190   31.7440   -9.2110 C.ar  439  PHE439     -0.0003
     67  CZ        22.4450   30.6300  -10.1070 C.ar  439  PHE439     -0.0000
     68  N         17.2180   30.9350  -19.2290 N.3   473  ALA473     -0.1231
     69  CA        18.2180   31.6860  -20.0240 C.3   473  ALA473      0.1694
     70  C         19.4170   32.0930  -19.2070 C.2   473  ALA473      0.2592
     71  O         20.3990   32.5930  -19.8660 O.2   473  ALA473     -0.2718
     72  CB        17.5360   32.9400  -20.6340 C.3   473  ALA473      0.0304
     73  N         19.4200   31.9970  -17.9000 N.am  474  MET474     -0.1965
     74  CA        20.5350   32.5780  -17.0630 C.3   474  MET474      0.1736
     75  C         21.3120   31.5480  -16.2950 C.2   474  MET474      0.2616
     76  O         22.4840   31.8740  -16.0350 O.2   474  MET474     -0.2715
     77  CB        19.9010   33.5080  -16.0010 C.3   474  MET474      0.0427
     78  CG        19.2010   34.7130  -16.6910 C.3   474  MET474      0.0599
     79  SD        17.7770   35.3850  -15.7870 S.3   474  MET474     -0.1393
     80  CE        16.5170   34.1300  -16.2880 C.3   474  MET474      0.0692
     81  N         20.8080   30.4090  -15.8180 N.am  475  ASN475     -0.1958
     82  CA        21.4670   29.8990  -14.5910 C.3   475  ASN475      0.1819
     83  C         22.0920   28.4990  -14.8050 C.2   475  ASN475      0.2621
     84  O         21.5760   27.6350  -15.5500 O.2   475  ASN475     -0.2715
     85  CB        20.4290   29.8050  -13.4700 C.3   475  ASN475      0.1195
     86  CG        19.8440   31.1230  -13.2210 C.2   475  ASN475      0.2630
     87  OD1       18.5910   31.3360  -13.3190 O.2   475  ASN475     -0.2716
     88  ND2       20.6400   32.1090  -12.8730 N.am  475  ASN475     -0.0877
     89  N         23.2420   28.2880  -14.0960 N.am  476  VAL476     -0.1977
     90  CA        23.9770   27.0310  -14.2190 C.3   476  VAL476      0.1596
     91  C         23.2190   25.8460  -13.5670 C.2   476  VAL476      0.2287
     92  O         22.1910   26.0880  -12.8590 O.2   476  VAL476     -0.2864
     93  CB        25.3110   27.1440  -13.4070 C.3   476  VAL476      0.0276
     94  CG1       26.2190   28.1850  -14.0790 C.3   476  VAL476      0.0022
     95  CG2       25.0680   27.4500  -11.8580 C.3   476  VAL476      0.0022
@<TRIPOS>BOND
     1     1     2    1
     2     2     3    1
     3     2     5    1
     4     3     4    2
     5     5     6    1
     6    26    25    1
     7    26    27    1
     8     6     7    1
     9    25    24    1
    10    20    21    1
    11     7     8    1
    12     8     9    2
    13    21    24    1
    14    21    22    1
    15    72    69    1
    16    11     9    1
    17    12    13    1
    18     9    10    1
    19    69    68    1
    20    69    70    1
    21    71    70    2
    22    22    28   am
    23    22    23    2
    24    13    14    1
    25    13    16    1
    26    70    73   am
    27    28    29    1
    28    19    17    1
    29    17    16    1
    30    17    18    1
    31    31    30    2
    32    14    15    2
    33    30    29    1
    34    73    74    1
    35    29    32    1
    36    74    75    1
    37    74    77    1
    38    33    32    1
    39    78    77    1
    40    78    79    1
    41    75    76    2
    42    75    81   am
    43    80    79    1
    44    81    82    1
    45    84    83    2
    46    41    43   ar
    47    41    39   ar
    48    43    44   ar
    49    83    82    1
    50    83    89   am
    51    82    85    1
    52    38    39    1
    53    38    35    1
    54    34    35    1
    55    37    36    1
    56    90    89    1
    57    90    91    1
    58    90    93    1
    59    39    40   ar
    60    94    93    1
    61    36    35    1
    62    44    42   ar
    63    91    92    2
    64    85    86    1
    65    93    95    1
    66    87    86    2
    67    86    88   am
    68    40    42   ar
    69    47    48    2
    70    47    46    1
    71    49    46    1
    72    49    50    1
    73    46    45    1
    74    52    50   ar
    75    52    54   ar
    76    50    51   ar
    77    67    65   ar
    78    67    66   ar
    79    54    55   ar
    80    65    63   ar
    81    51    53   ar
    82    66    64   ar
    83    55    53   ar
    84    55    56    1
    85    63    62   ar
    86    64    62   ar
    87    62    61    1
    88    61    58    1
    89    57    58    1
    90    60    59    2
    91    58    59    1
