@<TRIPOS>MOLECULE
tmp/3m35A00.pdb
 177 174 0 0 0
SMALL
GASTEIGER

@<TRIPOS>ATOM
      1  N          8.4400   71.9790   19.7710 N.3    40  HIS40      -0.1241
      2  CA         9.4700   72.0000   18.7370 C.3    40  HIS40       0.1621
      3  C          9.5740   70.6950   17.9500 C.2    40  HIS40       0.2264
      4  O         10.4000   70.5810   17.0560 O.2    40  HIS40      -0.2867
      5  CB        10.8450   72.3820   19.3150 C.3    40  HIS40       0.0745
      6  CG        11.5170   71.2920   20.0940 C.ar   40  HIS40       0.0817
      7  ND1       11.3530   71.1340   21.4550 N.ar   40  HIS40      -0.2268
      8  CD2       12.3970   70.3360   19.7100 C.ar   40  HIS40       0.1154
      9  CE1       12.1060   70.1340   21.8770 C.ar   40  HIS40       0.1986
     10  NE2       12.7500   69.6320   20.8380 N.ar   40  HIS40      -0.2212
     11  N          9.9080   79.8280   19.7750 N.3    78  SER78      -0.1202
     12  CA        11.0330   79.0210   19.3140 C.3    78  SER78       0.2020
     13  C         12.4120   79.6240   19.5910 C.2    78  SER78       0.2619
     14  O         13.4270   78.9520   19.4440 O.2    78  SER78      -0.2717
     15  CB        10.8860   78.7270   17.8190 C.3    78  SER78       0.2103
     16  OG        10.5840   79.9010   17.0950 O.3    78  SER78      -0.2182
     17  N         12.4460   80.8880   19.9970 N.am   79  ASN79      -0.1960
     18  CA        13.7140   81.5450   20.2890 C.3    79  ASN79       0.1819
     19  C         14.1180   81.3420   21.7440 C.2    79  ASN79       0.2622
     20  O         15.2950   81.3670   22.0640 O.2    79  ASN79      -0.2715
     21  CB        13.6260   83.0440   19.9880 C.3    79  ASN79       0.1195
     22  CG        13.4050   83.3330   18.5130 C.2    79  ASN79       0.2630
     23  OD1       14.2210   82.9730   17.6690 O.2    79  ASN79      -0.2716
     24  ND2       12.2890   83.9840   18.1990 N.am   79  ASN79      -0.0877
     25  N         13.1340   81.1380   22.6180 N.am   80  THR80      -0.1937
     26  CA        13.4040   80.9390   24.0380 C.3    80  THR80       0.2028
     27  C         13.0180   79.5410   24.5220 C.2    80  THR80       0.2642
     28  O         13.3790   79.1450   25.6320 O.2    80  THR80      -0.2714
     29  CB        12.6350   81.9590   24.9040 C.3    80  THR80       0.1808
     30  OG1       11.2310   81.6860   24.8280 O.3    80  THR80      -0.2208
     31  CG2       12.8960   83.3740   24.4210 C.3    80  THR80       0.0379
     32  N         12.2920   78.8050   23.6810 N.am   81  LEU81      -0.1977
     33  CA        11.8120   77.4600   23.9960 C.3    81  LEU81       0.1596
     34  C         10.7920   77.4810   25.1290 C.2    81  LEU81       0.2287
     35  O         10.5040   76.4590   25.7300 O.2    81  LEU81      -0.2864
     36  CB        12.9730   76.5210   24.3530 C.3    81  LEU81       0.0297
     37  CG        13.7440   75.8920   23.1890 C.3    81  LEU81       0.0022
     38  CD1       12.8090   75.0440   22.3470 C.3    81  LEU81       0.0001
     39  CD2       14.3760   76.9800   22.3410 C.3    81  LEU81       0.0001
     40  N         19.6890   59.8400   20.9910 N.3   123  ASN123     -0.1240
     41  CA        21.1180   59.6000   20.9090 C.3   123  ASN123      0.1653
     42  C         21.6480   59.0870   22.2500 C.2   123  ASN123      0.2266
     43  O         21.2310   59.5590   23.3080 O.2   123  ASN123     -0.2867
     44  CB        21.8130   60.9100   20.5410 C.3   123  ASN123      0.1155
     45  CG        23.2430   60.7100   20.0970 C.2   123  ASN123      0.2627
     46  OD1       23.8190   59.6410   20.2750 O.2   123  ASN123     -0.2716
     47  ND2       23.8290   61.7540   19.5170 N.am  123  ASN123     -0.0877
     48  N         18.1720   81.8630   30.9690 N.3   155  GLN155     -0.1245
     49  CA        17.4590   81.0520   29.9810 C.3   155  GLN155      0.1566
     50  C         16.3630   80.1820   30.5890 C.2   155  GLN155      0.2260
     51  O         15.6520   79.4880   29.8730 O.2   155  GLN155     -0.2867
     52  CB        18.4340   80.1480   29.2280 C.3   155  GLN155      0.0367
     53  CG        19.6800   80.8390   28.7120 C.3   155  GLN155      0.0905
     54  CD        20.5120   79.9220   27.8420 C.2   155  GLN155      0.2608
     55  OE1       20.2480   79.7750   26.6490 O.2   155  GLN155     -0.2717
     56  NE2       21.5080   79.2790   28.4410 N.am  155  GLN155     -0.0878
     57  N         22.1350   61.6970   30.9240 N.3   171  ASP171     -0.1225
     58  CA        21.2850   62.7830   30.4560 C.3   171  ASP171      0.1805
     59  C         20.4050   62.3240   29.2900 C.2   171  ASP171      0.2598
     60  O         20.6020   61.2330   28.7330 O.2   171  ASP171     -0.2718
     61  CB        22.1890   63.9340   29.9980 C.3   171  ASP171      0.1424
     62  CG        21.4460   65.2460   29.8030 C.2   171  ASP171      0.3668
     63  OD1       22.1050   66.2230   29.3920 O.co2 171  ASP171     -0.2456
     64  OD2       20.2300   65.3130   30.0600 O.co2 171  ASP171     -0.2456
     65  N         19.4190   63.1500   28.9450 N.am  172  SER172     -0.1938
     66  CA        18.5500   62.8750   27.8110 C.3   172  SER172      0.2055
     67  C         19.3050   63.5370   26.6600 C.2   172  SER172      0.2643
     68  O         20.2240   64.3190   26.8930 O.2   172  SER172     -0.2714
     69  CB        17.1700   63.5180   28.0040 C.3   172  SER172      0.2130
     70  OG        17.2730   64.9180   28.2090 O.3   172  SER172     -0.2179
     71  N         18.9320   63.2380   25.4250 N.am  173  CYS173     -0.1953
     72  CA        19.6430   63.8160   24.2920 C.3   173  CYS173      0.1843
     73  C         18.7020   63.9840   23.1010 C.2   173  CYS173      0.2625
     74  O         17.5300   63.6390   23.1910 O.2   173  CYS173     -0.2714
     75  CB        20.8200   62.8980   23.9330 C.3   173  CYS173      0.0997
     76  SG        22.0340   63.6010   22.7980 S.3   173  CYS173     -0.0797
     77  N         19.2140   64.5170   21.9930 N.am  174  GLN174     -0.1977
     78  CA        18.3840   64.7070   20.8010 C.3   174  GLN174      0.1601
     79  C         17.7560   63.3680   20.4150 C.2   174  GLN174      0.2287
     80  O         18.4330   62.3370   20.3920 O.2   174  GLN174     -0.2864
     81  CB        19.2250   65.2430   19.6440 C.3   174  GLN174      0.0394
     82  CG        20.1460   64.2140   19.0180 C.3   174  GLN174      0.0908
     83  CD        21.1210   64.8290   18.0320 C.2   174  GLN174      0.2608
     84  OE1       20.7710   65.7540   17.2920 O.2   174  GLN174     -0.2717
     85  NE2       22.3490   64.3090   18.0060 N.am  174  GLN174     -0.0878
     86  N         13.6220   64.2840   22.7630 N.3   177  SER177     -0.1217
     87  CA        12.7440   65.4510   22.7720 C.3   177  SER177      0.1889
     88  C         11.2710   65.0700   22.6830 C.2   177  SER177      0.2288
     89  O         10.8840   64.2420   21.8640 O.2   177  SER177     -0.2866
     90  CB        13.1010   66.3790   21.6080 C.3   177  SER177      0.2089
     91  OG        14.4550   66.7840   21.6810 O.3   177  SER177     -0.2183
     92  N         10.7510   66.2320   27.7280 N.3   191  VAL191     -0.1231
     93  CA        12.1240   66.4690   27.2870 C.3   191  VAL191      0.1692
     94  C         12.0970   67.6560   26.3270 C.2   191  VAL191      0.2593
     95  O         11.4380   67.6040   25.2940 O.2   191  VAL191     -0.2718
     96  CB        12.6940   65.2290   26.5540 C.3   191  VAL191      0.0266
     97  CG1       14.0930   65.5250   26.0330 C.3   191  VAL191      0.0020
     98  CG2       12.7060   64.0290   27.4960 C.3   191  VAL191      0.0020
     99  N         12.8170   68.7170   26.6720 N.am  192  SER192     -0.1938
    100  CA        12.8320   69.9210   25.8520 C.3   192  SER192      0.2055
    101  C         14.2030   70.2770   25.2670 C.2   192  SER192      0.2643
    102  O         14.4200   70.1500   24.0610 O.2   192  SER192     -0.2714
    103  CB        12.2830   71.0970   26.6710 C.3   192  SER192      0.2130
    104  OG        12.1630   72.2700   25.8880 O.3   192  SER192     -0.2179
    105  N         15.1280   70.7220   26.1120 N.am  193  TRP193     -0.1959
    106  CA        16.4470   71.0930   25.6120 C.3   193  TRP193      0.1771
    107  C         17.5720   70.9760   26.6260 C.2   193  TRP193      0.2620
    108  O         17.3760   70.5470   27.7540 O.2   193  TRP193     -0.2715
    109  CB        16.4260   72.5230   25.0680 C.3   193  TRP193      0.0590
    110  CG        16.1270   73.5620   26.1090 C.ar  193  TRP193      0.0006
    111  CD1       14.9090   73.8580   26.6450 C.ar  193  TRP193      0.0946
    112  CD2       17.0660   74.4400   26.7390 C.ar  193  TRP193      0.0152
    113  NE1       15.0260   74.8690   27.5670 N.ar  193  TRP193     -0.2442
    114  CE2       16.3420   75.2460   27.6450 C.ar  193  TRP193      0.0810
    115  CE3       18.4510   74.6260   26.6250 C.ar  193  TRP193      0.0012
    116  CZ2       16.9550   76.2250   28.4350 C.ar  193  TRP193      0.0191
    117  CZ3       19.0670   75.6040   27.4140 C.ar  193  TRP193      0.0001
    118  CH2       18.3160   76.3890   28.3060 C.ar  193  TRP193      0.0015
    119  N         18.7610   71.3720   26.1890 N.am  194  GLY194     -0.1940
    120  CA        19.9330   71.3290   27.0390 C.3   194  GLY194      0.2014
    121  C         21.1620   71.6770   26.2250 C.2   194  GLY194      0.2640
    122  O         21.1490   71.5940   25.0000 O.2   194  GLY194     -0.2714
    123  N         22.2270   72.0780   26.9090 N.am  195  SER195     -0.1935
    124  CA        23.4660   72.4220   26.2330 C.3   195  SER195      0.2055
    125  C         24.2370   71.1280   26.0370 C.2   195  SER195      0.2644
    126  O         24.9410   70.6720   26.9330 O.2   195  SER195     -0.2714
    127  CB        24.2760   73.4020   27.0810 C.3   195  SER195      0.2130
    128  OG        25.3450   73.9430   26.3300 O.3   195  SER195     -0.2179
    129  N         24.0920   70.5300   24.8610 N.am  196  GLY196     -0.1939
    130  CA        24.7670   69.2740   24.6010 C.3   196  GLY196      0.2014
    131  C         24.0890   68.1870   25.4140 C.2   196  GLY196      0.2639
    132  O         22.9370   68.3350   25.7970 O.2   196  GLY196     -0.2714
    133  N         24.7960   67.0970   25.6860 N.am  197  CYS197     -0.1967
    134  CA        24.2090   66.0080   26.4590 C.3   197  CYS197      0.1712
    135  C         25.2350   65.3580   27.3820 C.2   197  CYS197      0.2296
    136  O         26.3710   65.1390   26.9950 O.2   197  CYS197     -0.2864
    137  CB        23.6200   64.9640   25.5080 C.3   197  CYS197      0.0983
    138  SG        22.5540   65.6670   24.2140 S.3   197  CYS197     -0.0798
    139  N         25.7860   70.9760   32.9380 N.3   202  LYS202     -0.1231
    140  CA        24.8110   71.3010   31.9050 C.3   202  LYS202      0.1678
    141  C         23.7320   70.2270   31.9190 C.2   202  LYS202      0.2434
    142  O         23.6700   69.3900   31.0310 O.2   202  LYS202     -0.2733
    143  CB        25.4790   71.3530   30.5210 C.3   202  LYS202      0.0284
    144  CG        26.4820   72.4850   30.3520 C.3   202  LYS202      0.0035
    145  CD        25.8150   73.8330   30.5890 C.3   202  LYS202      0.0206
    146  CE        26.8280   74.9710   30.6150 C.3   202  LYS202      0.1093
    147  NZ        26.1810   76.2760   30.9400 N.3   202  LYS202     -0.1314
    148  N         22.8730   70.2320   32.9500 N.am  203  PRO203     -0.2718
    149  CA        21.8100   69.2280   33.0300 C.3   203  PRO203      0.1535
    150  C         20.7070   69.5180   32.0170 C.2   203  PRO203      0.2599
    151  O         20.6660   70.6040   31.4190 O.2   203  PRO203     -0.2715
    152  CB        21.3280   69.3670   34.4680 C.3   203  PRO203      0.0310
    153  CG        21.4450   70.8490   34.6890 C.3   203  PRO203      0.0237
    154  CD        22.8090   71.1580   34.0970 C.3   203  PRO203      0.0939
    155  N         19.8160   68.5500   31.8280 N.am  204  GLY204     -0.1941
    156  CA        18.7240   68.7340   30.8910 C.3   204  GLY204      0.2014
    157  C         17.6450   69.6660   31.4150 C.2   204  GLY204      0.2639
    158  O         17.3990   69.7280   32.6070 O.2   204  GLY204     -0.2714
    159  N         17.0120   70.4040   30.5060 N.am  205  VAL205     -0.1963
    160  CA        15.9380   71.3220   30.8680 C.3   205  VAL205      0.1727
    161  C         14.6280   70.6940   30.3850 C.2   205  VAL205      0.2616
    162  O         14.5540   70.1620   29.2770 O.2   205  VAL205     -0.2715
    163  CB        16.1520   72.7070   30.2270 C.3   205  VAL205      0.0290
    164  CG1       15.1120   73.6990   30.7630 C.3   205  VAL205      0.0023
    165  CG2       17.5700   73.2000   30.5350 C.3   205  VAL205      0.0023
    166  N         13.5960   70.7550   31.2170 N.am  206  TYR206     -0.1974
    167  CA        12.3320   70.1230   30.8680 C.3   206  TYR206      0.1639
    168  C         11.1050   71.0170   31.0210 C.2   206  TYR206      0.2290
    169  O         11.0640   71.9070   31.8610 O.2   206  TYR206     -0.2864
    170  CB        12.1670   68.8540   31.7190 C.3   206  TYR206      0.0560
    171  CG        13.2960   67.8570   31.5330 C.ar  206  TYR206     -0.0198
    172  CD1       13.2520   66.9000   30.5160 C.ar  206  TYR206     -0.0009
    173  CD2       14.4360   67.9060   32.3420 C.ar  206  TYR206     -0.0009
    174  CE1       14.3210   66.0140   30.3090 C.ar  206  TYR206      0.0417
    175  CE2       15.5110   67.0290   32.1440 C.ar  206  TYR206      0.0417
    176  CZ        15.4460   66.0870   31.1270 C.ar  206  TYR206      0.1957
    177  OH        16.4910   65.2140   30.9310 O.3   206  TYR206     -0.2866
@<TRIPOS>BOND
     1     4     3    2
     2    16    15    1
     3    84    83    2
     4    23    22    2
     5    15    12    1
     6     3     2    1
     7    85    83   am
     8    83    82    1
     9    24    22   am
    10    22    21    1
    11     2     5    1
    12     2     1    1
    13    82    81    1
    14    12    13    1
    15    12    11    1
    16     5     6    1
    17    14    13    2
    18    47    45   am
    19    13    17   am
    20    81    78    1
    21     8     6   ar
    22     8    10   ar
    23    21    18    1
    24    17    18    1
    25     6     7   ar
    26    45    46    2
    27    45    44    1
    28    18    19    1
    29    80    79    2
    30    79    78    1
    31    44    41    1
    32    78    77    1
    33    10     9   ar
    34    41    40    1
    35    41    42    1
    36     7     9   ar
    37    90    91    1
    38    90    87    1
    39    19    20    2
    40    19    25   am
    41    89    88    2
    42    77    73   am
    43    42    43    2
    44    39    37    1
    45    38    37    1
    46    25    26    1
    47    88    87    1
    48    86    87    1
    49    76    75    1
    50    73    74    2
    51    73    72    1
    52    37    36    1
    53    32    33    1
    54    32    27   am
    55    75    72    1
    56    33    36    1
    57    33    34    1
    58    26    27    1
    59    26    29    1
    60   102   101    2
    61   138   137    1
    62    72    71    1
    63    31    29    1
    64    27    28    2
    65   130   129    1
    66   130   131    1
    67    30    29    1
    68   129   125   am
    69   122   121    2
    70   109   106    1
    71   109   110    1
    72    34    35    2
    73   101   100    1
    74   101   105   am
    75    95    94    2
    76   131   133   am
    77   131   132    2
    78    71    67   am
    79   137   134    1
    80   106   105    1
    81   106   107    1
    82   133   134    1
    83   100   103    1
    84   100    99    1
    85   104   103    1
    86    97    96    1
    87   125   124    1
    88   125   126    2
    89   110   111   ar
    90   110   112   ar
    91   119   107   am
    92   119   120    1
    93   121   123   am
    94   121   120    1
    95   124   123    1
    96   124   127    1
    97    94    99   am
    98    94    93    1
    99   128   127    1
   100   134   135    1
   101    96    93    1
   102    96    98    1
   103   115   112   ar
   104   115   117   ar
   105   107   108    2
   106   111   113   ar
   107    55    54    2
   108    67    68    2
   109    67    66    1
   110   112   114   ar
   111   136   135    2
   112    93    92    1
   113   117   118   ar
   114   113   114   ar
   115   114   116   ar
   116    66    69    1
   117    66    65    1
   118    54    56   am
   119    54    53    1
   120    69    70    1
   121   118   116   ar
   122    53    52    1
   123    60    59    2
   124    65    59   am
   125    52    49    1
   126   162   161    2
   127    59    58    1
   128    63    62   ar
   129    62    61    1
   130    62    64   ar
   131    51    50    2
   132    49    50    1
   133    49    48    1
   134    61    58    1
   135   163   165    1
   136   163   164    1
   137   163   160    1
   138   174   172   ar
   139   174   176   ar
   140   144   143    1
   141   144   145    1
   142   161   160    1
   143   161   166   am
   144    58    57    1
   145   159   160    1
   146   159   157   am
   147   172   171   ar
   148   143   140    1
   149   145   146    1
   150   146   147    1
   151   167   168    1
   152   167   166    1
   153   167   170    1
   154   156   157    1
   155   156   155    1
   156   177   176    1
   157   168   169    2
   158   142   141    2
   159   176   175   ar
   160   157   158    2
   161   151   150    2
   162   171   170    1
   163   171   173   ar
   164   155   150   am
   165   140   141    1
   166   140   139    1
   167   141   148   am
   168   150   149    1
   169   175   173   ar
   170   148   149    1
   171   148   154    1
   172   149   152    1
   173   154   153    1
   174   152   153    1
