@<TRIPOS>MOLECULE
tmp/3m36A00.pdb
 205 202 0 0 0
SMALL
GASTEIGER

@<TRIPOS>ATOM
      1  N         13.4680   24.9790   24.6470 N.3    42  HIS42      -0.1241
      2  CA        12.0090   24.9330   24.6100 C.3    42  HIS42       0.1621
      3  C         11.4390   23.5980   24.1520 C.2    42  HIS42       0.2264
      4  O         10.2420   23.3650   24.2700 O.2    42  HIS42      -0.2867
      5  CB        11.4290   26.0710   23.7510 C.3    42  HIS42       0.0745
      6  CG        11.4160   25.7950   22.2790 C.ar   42  HIS42       0.0817
      7  ND1       12.4800   26.0900   21.4550 N.ar   42  HIS42      -0.2268
      8  CD2       10.4500   25.2870   21.4780 C.ar   42  HIS42       0.1154
      9  CE1       12.1690   25.7800   20.2080 C.ar   42  HIS42       0.1986
     10  NE2       10.9420   25.2910   20.1960 N.ar   42  HIS42      -0.2212
     11  N         10.1210   31.2470   28.1180 N.3    82  LYS82      -0.1231
     12  CA         9.1510   31.2800   27.0300 C.3    82  LYS82       0.1693
     13  C          8.8100   32.7370   26.7260 C.2    82  LYS82       0.2592
     14  O          8.3460   33.0670   25.6280 O.2    82  LYS82      -0.2718
     15  CB         7.8710   30.5430   27.4410 C.3    82  LYS82       0.0285
     16  CG         8.1040   29.2010   28.1240 C.3    82  LYS82       0.0035
     17  CD         6.8160   28.6470   28.7260 C.3    82  LYS82       0.0206
     18  CE         7.0600   27.3130   29.4260 C.3    82  LYS82       0.1093
     19  NZ         5.8110   26.7400   30.0110 N.3    82  LYS82      -0.1314
     20  N          9.0410   33.6060   27.7080 N.am   83  GLU83      -0.1966
     21  CA         8.7380   35.0240   27.5590 C.3    83  GLU83       0.1733
     22  C          9.6400   35.7560   26.5770 C.2    83  GLU83       0.2617
     23  O          9.2520   36.7750   26.0360 O.2    83  GLU83      -0.2715
     24  CB         8.7860   35.7370   28.9210 C.3    83  GLU83       0.0429
     25  CG         7.6160   35.4170   29.8480 C.3    83  GLU83       0.1163
     26  CD         7.7090   34.0380   30.4700 C.2    83  GLU83       0.3649
     27  OE1        6.7100   33.5820   31.0680 O.co2  83  GLU83      -0.2457
     28  OE2        8.7830   33.4090   30.3710 O.co2  83  GLU83      -0.2457
     29  N         10.8400   35.2360   26.3450 N.am   84  THR84      -0.1937
     30  CA        11.7630   35.8910   25.4220 C.3    84  THR84       0.2028
     31  C         12.3590   34.9370   24.3930 C.2    84  THR84       0.2642
     32  O         12.7930   35.3600   23.3200 O.2    84  THR84      -0.2714
     33  CB        12.9400   36.5420   26.1850 C.3    84  THR84       0.1808
     34  OG1       13.6130   35.5360   26.9540 O.3    84  THR84      -0.2208
     35  CG2       12.4410   37.6550   27.1190 C.3    84  THR84       0.0379
     36  N         12.3650   33.6520   24.7330 N.am   85  TYR85      -0.1973
     37  CA        12.9410   32.6130   23.8860 C.3    85  TYR85       0.1639
     38  C         14.4390   32.8340   23.7230 C.2    85  TYR85       0.2290
     39  O         15.0590   32.3180   22.7990 O.2    85  TYR85      -0.2864
     40  CB        12.2550   32.5570   22.5180 C.3    85  TYR85       0.0560
     41  CG        11.2090   31.4700   22.4310 C.ar   85  TYR85      -0.0198
     42  CD1       10.0700   31.5070   23.2330 C.ar   85  TYR85      -0.0009
     43  CD2       11.3670   30.3880   21.5660 C.ar   85  TYR85      -0.0009
     44  CE1        9.1100   30.4890   23.1800 C.ar   85  TYR85       0.0417
     45  CE2       10.4120   29.3630   21.5040 C.ar   85  TYR85       0.0417
     46  CZ         9.2880   29.4220   22.3170 C.ar   85  TYR85       0.1957
     47  OH         8.3430   28.4210   22.2800 O.3    85  TYR85      -0.2866
     48  N          7.0650   20.3540   10.0540 N.3   132  ARG132     -0.1245
     49  CA         5.9660   20.6170    9.1270 C.3   132  ARG132      0.1563
     50  C          6.4810   21.1820    7.8150 C.2   132  ARG132      0.2260
     51  O          7.4420   21.9380    7.7940 O.2   132  ARG132     -0.2867
     52  CB         4.9810   21.6270    9.7210 C.3   132  ARG132      0.0307
     53  CG         4.3590   21.2160   11.0350 C.3   132  ARG132      0.0489
     54  CD         3.4240   22.2990   11.5620 C.3   132  ARG132      0.2205
     55  NE         2.8730   21.9390   12.8690 N.pl3 132  ARG132     -0.0865
     56  CZ         2.0330   22.6990   13.5650 C.cat 132  ARG132      0.5346
     57  NH1        1.6350   23.8690   13.0840 N.pl3 132  ARG132      0.1354
     58  NH2        1.5980   22.2910   14.7500 N.pl3 132  ARG132      0.1354
     59  N          2.9090   25.7910    7.4060 N.3   135  GLU135     -0.1245
     60  CA         2.5000   26.2090    8.7470 C.3   135  GLU135      0.1567
     61  C          1.4070   25.2900    9.2650 C.2   135  GLU135      0.2260
     62  O          1.4130   24.8960   10.4290 O.2   135  GLU135     -0.2867
     63  CB         1.9840   27.6470    8.7530 C.3   135  GLU135      0.0388
     64  CG         3.0450   28.7020    8.5400 C.3   135  GLU135      0.1160
     65  CD         2.5800   30.0740    8.9870 C.2   135  GLU135      0.3649
     66  OE1        3.2740   31.0670    8.6840 O.co2 135  GLU135     -0.2457
     67  OE2        1.5220   30.1580    9.6490 O.co2 135  GLU135     -0.2457
     68  N          9.2960   40.6850   17.4850 N.3   162  PHE162     -0.1227
     69  CA         9.8820   40.3700   18.7820 C.3   162  PHE162      0.1736
     70  C         11.3500   40.7630   18.8160 C.2   162  PHE162      0.2595
     71  O         11.9980   40.8570   17.7830 O.2   162  PHE162     -0.2718
     72  CB         9.7300   38.8770   19.0560 C.3   162  PHE162      0.0547
     73  CG         8.3060   38.4100   19.0490 C.ar  162  PHE162     -0.0202
     74  CD1        7.5040   38.5710   20.1750 C.ar  162  PHE162     -0.0042
     75  CD2        7.7500   37.8490   17.9030 C.ar  162  PHE162     -0.0042
     76  CE1        6.1610   38.1790   20.1610 C.ar  162  PHE162     -0.0003
     77  CE2        6.4080   37.4540   17.8770 C.ar  162  PHE162     -0.0003
     78  CZ         5.6150   37.6200   19.0080 C.ar  162  PHE162     -0.0000
     79  N         11.8740   40.9880   20.0140 N.am  163  ILE163     -0.1980
     80  CA        13.2660   41.3820   20.1570 C.3   163  ILE163      0.1595
     81  C         14.2430   40.2590   19.8310 C.2   163  ILE163      0.2287
     82  O         14.1540   39.1610   20.3770 O.2   163  ILE163     -0.2864
     83  CB        13.5640   41.8870   21.5840 C.3   163  ILE163      0.0276
     84  CG1       15.0650   42.1370   21.7390 C.3   163  ILE163      0.0022
     85  CG2       13.0790   40.8750   22.6040 C.3   163  ILE163      0.0022
     86  CD1       15.6000   43.1970   20.8020 C.3   163  ILE163      0.0001
     87  N         11.6080   27.8000    4.4060 N.3   179  ASP179     -0.1225
     88  CA        11.9630   28.1860    5.7680 C.3   179  ASP179      0.1805
     89  C         11.8940   26.9590    6.6590 C.2   179  ASP179      0.2598
     90  O         11.4880   25.8970    6.2160 O.2   179  ASP179     -0.2718
     91  CB        10.9700   29.2480    6.2570 C.3   179  ASP179      0.1424
     92  CG        11.4190   29.9470    7.5270 C.2   179  ASP179      0.3668
     93  OD1       12.5590   29.7080    7.9840 O.co2 179  ASP179     -0.2456
     94  OD2       10.6220   30.7510    8.0630 O.co2 179  ASP179     -0.2456
     95  N         12.3270   27.0970    7.9070 N.am  180  ALA180     -0.1966
     96  CA        12.2420   25.9880    8.8430 C.3   180  ALA180      0.1728
     97  C         10.8320   26.1300    9.3880 C.2   180  ALA180      0.2616
     98  O         10.1850   27.1420    9.1580 O.2   180  ALA180     -0.2715
     99  CB        13.2580   26.1480    9.9580 C.3   180  ALA180      0.0334
    100  N         10.3430   25.1250   10.0980 N.am  181  CYS181     -0.1954
    101  CA         9.0040   25.2230   10.6490 C.3   181  CYS181      0.1843
    102  C          8.8570   24.3730   11.9020 C.2   181  CYS181      0.2625
    103  O          9.7830   23.6630   12.3030 O.2   181  CYS181     -0.2714
    104  CB         7.9750   24.8000    9.6000 C.3   181  CYS181      0.0997
    105  SG         6.2770   25.3420    9.9410 S.3   181  CYS181     -0.0797
    106  N          7.6830   24.4630   12.5160 N.am  182  GLN182     -0.1977
    107  CA         7.3660   23.7240   13.7300 C.3   182  GLN182      0.1601
    108  C          7.8000   22.2660   13.5930 C.2   182  GLN182      0.2287
    109  O          7.4380   21.5880   12.6260 O.2   182  GLN182     -0.2864
    110  CB         5.8580   23.8060   13.9870 C.3   182  GLN182      0.0394
    111  CG         5.3910   23.2640   15.3240 C.3   182  GLN182      0.0908
    112  CD         5.9770   24.0270   16.4900 C.2   182  GLN182      0.2608
    113  OE1        5.8790   25.2500   16.5580 O.2   182  GLN182     -0.2717
    114  NE2        6.5930   23.3040   17.4190 N.am  182  GLN182     -0.0878
    115  N         12.5400   22.5780   15.2540 N.3   185  SER185     -0.1217
    116  CA        13.1470   23.1910   16.4320 C.3   185  SER185      0.1889
    117  C         14.1600   22.2700   17.0990 C.2   185  SER185      0.2288
    118  O         13.9280   21.0600   17.2250 O.2   185  SER185     -0.2866
    119  CB        12.0690   23.5650   17.4560 C.3   185  SER185      0.2089
    120  OG        11.1700   24.5160   16.9290 O.3   185  SER185     -0.2183
    121  N         17.7310   25.4750   15.3860 N.3   203  VAL203     -0.1231
    122  CA        16.4210   25.9850   14.9880 C.3   203  VAL203      0.1692
    123  C         15.7230   26.4100   16.2800 C.2   203  VAL203      0.2593
    124  O         15.5320   25.6000   17.1770 O.2   203  VAL203     -0.2718
    125  CB        15.5620   24.9000   14.2870 C.3   203  VAL203      0.0266
    126  CG1       14.1970   25.4900   13.8960 C.3   203  VAL203      0.0020
    127  CG2       16.2790   24.3700   13.0540 C.3   203  VAL203      0.0020
    128  N         15.3520   27.6850   16.3690 N.am  204  SER204     -0.1938
    129  CA        14.7090   28.1970   17.5700 C.3   204  SER204      0.2055
    130  C         13.2440   28.5860   17.3900 C.2   204  SER204      0.2643
    131  O         12.3590   27.9810   17.9830 O.2   204  SER204     -0.2714
    132  CB        15.5020   29.3960   18.1020 C.3   204  SER204      0.2130
    133  OG        14.9700   29.8510   19.3320 O.3   204  SER204     -0.2179
    134  N         12.9930   29.6110   16.5870 N.am  205  TRP205     -0.1959
    135  CA        11.6270   30.0550   16.3550 C.3   205  TRP205      0.1771
    136  C         11.4940   30.9450   15.1320 C.2   205  TRP205      0.2620
    137  O         12.4400   31.1550   14.3950 O.2   205  TRP205     -0.2715
    138  CB        11.0840   30.8200   17.5710 C.3   205  TRP205      0.0590
    139  CG        11.8840   32.0490   17.9260 C.ar  205  TRP205      0.0006
    140  CD1       13.0160   32.1000   18.6830 C.ar  205  TRP205      0.0946
    141  CD2       11.6230   33.3980   17.5060 C.ar  205  TRP205      0.0152
    142  NE1       13.4820   33.3950   18.7610 N.ar  205  TRP205     -0.2442
    143  CE2       12.6450   34.2100   18.0470 C.ar  205  TRP205      0.0810
    144  CE3       10.6240   34.0000   16.7240 C.ar  205  TRP205      0.0012
    145  CZ2       12.6990   35.5940   17.8300 C.ar  205  TRP205      0.0191
    146  CZ3       10.6790   35.3810   16.5070 C.ar  205  TRP205      0.0001
    147  CH2       11.7100   36.1580   17.0600 C.ar  205  TRP205      0.0015
    148  N         10.2830   31.4600   14.9490 N.am  206  GLY206     -0.1940
    149  CA         9.9790   32.3460   13.8470 C.3   206  GLY206      0.2014
    150  C          8.4980   32.6580   13.9050 C.2   206  GLY206      0.2639
    151  O          7.7330   31.9240   14.5390 O.2   206  GLY206     -0.2714
    152  N          8.0930   33.7590   13.2820 N.am  207  GLU207     -0.1963
    153  CA         6.6820   34.1270   13.2450 C.3   207  GLU207      0.1733
    154  C          6.1020   33.3500   12.0660 C.2   207  GLU207      0.2617
    155  O          6.2500   33.7380   10.9100 O.2   207  GLU207     -0.2715
    156  CB         6.5340   35.6380   13.0450 C.3   207  GLU207      0.0429
    157  CG         6.8930   36.4420   14.2910 C.3   207  GLU207      0.1163
    158  CD         7.0650   37.9220   14.0160 C.2   207  GLU207      0.3649
    159  OE1        8.2280   38.3840   13.9470 O.co2 207  GLU207     -0.2457
    160  OE2        6.0390   38.6260   13.8620 O.co2 207  GLU207     -0.2457
    161  N          5.4580   32.2290   12.3670 N.am  208  GLY208     -0.1940
    162  CA         4.9160   31.4090   11.3040 C.3   208  GLY208      0.2014
    163  C          6.0930   30.8330   10.5420 C.2   208  GLY208      0.2639
    164  O          7.1980   30.7370   11.0890 O.2   208  GLY208     -0.2714
    165  N          5.8790   30.4520    9.2880 N.am  209  CYS209     -0.1967
    166  CA         6.9560   29.8910    8.4800 C.3   209  CYS209      0.1712
    167  C          6.8520   30.3160    7.0230 C.2   209  CYS209      0.2296
    168  O          5.7810   30.2690    6.4310 O.2   209  CYS209     -0.2864
    169  CB         6.9310   28.3690    8.5710 C.3   209  CYS209      0.0983
    170  SG         6.6990   27.7910   10.2620 S.3   209  CYS209     -0.0798
    171  N          6.8230   33.1360    5.8110 N.3   211  ARG211     -0.1245
    172  CA         5.9690   34.3040    5.6330 C.3   211  ARG211      0.1563
    173  C          6.7860   35.4230    5.0020 C.2   211  ARG211      0.2260
    174  O          7.9830   35.5570    5.2680 O.2   211  ARG211     -0.2867
    175  CB         5.4060   34.7820    6.9720 C.3   211  ARG211      0.0307
    176  CG         4.3980   33.8480    7.5950 C.3   211  ARG211      0.0489
    177  CD         3.8200   34.4500    8.8690 C.3   211  ARG211      0.2205
    178  NE         2.8820   33.5430    9.5310 N.pl3 211  ARG211     -0.0865
    179  CZ         2.3360   33.7680   10.7220 C.cat 211  ARG211      0.5346
    180  NH1        2.6290   34.8770   11.3930 N.pl3 211  ARG211      0.1354
    181  NH2        1.5020   32.8790   11.2460 N.pl3 211  ARG211      0.1354
    182  N         11.7890   36.0550    8.7630 N.3   215  TYR215     -0.1227
    183  CA        12.8870   35.1100    8.6330 C.3   215  TYR215      0.1736
    184  C         12.8540   34.0730    9.7550 C.2   215  TYR215      0.2596
    185  O         12.1230   34.2270   10.7200 O.2   215  TYR215     -0.2718
    186  CB        14.2170   35.8630    8.6790 C.3   215  TYR215      0.0548
    187  CG        14.3150   37.0020    7.6930 C.ar  215  TYR215     -0.0200
    188  CD1       14.6370   36.7710    6.3610 C.ar  215  TYR215     -0.0009
    189  CD2       14.1080   38.3200    8.1010 C.ar  215  TYR215     -0.0009
    190  CE1       14.7610   37.8250    5.4560 C.ar  215  TYR215      0.0417
    191  CE2       14.2260   39.3830    7.2060 C.ar  215  TYR215      0.0417
    192  CZ        14.5570   39.1290    5.8860 C.ar  215  TYR215      0.1957
    193  OH        14.7080   40.1690    4.9970 O.3   215  TYR215     -0.2866
    194  N         13.6430   33.0100    9.6000 N.am  216  GLY216     -0.1942
    195  CA        13.7170   31.9810   10.6250 C.3   216  GLY216      0.2014
    196  C         14.7080   32.4500   11.6800 C.2   216  GLY216      0.2638
    197  O         15.7200   33.0570   11.3470 O.2   216  GLY216     -0.2714
    198  N         14.4210   32.1850   12.9490 N.am  217  ILE217     -0.1977
    199  CA        15.3110   32.6110   14.0270 C.3   217  ILE217      0.1596
    200  C         16.0320   31.4150   14.6400 C.2   217  ILE217      0.2287
    201  O         15.4060   30.4390   15.0510 O.2   217  ILE217     -0.2864
    202  CB        14.5350   33.3320   15.1500 C.3   217  ILE217      0.0276
    203  CG1       13.5380   34.3310   14.5470 C.3   217  ILE217      0.0022
    204  CG2       15.5140   34.0430   16.0760 C.3   217  ILE217      0.0022
    205  CD1       14.1700   35.3990   13.6800 C.3   217  ILE217      0.0001
@<TRIPOS>BOND
     1    87    88    1
     2   193   192    1
     3   173   174    2
     4   173   172    1
     5   190   192   ar
     6   190   188   ar
     7   172   171    1
     8   172   175    1
     9    88    91    1
    10    88    89    1
    11   192   191   ar
    12    90    89    2
    13    91    92    1
    14   188   187   ar
    15   168   167    2
    16    89    95   am
    17   175   176    1
    18   167   166    1
    19   191   189   ar
    20    59    60    1
    21    92    93   ar
    22    92    94   ar
    23   176   177    1
    24   187   189   ar
    25   187   186    1
    26    51    50    2
    27    50    49    1
    28    95    96    1
    29   166   169    1
    30   166   165    1
    31    64    63    1
    32    64    65    1
    33   169   170    1
    34   183   186    1
    35   183   182    1
    36   183   184    1
    37    66    65   ar
    38    60    63    1
    39    60    61    1
    40    96    97    1
    41    96    99    1
    42   177   178    1
    43    65    67   ar
    44    49    52    1
    45    49    48    1
    46    98    97    2
    47    61    62    2
    48   165   163   am
    49    97   100   am
    50   178   179    2
    51   194   184   am
    52   194   195    1
    53   104   105    1
    54   104   101    1
    55    52    53    1
    56   184   185    2
    57   105   170    1
    58   100   101    1
    59   163   164    2
    60   163   162    1
    61   195   196    1
    62   101   102    1
    63   179   181    1
    64   179   180    1
    65   155   154    2
    66    53    54    1
    67   162   161    1
    68   197   196    2
    69    54    55    1
    70   196   198   am
    71   102   103    2
    72   102   106   am
    73   154   161   am
    74   154   153    1
    75   106   107    1
    76   109   108    2
    77    55    56    2
    78   198   199    1
    79   156   153    1
    80   156   157    1
    81   127   125    1
    82    57    56    1
    83   153   152    1
    84   152   150   am
    85    56    58    1
    86   108   107    1
    87   205   203    1
    88   107   110    1
    89   149   150    1
    90   149   148    1
    91   160   158   ar
    92   126   125    1
    93   150   151    2
    94   159   158   ar
    95   110   111    1
    96   158   157    1
    97   199   200    1
    98   199   202    1
    99   125   122    1
   100   137   136    2
   101   203   202    1
   102   200   201    2
   103   148   136   am
   104   122   121    1
   105   122   123    1
   106   136   135    1
   107   202   204    1
   108   115   116    1
   109   111   112    1
   110   123   128   am
   111   123   124    2
   112   135   134    1
   113   135   138    1
   114   128   129    1
   115   116   117    1
   116   116   119    1
   117   112   113    2
   118   112   114   am
   119   146   144   ar
   120   146   147   ar
   121   134   130   am
   122   144   141   ar
   123   120   119    1
   124   147   145   ar
   125   117   118    2
   126   130   129    1
   127   130   131    2
   128    68    69    1
   129   141   139   ar
   130   141   143   ar
   131   129   132    1
   132   138   139    1
   133    71    70    2
   134   145   143   ar
   135    77    75   ar
   136    77    78   ar
   137    75    73   ar
   138   139   140   ar
   139   143   142   ar
   140   132   133    1
   141   140   142   ar
   142    69    70    1
   143    69    72    1
   144    70    79   am
   145    78    76   ar
   146    73    72    1
   147    73    74   ar
   148    81    80    1
   149    81    82    2
   150    79    80    1
   151    80    83    1
   152    76    74   ar
   153    10     9   ar
   154    10     8   ar
   155     9     7   ar
   156    86    84    1
   157     7     6   ar
   158     8     6   ar
   159    45    43   ar
   160    45    46   ar
   161    43    41   ar
   162    83    84    1
   163    83    85    1
   164     6     5    1
   165    47    46    1
   166    46    44   ar
   167    41    40    1
   168    41    42   ar
   169    40    37    1
   170    39    38    2
   171    44    42   ar
   172    32    31    2
   173    38    37    1
   174     5     2    1
   175    37    36    1
   176     3     4    2
   177     3     2    1
   178    31    36   am
   179    31    30    1
   180     2     1    1
   181    30    33    1
   182    30    29    1
   183    14    13    2
   184    23    22    2
   185    33    34    1
   186    33    35    1
   187    29    22   am
   188    22    21    1
   189    13    12    1
   190    13    20   am
   191    12    15    1
   192    12    11    1
   193    15    16    1
   194    21    20    1
   195    21    24    1
   196    16    17    1
   197    17    18    1
   198    24    25    1
   199    18    19    1
   200    25    26    1
   201    28    26   ar
   202    26    27   ar
