@<TRIPOS>MOLECULE
tmp/3m37A00.pdb
 185 180 0 0 0
SMALL
GASTEIGER

@<TRIPOS>ATOM
      1  N         13.6310   47.3250   54.1800 N.3    42  HIS42      -0.1241
      2  CA        12.1690   47.3090   54.2340 C.3    42  HIS42       0.1621
      3  C         11.5380   48.6280   54.6560 C.2    42  HIS42       0.2264
      4  O         10.3310   48.8080   54.5220 O.2    42  HIS42      -0.2867
      5  CB        11.6530   46.1630   55.1240 C.3    42  HIS42       0.0745
      6  CG        11.5800   46.4900   56.5870 C.ar   42  HIS42       0.0817
      7  ND1       12.5790   46.1590   57.4760 N.ar   42  HIS42      -0.2268
      8  CD2       10.6030   47.0740   57.3240 C.ar   42  HIS42       0.1154
      9  CE1       12.2220   46.5180   58.6960 C.ar   42  HIS42       0.1986
     10  NE2       11.0260   47.0770   58.6320 N.ar   42  HIS42      -0.2212
     11  N         10.1530   41.0430   50.7890 N.3    82  LYS82      -0.1231
     12  CA         9.2710   40.9530   51.9420 C.3    82  LYS82       0.1693
     13  C          8.8560   39.5110   52.2030 C.2    82  LYS82       0.2592
     14  O          8.2990   39.1970   53.2460 O.2    82  LYS82      -0.2718
     15  CB         8.0280   41.8180   51.7180 C.3    82  LYS82       0.0285
     16  CG         8.3270   43.3080   51.5870 C.3    82  LYS82       0.0035
     17  CD         7.0600   44.1230   51.3550 C.3    82  LYS82       0.0206
     18  CE         6.4780   43.8880   49.9640 C.3    82  LYS82       0.1093
     19  NZ         7.3650   44.4140   48.8880 N.3    82  LYS82      -0.1314
     20  N          9.1440   38.6360   51.2460 N.am   83  GLU83      -0.1966
     21  CA         8.7840   37.2300   51.3690 C.3    83  GLU83       0.1733
     22  C          9.6970   36.5090   52.3560 C.2    83  GLU83       0.2617
     23  O          9.2920   35.5540   53.0020 O.2    83  GLU83      -0.2715
     24  CB         8.8640   36.5480   49.9980 C.3    83  GLU83       0.0429
     25  CG         8.4410   37.4350   48.8320 C.3    83  GLU83       0.1163
     26  CD         7.0260   37.9650   48.9630 C.2    83  GLU83       0.3649
     27  OE1        6.6190   38.7900   48.1150 O.co2  83  GLU83      -0.2457
     28  OE2        6.3160   37.5600   49.9080 O.co2  83  GLU83      -0.2457
     29  N         10.9280   36.9910   52.4740 N.am   84  THR84      -0.1937
     30  CA        11.9110   36.3820   53.3640 C.3    84  THR84       0.2028
     31  C         12.5100   37.3620   54.3660 C.2    84  THR84       0.2642
     32  O         12.9910   36.9580   55.4180 O.2    84  THR84      -0.2714
     33  CB        13.0820   35.8100   52.5590 C.3    84  THR84       0.1808
     34  OG1       13.7280   36.8830   51.8580 O.3    84  THR84      -0.2208
     35  CG2       12.5920   34.7700   51.5530 C.3    84  THR84       0.0379
     36  N         12.4770   38.6450   54.0170 N.am   85  TYR85      -0.1973
     37  CA        13.0510   39.7120   54.8340 C.3    85  TYR85       0.1639
     38  C         14.5650   39.5760   54.9040 C.2    85  TYR85       0.2290
     39  O         15.2220   40.2110   55.7200 O.2    85  TYR85      -0.2864
     40  CB        12.4550   39.7340   56.2440 C.3    85  TYR85       0.0560
     41  CG        11.3810   40.7860   56.4070 C.ar   85  TYR85      -0.0198
     42  CD1       10.1450   40.6550   55.7700 C.ar   85  TYR85      -0.0009
     43  CD2       11.6160   41.9410   57.1580 C.ar   85  TYR85      -0.0009
     44  CE1        9.1710   41.6450   55.8720 C.ar   85  TYR85       0.0417
     45  CE2       10.6460   42.9400   57.2670 C.ar   85  TYR85       0.0417
     46  CZ         9.4280   42.7840   56.6190 C.ar   85  TYR85       0.1957
     47  OH         8.4680   43.7670   56.7100 O.3    85  TYR85      -0.2866
     48  N          7.2250   51.8040   68.8990 N.3   132  ARG132     -0.1245
     49  CA         6.1290   51.5950   69.8450 C.3   132  ARG132      0.1563
     50  C          6.6580   51.0380   71.1620 C.2   132  ARG132      0.2260
     51  O          7.6420   50.3060   71.1840 O.2   132  ARG132     -0.2867
     52  CB         5.1060   50.6080   69.2740 C.3   132  ARG132      0.0307
     53  CG         4.3900   51.0830   68.0280 C.3   132  ARG132      0.0489
     54  CD         3.3880   50.0370   67.5420 C.3   132  ARG132      0.2205
     55  NE         2.8060   50.4090   66.2570 N.pl3 132  ARG132     -0.0865
     56  CZ         2.0580   49.6050   65.5080 C.cat 132  ARG132      0.5346
     57  NH1        1.7890   48.3700   65.9130 N.pl3 132  ARG132      0.1354
     58  NH2        1.5880   50.0340   64.3460 N.pl3 132  ARG132      0.1354
     59  N          2.9080   46.4950   71.8850 N.3   135  GLU135     -0.1245
     60  CA         2.5620   45.9540   70.5790 C.3   135  GLU135      0.1567
     61  C          1.5160   46.8220   69.8840 C.2   135  GLU135      0.2260
     62  O          1.5970   47.0470   68.6830 O.2   135  GLU135     -0.2867
     63  CB         2.0700   44.5120   70.7130 C.3   135  GLU135      0.0388
     64  CG         2.1790   43.7230   69.4250 C.3   135  GLU135      0.1160
     65  CD         2.0340   42.2260   69.6310 C.2   135  GLU135      0.3649
     66  OE1        1.1420   41.6300   68.9970 O.co2 135  GLU135     -0.2457
     67  OE2        2.8170   41.6480   70.4170 O.co2 135  GLU135     -0.2457
     68  N          9.6670   31.4630   60.9770 N.3   162  PHE162     -0.1227
     69  CA        10.2470   31.9590   59.7340 C.3   162  PHE162      0.1736
     70  C         11.7160   31.5550   59.6730 C.2   162  PHE162      0.2595
     71  O         12.3680   31.4000   60.7000 O.2   162  PHE162     -0.2718
     72  CB        10.1260   33.4840   59.6680 C.3   162  PHE162      0.0547
     73  CG         8.7120   33.9710   59.5590 C.ar  162  PHE162     -0.0202
     74  CD1        8.0490   33.9530   58.3380 C.ar  162  PHE162     -0.0042
     75  CD2        8.0330   34.4230   60.6830 C.ar  162  PHE162     -0.0042
     76  CE1        6.7220   34.3820   58.2370 C.ar  162  PHE162     -0.0003
     77  CE2        6.7090   34.8530   60.5970 C.ar  162  PHE162     -0.0003
     78  CZ         6.0530   34.8320   59.3710 C.ar  162  PHE162     -0.0000
     79  N         12.2340   31.3900   58.4640 N.am  163  ILE163     -0.1980
     80  CA        13.6260   30.9990   58.3000 C.3   163  ILE163      0.1595
     81  C         14.5950   32.1070   58.7020 C.2   163  ILE163      0.2287
     82  O         14.4810   33.2510   58.2530 O.2   163  ILE163     -0.2864
     83  CB        13.9220   30.5970   56.8430 C.3   163  ILE163      0.0276
     84  CG1       13.0790   29.3760   56.4640 C.3   163  ILE163      0.0022
     85  CG2       15.4060   30.2860   56.6770 C.3   163  ILE163      0.0022
     86  CD1       13.0670   29.0750   54.9840 C.3   163  ILE163      0.0001
     87  N         11.7650   44.3030   74.1580 N.3   179  ASP179     -0.1225
     88  CA        12.0890   43.9720   72.7760 C.3   179  ASP179      0.1805
     89  C         11.9420   45.2080   71.9020 C.2   179  ASP179      0.2598
     90  O         11.4440   46.2410   72.3530 O.2   179  ASP179     -0.2718
     91  CB        11.1370   42.8590   72.3020 C.3   179  ASP179      0.1424
     92  CG        11.4670   42.3320   70.9120 C.2   179  ASP179      0.3668
     93  OD1       12.6280   42.4660   70.4690 O.co2 179  ASP179     -0.2456
     94  OD2       10.5540   41.7570   70.2660 O.co2 179  ASP179     -0.2456
     95  N         12.4130   45.1130   70.6630 N.am  180  ALA180     -0.1966
     96  CA        12.2620   46.2110   69.7220 C.3   180  ALA180      0.1728
     97  C         10.8240   46.0390   69.2460 C.2   180  ALA180      0.2616
     98  O         10.2480   44.9630   69.4140 O.2   180  ALA180     -0.2715
     99  CB        13.2280   46.0580   68.5620 C.3   180  ALA180      0.0334
    100  N         10.2510   47.0790   68.6530 N.am  181  CYS181     -0.1954
    101  CA         8.8690   47.0110   68.1920 C.3   181  CYS181      0.1843
    102  C          8.6820   47.8840   66.9590 C.2   181  CYS181      0.2625
    103  O          9.5830   48.6230   66.5780 O.2   181  CYS181     -0.2714
    104  CB         7.9350   47.4730   69.3160 C.3   181  CYS181      0.0997
    105  SG         6.1930   47.0000   69.1410 S.3   181  CYS181     -0.0797
    106  N          7.5030   47.7950   66.3470 N.am  182  GLN182     -0.1977
    107  CA         7.1740   48.5620   65.1460 C.3   182  GLN182      0.1601
    108  C          7.6650   50.0080   65.2280 C.2   182  GLN182      0.2287
    109  O          7.3400   50.7390   66.1700 O.2   182  GLN182     -0.2864
    110  CB         5.6540   48.5330   64.9200 C.3   182  GLN182      0.0394
    111  CG         5.1720   49.1410   63.6030 C.3   182  GLN182      0.0908
    112  CD         5.5450   48.3130   62.3790 C.2   182  GLN182      0.2608
    113  OE1        5.2500   47.1260   62.3030 O.2   182  GLN182     -0.2717
    114  NE2        6.1870   48.9510   61.4080 N.am  182  GLN182     -0.0878
    115  N         12.5150   49.6750   63.4040 N.3   185  SER185     -0.1217
    116  CA        13.1580   49.1350   62.2110 C.3   185  SER185      0.1889
    117  C         14.1970   50.0890   61.6400 C.2   185  SER185      0.2288
    118  O         13.9620   51.2990   61.5710 O.2   185  SER185     -0.2866
    119  CB        12.1160   48.8520   61.1220 C.3   185  SER185      0.2089
    120  OG        11.2540   47.7880   61.4750 O.3   185  SER185     -0.2183
    121  N         17.9840   46.9060   63.2880 N.3   203  VAL203     -0.1231
    122  CA        16.6920   46.3970   63.7390 C.3   203  VAL203      0.1692
    123  C         15.9300   45.9490   62.4890 C.2   203  VAL203      0.2593
    124  O         15.7470   46.7260   61.5560 O.2   203  VAL203     -0.2718
    125  CB        15.8850   47.4830   64.4850 C.3   203  VAL203      0.0266
    126  CG1       14.5510   46.9190   64.9470 C.3   203  VAL203      0.0020
    127  CG2       16.6830   47.9740   65.6880 C.3   203  VAL203      0.0020
    128  N         15.4890   44.6950   62.4710 N.am  204  SER204     -0.1938
    129  CA        14.7900   44.1820   61.3010 C.3   204  SER204      0.2055
    130  C         13.3460   43.7640   61.5570 C.2   204  SER204      0.2643
    131  O         12.4190   44.4130   61.0820 O.2   204  SER204     -0.2714
    132  CB        15.5700   43.0020   60.7120 C.3   204  SER204      0.2130
    133  OG        15.0910   42.6670   59.4220 O.3   204  SER204     -0.2179
    134  N         13.1520   42.6790   62.3000 N.am  205  TRP205     -0.1959
    135  CA        11.7990   42.2120   62.5680 C.3   205  TRP205      0.1771
    136  C         11.6650   41.3030   63.7830 C.2   205  TRP205      0.2620
    137  O         12.6360   41.0010   64.4690 O.2   205  TRP205     -0.2715
    138  CB        11.2480   41.4840   61.3330 C.3   205  TRP205      0.0590
    139  CG        12.0420   40.2670   60.9380 C.ar  205  TRP205      0.0006
    140  CD1       13.1910   40.2360   60.1890 C.ar  205  TRP205      0.0946
    141  CD2       11.7620   38.9040   61.2930 C.ar  205  TRP205      0.0152
    142  NE1       13.6390   38.9380   60.0580 N.ar  205  TRP205     -0.2442
    143  CE2       12.7820   38.1030   60.7240 C.ar  205  TRP205      0.0810
    144  CE3       10.7490   38.2820   62.0360 C.ar  205  TRP205      0.0012
    145  CZ2       12.8160   36.7110   60.8770 C.ar  205  TRP205      0.0191
    146  CZ3       10.7840   36.8970   62.1880 C.ar  205  TRP205      0.0001
    147  CH2       11.8130   36.1270   61.6090 C.ar  205  TRP205      0.0015
    148  N         10.4300   40.8730   64.0260 N.am  206  GLY206     -0.1940
    149  CA        10.1290   39.9910   65.1360 C.3   206  GLY206      0.2014
    150  C          8.6620   39.6140   65.0580 C.2   206  GLY206      0.2639
    151  O          7.8660   40.3800   64.5410 O.2   206  GLY206     -0.2714
    152  N          8.3100   38.4280   65.5430 N.am  207  GLU207     -0.1963
    153  CA         6.9160   37.9910   65.5200 C.3   207  GLU207      0.1733
    154  C          6.2370   38.5930   66.7470 C.2   207  GLU207      0.2617
    155  O          6.2150   37.9950   67.8200 O.2   207  GLU207     -0.2715
    156  CB         6.8410   36.4660   65.5530 C.3   207  GLU207      0.0429
    157  CG         7.5950   35.7990   64.4030 C.3   207  GLU207      0.1163
    158  CD         7.5080   34.2850   64.4480 C.2   207  GLU207      0.3649
    159  OE1        6.3780   33.7600   64.3580 O.co2 207  GLU207     -0.2457
    160  OE2        8.5640   33.6260   64.5760 O.co2 207  GLU207     -0.2457
    161  N          5.6900   39.7890   66.5720 N.am  208  GLY208     -0.1940
    162  CA         5.0620   40.4760   67.6830 C.3   208  GLY208      0.2014
    163  C          6.1670   41.1450   68.4780 C.2   208  GLY208      0.2639
    164  O          7.3250   41.1360   68.0610 O.2   208  GLY208     -0.2714
    165  N          5.8370   41.7190   69.6270 N.am  209  CYS209     -0.1967
    166  CA         6.8610   42.3740   70.4230 C.3   209  CYS209      0.1712
    167  C          6.9340   41.8360   71.8370 C.2   209  CYS209      0.2296
    168  O          5.9450   41.8400   72.5650 O.2   209  CYS209     -0.2864
    169  CB         6.6130   43.8760   70.4250 C.3   209  CYS209      0.0983
    170  SG         6.4010   44.4850   68.7420 S.3   209  CYS209     -0.0798
    171  N          7.0540   38.9160   72.7570 N.3   211  ARG211     -0.1245
    172  CA         6.2260   37.7280   72.9270 C.3   211  ARG211      0.1563
    173  C          7.0300   36.5760   73.5200 C.2   211  ARG211      0.2260
    174  O          8.1700   36.3380   73.1310 O.2   211  ARG211     -0.2867
    175  CB         5.6180   37.2970   71.5900 C.3   211  ARG211      0.0307
    176  CG         4.4990   38.1970   71.0910 C.3   211  ARG211      0.0489
    177  CD         3.9110   37.6620   69.7920 C.3   211  ARG211      0.2205
    178  NE         2.8290   38.5010   69.2790 N.pl3 211  ARG211     -0.0865
    179  CZ         2.2000   38.2840   68.1270 C.cat 211  ARG211      0.5346
    180  NH1        2.5450   37.2520   67.3640 N.pl3 211  ARG211      0.1354
    181  NH2        1.2250   39.0950   67.7360 N.pl3 211  ARG211      0.1354
    182  N         14.0270   38.9270   69.0590 N.3   216  GLY216     -0.1225
    183  CA        14.1100   39.9960   68.0810 C.3   216  GLY216      0.1811
    184  C         15.0980   39.5840   67.0050 C.2   216  GLY216      0.2280
    185  O         16.1280   38.9880   67.3090 O.2   216  GLY216     -0.2866
@<TRIPOS>BOND
     1    27    26   ar
     2    25    26    1
     3    25    24    1
     4    19    18    1
     5    26    28   ar
     6    18    17    1
     7    24    21    1
     8    11    12    1
     9    20    21    1
    10    20    13   am
    11    17    16    1
    12    21    22    1
    13    35    33    1
    14    16    15    1
    15    15    12    1
    16    34    33    1
    17    12    13    1
    18    13    14    2
    19    22    29   am
    20    22    23    2
    21    29    30    1
    22    33    30    1
    23    30    31    1
    24    36    31   am
    25    36    37    1
    26     1     2    1
    27     2     3    1
    28     2     5    1
    29    31    32    2
    30     4     3    2
    31    37    38    1
    32    37    40    1
    33    38    39    2
    34    86    84    1
    35     5     6    1
    36    42    44   ar
    37    42    41   ar
    38    44    46   ar
    39    40    41    1
    40    41    43   ar
    41    84    83    1
    42     6     8   ar
    43     6     7   ar
    44    46    47    1
    45    46    45   ar
    46    85    83    1
    47    83    80    1
    48    43    45   ar
    49     8    10   ar
    50     7     9   ar
    51    76    74   ar
    52    76    78   ar
    53    82    81    2
    54    80    79    1
    55    80    81    1
    56    74    73   ar
    57    79    70   am
    58    10     9   ar
    59    78    77   ar
    60   133   132    1
    61    73    72    1
    62    73    75   ar
    63    72    69    1
    64    70    69    1
    65    70    71    2
    66    69    68    1
    67   142   140   ar
    68   142   143   ar
    69   140   139   ar
    70    77    75   ar
    71   132   129    1
    72   143   145   ar
    73   143   141   ar
    74   145   147   ar
    75   139   141   ar
    76   139   138    1
    77   131   130    2
    78   119   120    1
    79   119   116    1
    80   141   144   ar
    81   129   130    1
    82   129   128    1
    83   138   135    1
    84   114   112   am
    85   124   123    2
    86   130   134   am
    87   118   117    2
    88   147   146   ar
    89   117   116    1
    90   144   146   ar
    91   116   115    1
    92   134   135    1
    93   113   112    2
    94   112   111    1
    95   128   123   am
    96   123   122    1
    97   135   136    1
    98   121   122    1
    99   111   110    1
   100   122   125    1
   101   136   148   am
   102   136   137    2
   103   148   149    1
   104    58    56    1
   105   159   158   ar
   106   157   158    1
   107   157   156    1
   108   158   160   ar
   109   125   126    1
   110   125   127    1
   111   151   150    2
   112   110   107    1
   113   150   149    1
   114   150   152   am
   115   107   108    1
   116   107   106    1
   117   108   109    2
   118    56    57    1
   119    56    55    2
   120   153   152    1
   121   153   156    1
   122   153   154    1
   123    55    54    1
   124   106   102   am
   125   161   154   am
   126   161   162    1
   127   103   102    2
   128   154   155    2
   129   102   101    1
   130   184   185    2
   131   184   183    1
   132   180   179    1
   133    54    53    1
   134   162   163    1
   135   181   179    1
   136    53    52    1
   137   164   163    2
   138   183   182    1
   139   179   178    2
   140   101   100    1
   141   101   104    1
   142   163   165   am
   143    99    96    1
   144   100    97   am
   145    62    61    2
   146   170   169    1
   147    48    49    1
   148    66    65   ar
   149   105   104    1
   150    97    98    2
   151    97    96    1
   152    52    49    1
   153   178   177    1
   154    64    65    1
   155    64    63    1
   156   165   166    1
   157    65    67   ar
   158    96    95    1
   159   177   176    1
   160    49    50    1
   161    61    60    1
   162    94    92   ar
   163   166   169    1
   164   166   167    1
   165    93    92   ar
   166    60    63    1
   167    60    59    1
   168    95    89   am
   169    92    91    1
   170   176   175    1
   171    50    51    2
   172   175   172    1
   173   167   168    2
   174    89    90    2
   175    89    88    1
   176    91    88    1
   177   171   172    1
   178    88    87    1
   179   172   173    1
   180   174   173    2
