@<TRIPOS>MOLECULE
tmp/3m3fA01.pdb
 98 95 0 0 0
SMALL
GASTEIGER

@<TRIPOS>ATOM
      1  N          6.1210   24.6180    8.8000 N.3    89  ILE89      -0.1231
      2  CA         7.1180   25.5840    8.3620 C.3    89  ILE89       0.1692
      3  C          6.9840   26.9000    9.1380 C.2    89  ILE89       0.2593
      4  O          6.0230   27.6330    8.9610 O.2    89  ILE89      -0.2718
      5  CB         6.9460   25.8870    6.8420 C.3    89  ILE89       0.0266
      6  CG1        7.2070   24.6260    6.0000 C.3    89  ILE89       0.0019
      7  CG2        7.7940   27.0790    6.4370 C.3    89  ILE89       0.0020
      8  CD1        6.9160   24.7900    4.5390 C.3    89  ILE89       0.0001
      9  N          7.9470   27.1900   10.0050 N.am   90  THR90      -0.1939
     10  CA         7.9400   28.4340   10.7630 C.3    90  THR90       0.2028
     11  C          9.2980   29.1350   10.6950 C.2    90  THR90       0.2642
     12  O         10.3250   28.4930   10.4710 O.2    90  THR90      -0.2714
     13  CB         7.4910   28.2210   12.2570 C.3    90  THR90       0.1808
     14  OG1        8.5550   27.6430   13.0280 O.3    90  THR90      -0.2208
     15  CG2        6.2670   27.3250   12.3330 C.3    90  THR90       0.0379
     16  N          9.2810   30.4490   10.9060 N.am   91  LEU91      -0.1977
     17  CA        10.4740   31.2850   10.8470 C.3    91  LEU91       0.1596
     18  C         11.5160   30.9060   11.9040 C.2    91  LEU91       0.2287
     19  O         12.6660   30.6150   11.5810 O.2    91  LEU91      -0.2864
     20  CB        10.0910   32.7570   10.9690 C.3    91  LEU91       0.0297
     21  CG        11.2290   33.7560   11.1720 C.3    91  LEU91       0.0022
     22  CD1       12.2180   33.7000   10.0180 C.3    91  LEU91       0.0001
     23  CD2       10.6790   35.1720   11.3370 C.3    91  LEU91       0.0001
     24  N          6.7100   23.0070    1.1230 N.3   102  PRO102     -0.2102
     25  CA         5.6250   22.3800    1.8810 C.3   102  PRO102      0.1504
     26  C          4.9090   21.2530    1.1050 C.2   102  PRO102      0.2576
     27  O          4.6200   21.3940   -0.0840 O.2   102  PRO102     -0.2718
     28  CB         4.7100   23.5770    2.2110 C.3   102  PRO102      0.0282
     29  CG         5.0990   24.6630    1.1820 C.3   102  PRO102      0.0208
     30  CD         6.5780   24.4730    1.0750 C.3   102  PRO102      0.0893
     31  N          4.6770   20.1240    1.7760 N.am  103  PHE103     -0.1963
     32  CA         4.0640   18.9500    1.1500 C.3   103  PHE103      0.1771
     33  C          2.5640   18.8870    1.3850 C.2   103  PHE103      0.2619
     34  O          1.8920   18.0020    0.8570 O.2   103  PHE103     -0.2715
     35  CB         4.7040   17.6540    1.6560 C.3   103  PHE103      0.0574
     36  CG         4.4440   17.3720    3.1070 C.ar  103  PHE103     -0.0200
     37  CD1        3.1700   17.0600    3.5560 C.ar  103  PHE103     -0.0042
     38  CD2        5.4860   17.3990    4.0270 C.ar  103  PHE103     -0.0042
     39  CE1        2.9320   16.7910    4.9040 C.ar  103  PHE103     -0.0003
     40  CE2        5.2630   17.1270    5.3810 C.ar  103  PHE103     -0.0003
     41  CZ         3.9770   16.8300    5.8220 C.ar  103  PHE103     -0.0000
     42  N          2.0500   19.8130    2.1900 N.am  104  MET104     -0.1963
     43  CA         0.6290   19.8710    2.5220 C.3   104  MET104      0.1736
     44  C          0.2670   21.2730    3.0000 C.2   104  MET104      0.2617
     45  O          1.1190   22.0470    3.4600 O.2   104  MET104     -0.2715
     46  CB         0.2600   18.8320    3.5860 C.3   104  MET104      0.0427
     47  CG        -1.2240   18.7300    3.8640 C.3   104  MET104      0.0599
     48  SD        -1.7130   17.3120    4.8830 S.3   104  MET104     -0.1393
     49  CE        -1.3210   15.9420    3.8010 C.3   104  MET104      0.0692
     50  N         -1.0110   21.5940    2.8800 N.am  105  SER105     -0.1950
     51  CA        -1.4920   22.9080    3.2300 C.3   105  SER105      0.1924
     52  C         -2.4490   22.8710    4.4150 C.2   105  SER105      0.2314
     53  O         -3.4140   22.1010    4.4190 O.2   105  SER105     -0.2863
     54  CB        -2.1990   23.5080    2.0350 C.3   105  SER105      0.2116
     55  OG        -2.4920   24.8550    2.3150 O.3   105  SER105     -0.2180
     56  N         -2.7130   30.8200    7.0600 N.3   214  SER214     -0.1202
     57  CA        -2.4190   29.8600    5.9830 C.3   214  SER214      0.2020
     58  C         -0.9250   29.5630    5.8060 C.2   214  SER214      0.2619
     59  O         -0.1240   30.4650    5.4990 O.2   214  SER214     -0.2717
     60  CB        -3.0230   30.3140    4.6390 C.3   214  SER214      0.2103
     61  OG        -2.6840   31.6480    4.3040 O.3   214  SER214     -0.2182
     62  N         -0.5850   28.2860    5.9890 N.am  215  LYS215     -0.1965
     63  CA         0.7900   27.7930    6.0230 C.3   215  LYS215      0.1728
     64  C          0.8260   26.3380    5.5300 C.2   215  LYS215      0.2616
     65  O         -0.1190   25.8710    4.8760 O.2   215  LYS215     -0.2715
     66  CB         1.4110   27.9320    7.4170 C.3   215  LYS215      0.0311
     67  CG         0.6750   27.2050    8.5160 C.3   215  LYS215      0.0038
     68  CD         0.8990   27.8620    9.8720 C.3   215  LYS215      0.0206
     69  CE        -0.0690   27.3210   10.9240 C.3   215  LYS215      0.1093
     70  NZ         0.2120   27.8510   12.2890 N.3   215  LYS215     -0.1314
     71  N          1.9210   25.6350    5.7930 N.am  216  GLY216     -0.1955
     72  CA         2.0730   24.2820    5.3030 C.3   216  GLY216      0.1869
     73  C          3.0890   23.4730    6.0810 C.2   216  GLY216      0.2309
     74  O          3.8470   24.0300    6.8650 O.2   216  GLY216     -0.2863
     75  N          4.2650   16.0140   -5.9260 N.3   239  ASN239     -0.1240
     76  CA         3.1970   16.9570   -6.1880 C.3   239  ASN239      0.1653
     77  C          2.8110   16.9290   -7.6590 C.2   239  ASN239      0.2266
     78  O          1.6790   16.6270   -7.9910 O.2   239  ASN239     -0.2867
     79  CB         3.6520   18.3620   -5.7890 C.3   239  ASN239      0.1155
     80  CG         2.5420   19.4010   -5.9000 C.2   239  ASN239      0.2627
     81  OD1        1.7620   19.6080   -4.9640 O.2   239  ASN239     -0.2716
     82  ND2        2.4800   20.0690   -7.0450 N.am  239  ASN239     -0.0877
     83  N          0.7190   13.3810   -3.6990 N.3   244  LEU244     -0.1231
     84  CA         0.3890   13.8910   -2.3680 C.3   244  LEU244      0.1693
     85  C         -1.1360   13.9010   -2.2500 C.2   244  LEU244      0.2592
     86  O         -1.7150   13.4050   -1.2700 O.2   244  LEU244     -0.2718
     87  CB         0.9800   15.2950   -2.1580 C.3   244  LEU244      0.0284
     88  CG         2.4800   15.4330   -2.5210 C.3   244  LEU244      0.0019
     89  CD1        3.0610   16.8670   -2.3800 C.3   244  LEU244      0.0001
     90  CD2        3.3430   14.4100   -1.7510 C.3   244  LEU244      0.0001
     91  N         -1.7810   14.4470   -3.2790 N.am  245  ASP245     -0.1974
     92  CA        -3.2310   14.4130   -3.4100 C.3   245  ASP245      0.1709
     93  C         -3.8030   13.0100   -3.2240 C.2   245  ASP245      0.2293
     94  O         -4.7340   12.7970   -2.4470 O.2   245  ASP245     -0.2864
     95  CB        -3.6480   14.9650   -4.7750 C.3   245  ASP245      0.1436
     96  CG        -3.4290   16.4610   -4.8900 C.2   245  ASP245      0.3671
     97  OD1       -3.2290   17.1150   -3.8460 O.co2 245  ASP245     -0.2456
     98  OD2       -3.4400   17.0680   -5.9820 O.co2 245  ASP245     -0.2456
@<TRIPOS>BOND
     1    78    77    2
     2    77    76    1
     3    82    80   am
     4    76    75    1
     5    76    79    1
     6    98    96   ar
     7    80    79    1
     8    80    81    2
     9    96    95    1
    10    96    97   ar
    11    95    92    1
    12    83    84    1
    13    92    91    1
    14    92    93    1
    15    91    85   am
    16    93    94    2
    17    88    89    1
    18    88    87    1
    19    88    90    1
    20    84    85    1
    21    84    87    1
    22    85    86    2
    23    27    26    2
    24    34    33    2
    25    30    24    1
    26    30    29    1
    27    26    31   am
    28    26    25    1
    29    24    25    1
    30    32    33    1
    31    32    35    1
    32    32    31    1
    33    29    28    1
    34    33    42   am
    35    35    36    1
    36    25    28    1
    37    54    55    1
    38    54    51    1
    39    42    43    1
    40    43    44    1
    41    43    46    1
    42    50    44   am
    43    50    51    1
    44    44    45    2
    45    36    37   ar
    46    36    38   ar
    47    51    52    1
    48    37    39   ar
    49    46    47    1
    50    49    48    1
    51    47    48    1
    52    38    40   ar
    53    61    60    1
    54    52    53    2
    55     8     6    1
    56    60    57    1
    57    65    64    2
    58    39    41   ar
    59    72    71    1
    60    72    73    1
    61    40    41   ar
    62    59    58    2
    63    64    71   am
    64    64    63    1
    65    58    57    1
    66    58    62   am
    67    57    56    1
    68    62    63    1
    69     6     5    1
    70    63    66    1
    71    73    74    2
    72     7     5    1
    73     5     2    1
    74    66    67    1
    75     2     1    1
    76     2     3    1
    77    67    68    1
    78     4     3    2
    79     3     9   am
    80    68    69    1
    81     9    10    1
    82    22    21    1
    83    12    11    2
    84    11    10    1
    85    11    16   am
    86    10    13    1
    87    17    16    1
    88    17    20    1
    89    17    18    1
    90    69    70    1
    91    20    21    1
    92    21    23    1
    93    19    18    2
    94    13    15    1
    95    13    14    1
