@<TRIPOS>MOLECULE
tmp/3m3mA00.pdb
 127 120 0 0 0
SMALL
GASTEIGER

@<TRIPOS>ATOM
      1  N         10.4000   34.4980   20.3740 N.3    11  SER11      -0.1217
      2  CA        11.4460   33.5090   20.6610 C.3    11  SER11       0.1889
      3  C         12.4170   34.0780   21.7000 C.2    11  SER11       0.2288
      4  O         12.9270   35.1840   21.4730 O.2    11  SER11      -0.2866
      5  CB        12.2430   33.2790   19.3710 C.3    11  SER11       0.2089
      6  OG        13.5820   32.7350   19.6540 O.3    11  SER11      -0.2183
      7  N         15.3680   33.1060   22.3560 N.3    13  ASN13      -0.1240
      8  CA        16.7080   33.2720   21.7670 C.3    13  ASN13       0.1653
      9  C         16.8490   34.5770   20.9770 C.2    13  ASN13       0.2266
     10  O         17.8930   35.2290   21.0030 O.2    13  ASN13      -0.2867
     11  CB        17.0650   32.0670   20.8920 C.3    13  ASN13       0.1155
     12  CG        17.1860   30.8080   21.7450 C.2    13  ASN13       0.2627
     13  OD1       16.5090   29.7750   21.4540 O.2    13  ASN13      -0.2716
     14  ND2       18.0360   30.8790   22.7800 N.am   13  ASN13      -0.0877
     15  N          8.5800   30.6220   11.7260 N.3    34  ILE34      -0.1245
     16  CA         9.1790   29.2900   11.6320 C.3    34  ILE34       0.1561
     17  C          8.0510   28.3200   11.2270 C.2    34  ILE34       0.2260
     18  O          8.2710   27.4780   10.3590 O.2    34  ILE34      -0.2867
     19  CB         9.6990   28.8490   13.0030 C.3    34  ILE34       0.0252
     20  CG1       10.9740   29.6390   13.3430 C.3    34  ILE34       0.0019
     21  CG2        9.8870   27.3050   12.9800 C.3    34  ILE34       0.0019
     22  CD1       11.2780   29.5630   14.8350 C.3    34  ILE34       0.0001
     23  N         12.4050   29.3170    7.8550 N.3    39  THR39      -0.1203
     24  CA        13.7830   28.9200    8.2110 C.3    39  THR39       0.1994
     25  C         14.2590   27.7250    7.3930 C.2    39  THR39       0.2617
     26  O         15.3860   27.2600    7.5890 O.2    39  THR39      -0.2717
     27  CB        13.9430   28.5400    9.7300 C.3    39  THR39       0.1784
     28  OG1       13.0360   27.4660   10.1120 O.3    39  THR39      -0.2211
     29  CG2       13.7620   29.7900   10.6150 C.3    39  THR39       0.0376
     30  N         13.3940   27.2160    6.5100 N.am   40  GLN40      -0.1979
     31  CA        13.7430   26.0340    5.6890 C.3    40  GLN40       0.1601
     32  C         13.9740   26.3850    4.2390 C.2    40  GLN40       0.2287
     33  O         14.2040   25.4620    3.4280 O.2    40  GLN40      -0.2864
     34  CB        12.6160   24.9830    5.7420 C.3    40  GLN40       0.0394
     35  CG        12.2620   24.5100    7.1710 C.3    40  GLN40       0.0908
     36  CD        11.1660   23.4090    7.1380 C.2    40  GLN40       0.2608
     37  OE1       10.0990   23.6020    6.5450 O.2    40  GLN40      -0.2717
     38  NE2       11.4580   22.2390    7.7290 N.am   40  GLN40      -0.0878
     39  N         22.2640   26.0410    9.8560 N.3    50  ASN50      -0.1225
     40  CA        21.6390   25.2470   10.8970 C.3    50  ASN50       0.1785
     41  C         20.1210   25.5220   10.9370 C.2    50  ASN50       0.2598
     42  O         19.4060   24.7920   11.6210 O.2    50  ASN50      -0.2718
     43  CB        22.2890   25.5780   12.2790 C.3    50  ASN50       0.1169
     44  CG        21.9600   24.5550   13.3390 C.2    50  ASN50       0.2627
     45  OD1       22.0310   23.3680   13.0840 O.2    50  ASN50      -0.2716
     46  ND2       21.6870   25.0160   14.6030 N.am   50  ASN50      -0.0877
     47  N         19.6160   26.5100   10.1720 N.am   51  GLY51      -0.1942
     48  CA        18.1480   26.6200   10.0040 C.3    51  GLY51       0.2014
     49  C         17.4450   27.2140   11.2390 C.2    51  GLY51       0.2639
     50  O         16.2690   26.9130   11.4800 O.2    51  GLY51      -0.2714
     51  N         18.1670   28.0340   12.0040 N.am   52  LYS52      -0.1963
     52  CA        17.5710   28.6730   13.2210 C.3    52  LYS52       0.1728
     53  C         17.6790   30.1610   13.2620 C.2    52  LYS52       0.2616
     54  O         18.6310   30.7500   12.7220 O.2    52  LYS52      -0.2715
     55  CB        18.2600   28.1350   14.4970 C.3    52  LYS52       0.0311
     56  CG        17.8830   26.5390   14.6670 C.3    52  LYS52       0.0038
     57  CD        18.4480   25.9850   15.9300 C.3    52  LYS52       0.0206
     58  CE        18.3260   24.4080   15.9490 C.3    52  LYS52       0.1093
     59  NZ        17.0790   23.7590   15.5090 N.3    52  LYS52      -0.1314
     60  N         16.7400   30.7830   13.9760 N.am   53  ILE53      -0.1964
     61  CA        16.8560   32.2110   14.3220 C.3    53  ILE53       0.1712
     62  C         17.3050   32.2200   15.8190 C.2    53  ILE53       0.2458
     63  O         17.0480   31.2990   16.5850 O.2    53  ILE53      -0.2730
     64  CB        15.5130   32.9450   14.1410 C.3    53  ILE53       0.0289
     65  CG1       14.3900   32.1410   14.7790 C.3    53  ILE53       0.0022
     66  CG2       15.4010   33.2130   12.5690 C.3    53  ILE53       0.0023
     67  CD1       13.0120   32.8010   14.6030 C.3    53  ILE53       0.0001
     68  N         18.0050   33.2830   16.2310 N.am   54  PRO54      -0.2727
     69  CA        18.2690   34.5360   15.4680 C.3    54  PRO54       0.1402
     70  C         19.5200   34.3960   14.5720 C.2    54  PRO54       0.2269
     71  O         20.4070   33.5070   14.7770 O.2    54  PRO54      -0.2865
     72  CB        18.4800   35.5550   16.5880 C.3    54  PRO54       0.0296
     73  CG        19.2020   34.6830   17.6580 C.3    54  PRO54       0.0237
     74  CD        18.3190   33.4160   17.6640 C.3    54  PRO54       0.0939
     75  N         23.7800   31.6800   16.2550 N.3    66  GLU66      -0.1231
     76  CA        23.7940   31.3360   17.6650 C.3    66  GLU66       0.1699
     77  C         23.6110   32.6110   18.5100 C.2    66  GLU66       0.2593
     78  O         24.4280   33.3850   18.5740 O.2    66  GLU66      -0.2718
     79  CB        25.0390   30.5690   18.0530 C.3    66  GLU66       0.0402
     80  CG        25.0610   29.1510   17.5020 C.3    66  GLU66       0.1161
     81  CD        23.9650   28.2660   18.0320 C.2    66  GLU66       0.3649
     82  OE1       23.6740   28.3420   19.1920 O.co2  66  GLU66      -0.2457
     83  OE2       23.5330   27.4730   17.2600 O.co2  66  GLU66      -0.2457
     84  N         22.4730   32.6940   19.1640 N.am   67  SER67      -0.1938
     85  CA        22.1390   33.8550   19.9740 C.3    67  SER67       0.2055
     86  C         23.2280   34.1540   20.9660 C.2    67  SER67       0.2643
     87  O         23.5590   35.3250   21.1390 O.2    67  SER67      -0.2714
     88  CB        20.7980   33.6230   20.7550 C.3    67  SER67       0.2130
     89  OG        20.8700   32.5220   21.6570 O.3    67  SER67      -0.2179
     90  N         23.7880   33.1380   21.6090 N.am   68  ASN68      -0.1971
     91  CA        24.8070   33.4640   22.6310 C.3    68  ASN68       0.1688
     92  C         26.1390   33.9480   22.0110 C.2    68  ASN68       0.2292
     93  O         26.8580   34.7210   22.6570 O.2    68  ASN68      -0.2864
     94  CB        25.0550   32.3070   23.5800 C.3    68  ASN68       0.1181
     95  CG        23.8980   32.0870   24.5530 C.2    68  ASN68       0.2629
     96  OD1       22.9520   32.8570   24.6180 O.2    68  ASN68      -0.2716
     97  ND2       23.9460   30.9700   25.2680 N.am   68  ASN68      -0.0877
     98  N         22.4760   26.9090   27.2450 N.3    99  GLN99      -0.1245
     99  CA        22.1640   26.1820   26.0240 C.3    99  GLN99       0.1566
    100  C         22.0080   24.6290   26.3100 C.2    99  GLN99       0.2260
    101  O         21.2100   23.9770   25.6180 O.2    99  GLN99      -0.2867
    102  CB        23.2920   26.4370   24.9840 C.3    99  GLN99       0.0367
    103  CG        23.1800   27.8530   24.3900 C.3    99  GLN99       0.0905
    104  CD        21.9380   27.9950   23.4760 C.2    99  GLN99       0.2608
    105  OE1       21.0150   28.8870   23.7080 O.2    99  GLN99      -0.2717
    106  NE2       21.8710   27.1800   22.4570 N.am   99  GLN99      -0.0878
    107  N         17.7670   25.9940   28.4950 N.3   103  GLU103     -0.1245
    108  CA        16.9310   26.2420   27.3130 C.3   103  GLU103      0.1567
    109  C         16.0870   24.9860   26.8420 C.2   103  GLU103      0.2260
    110  O         14.8730   25.0840   26.6380 O.2   103  GLU103     -0.2867
    111  CB        17.7760   26.9160   26.1600 C.3   103  GLU103      0.0388
    112  CG        16.9400   27.6840   25.1480 C.3   103  GLU103      0.1160
    113  CD        16.4060   26.8670   24.0260 C.2   103  GLU103      0.3649
    114  OE1       16.4240   25.5830   24.1010 O.co2 103  GLU103     -0.2457
    115  OE2       15.8930   27.4780   23.0190 O.co2 103  GLU103     -0.2457
    116  N         14.5030   33.3020   28.5970 N.3   164  TYR164     -0.1241
    117  CA        13.4440   32.3880   28.8220 C.3   164  TYR164      0.1605
    118  C         13.0500   32.3250   30.3150 C.2   164  TYR164      0.2264
    119  O         11.9120   31.9320   30.5930 O.2   164  TYR164     -0.2867
    120  CB        13.8790   30.9530   28.3940 C.3   164  TYR164      0.0534
    121  CG        13.7410   30.8340   26.8660 C.ar  164  TYR164     -0.0201
    122  CD1       12.4590   30.6930   26.2820 C.ar  164  TYR164     -0.0009
    123  CD2       14.8870   30.7640   26.0890 C.ar  164  TYR164     -0.0009
    124  CE1       12.3460   30.5590   24.8410 C.ar  164  TYR164      0.0417
    125  CE2       14.7910   30.5750   24.6800 C.ar  164  TYR164      0.0417
    126  CZ        13.5330   30.4610   24.0850 C.ar  164  TYR164      0.1957
    127  OH        13.4630   30.3550   22.6460 O.3   164  TYR164     -0.2866
@<TRIPOS>BOND
     1    33    32    2
     2    32    31    1
     3    31    34    1
     4    31    30    1
     5    34    35    1
     6    30    25   am
     7    37    36    2
     8    36    35    1
     9    36    38   am
    10    25    26    2
    11    25    24    1
    12    23    24    1
    13    24    27    1
    14    27    28    1
    15    27    29    1
    16    39    40    1
    17    48    47    1
    18    48    49    1
    19    47    41   am
    20    18    17    2
    21    40    41    1
    22    40    43    1
    23    41    42    2
    24    17    16    1
    25    49    50    2
    26    49    51   am
    27    16    15    1
    28    16    19    1
    29    51    52    1
    30    43    44    1
    31    66    64    1
    32    54    53    2
    33    21    19    1
    34    19    20    1
    35    45    44    2
    36    52    53    1
    37    52    55    1
    38    53    60   am
    39    44    46   am
    40    20    22    1
    41    60    61    1
    42    64    61    1
    43    64    65    1
    44    61    62    1
    45    55    56    1
    46    70    71    2
    47    70    69    1
    48    67    65    1
    49    56    57    1
    50    69    68    1
    51    69    72    1
    52    59    58    1
    53    62    68   am
    54    62    63    2
    55    57    58    1
    56    68    74    1
    57    75    76    1
    58    72    73    1
    59    83    81   ar
    60    80    81    1
    61    80    79    1
    62    73    74    1
    63    76    79    1
    64    76    77    1
    65    81    82   ar
    66    77    78    2
    67    77    84   am
    68    84    85    1
    69     5     6    1
    70     5     2    1
    71    85    88    1
    72    85    86    1
    73     1     2    1
    74     2     3    1
    75    88    89    1
    76    11    12    1
    77    11     8    1
    78    86    87    2
    79    86    90   am
    80     9    10    2
    81     9     8    1
    82    13    12    2
    83     4     3    2
    84    90    91    1
    85    12    14   am
    86     8     7    1
    87    92    91    1
    88    92    93    2
    89   106   104   am
    90    91    94    1
    91   127   126    1
    92   115   113   ar
    93   104   105    2
    94   104   103    1
    95    94    95    1
    96   113   114   ar
    97   113   112    1
    98   126   125   ar
    99   126   124   ar
   100   103   102    1
   101    95    96    2
   102    95    97   am
   103   125   123   ar
   104   124   122   ar
   105   102    99    1
   106   112   111    1
   107   101   100    2
   108    99   100    1
   109    99    98    1
   110   123   121   ar
   111   111   108    1
   112   122   121   ar
   113   110   109    2
   114   109   108    1
   115   121   120    1
   116   108   107    1
   117   120   117    1
   118   116   117    1
   119   117   118    1
   120   118   119    2
