@<TRIPOS>MOLECULE
tmp/3m3oA00.pdb
 97 92 0 0 0
SMALL
GASTEIGER

@<TRIPOS>ATOM
      1  N         -6.8550  -19.2720    2.2260 N.3    41  ASN41      -0.1226
      2  CA        -6.5940  -19.7790    0.8860 C.3    41  ASN41       0.1770
      3  C         -5.1990  -19.4470    0.3610 C.2    41  ASN41       0.2439
      4  O         -5.0590  -18.8680   -0.7160 O.2    41  ASN41      -0.2733
      5  CB        -7.6500  -19.2310   -0.0790 C.3    41  ASN41       0.1168
      6  CG        -7.8220  -17.7150    0.0310 C.2    41  ASN41       0.2627
      7  OD1       -8.5780  -17.1080   -0.7330 O.2    41  ASN41      -0.2716
      8  ND2       -7.1250  -17.0990    0.9870 N.am   41  ASN41      -0.0877
      9  N         -4.1420  -19.8390    1.0930 N.am   42  PRO42      -0.2718
     10  CA        -4.1350  -20.5670    2.3650 C.3    42  PRO42       0.1535
     11  C         -4.0260  -19.6550    3.5840 C.2    42  PRO42       0.2598
     12  O         -4.1360  -20.1100    4.7210 O.2    42  PRO42      -0.2715
     13  CB        -2.9090  -21.4470    2.2250 C.3    42  PRO42       0.0310
     14  CG        -1.9400  -20.4890    1.5950 C.3    42  PRO42       0.0237
     15  CD        -2.7790  -19.7790    0.5320 C.3    42  PRO42       0.0939
     16  N         -3.8170  -18.3670    3.3460 N.am   43  ASN43      -0.1973
     17  CA        -3.6540  -17.4110    4.4340 C.3    43  ASN43       0.1688
     18  C         -4.9400  -16.7520    4.9180 C.2    43  ASN43       0.2292
     19  O         -5.8200  -16.4270    4.1270 O.2    43  ASN43      -0.2864
     20  CB        -2.6640  -16.3250    4.0060 C.3    43  ASN43       0.1181
     21  CG        -1.3850  -16.9030    3.4370 C.2    43  ASN43       0.2629
     22  OD1       -0.7930  -17.8120    4.0200 O.2    43  ASN43      -0.2716
     23  ND2       -0.9460  -16.3720    2.3020 N.am   43  ASN43      -0.0877
     24  N          7.6200  -12.0520    5.6580 N.3    59  HIS59      -0.1241
     25  CA         6.2290  -12.3740    5.3690 C.3    59  HIS59       0.1621
     26  C          5.7550  -13.2610    6.5130 C.2    59  HIS59       0.2264
     27  O          6.3400  -14.3210    6.7530 O.2    59  HIS59      -0.2867
     28  CB         6.1520  -13.1320    4.0380 C.3    59  HIS59       0.0745
     29  CG         4.7990  -13.6980    3.7170 C.ar   59  HIS59       0.0817
     30  ND1        3.7280  -12.9170    3.3370 N.ar   59  HIS59      -0.2268
     31  CD2        4.3610  -14.9810    3.6680 C.ar   59  HIS59       0.1154
     32  CE1        2.6910  -13.6910    3.0650 C.ar   59  HIS59       0.1986
     33  NE2        3.0500  -14.9490    3.2580 N.ar   59  HIS59      -0.2212
     34  N          2.5630  -15.2990    7.7850 N.3    61  ALA61      -0.1245
     35  CA         1.2730  -15.8200    7.3680 C.3    61  ALA61       0.1562
     36  C          0.5890  -16.6660    8.4300 C.2    61  ALA61       0.2260
     37  O          1.1550  -17.6510    8.9120 O.2    61  ALA61      -0.2867
     38  CB         1.4380  -16.6330    6.0740 C.3    61  ALA61       0.0290
     39  N         -2.3030  -19.1950    9.2520 N.3    63  ARG63      -0.1245
     40  CA        -3.2040  -20.1390    8.6040 C.3    63  ARG63       0.1563
     41  C         -3.9100  -20.9860    9.6620 C.2    63  ARG63       0.2260
     42  O         -3.3040  -21.8620   10.2870 O.2    63  ARG63      -0.2867
     43  CB        -2.4060  -21.0240    7.6420 C.3    63  ARG63       0.0307
     44  CG        -1.5280  -20.2250    6.6840 C.3    63  ARG63       0.0489
     45  CD        -0.8000  -21.1220    5.6870 C.3    63  ARG63       0.2205
     46  NE        -0.0280  -20.3400    4.7260 N.pl3  63  ARG63      -0.0865
     47  CZ         0.7130  -20.8650    3.7560 C.cat  63  ARG63       0.5346
     48  NH1        0.7880  -22.1840    3.6090 N.pl3  63  ARG63       0.1354
     49  NH2        1.3840  -20.0700    2.9320 N.pl3  63  ARG63       0.1354
     50  N         -4.5090  -24.7660    8.6650 N.3    66  GLU66      -0.1245
     51  CA        -3.2940  -25.5700    8.7300 C.3    66  GLU66       0.1567
     52  C         -2.6840  -25.4120   10.1200 C.2    66  GLU66       0.2260
     53  O         -1.6590  -26.0200   10.4350 O.2    66  GLU66      -0.2867
     54  CB        -2.2990  -25.1150    7.6620 C.3    66  GLU66       0.0388
     55  CG        -2.9600  -24.4810    6.4510 C.3    66  GLU66       0.1160
     56  CD        -2.1860  -24.6930    5.1680 C.2    66  GLU66       0.3649
     57  OE1       -0.9440  -24.5500    5.1790 O.co2  66  GLU66      -0.2457
     58  OE2       -2.8300  -24.9960    4.1400 O.co2  66  GLU66      -0.2457
     59  N          3.5080  -19.1250    9.1090 N.3    70  ILE70      -0.1245
     60  CA         4.6260  -19.2520    8.1820 C.3    70  ILE70       0.1561
     61  C          5.4140  -17.9540    8.0810 C.2    70  ILE70       0.2260
     62  O          4.8420  -16.8560    8.1060 O.2    70  ILE70      -0.2867
     63  CB         4.1240  -19.6520    6.7520 C.3    70  ILE70       0.0252
     64  CG1        3.8240  -21.1510    6.6970 C.3    70  ILE70       0.0019
     65  CG2        5.1690  -19.3130    5.6910 C.3    70  ILE70       0.0019
     66  CD1        2.7270  -21.5910    7.6170 C.3    70  ILE70       0.0001
     67  N          8.5080  -16.2600    5.6810 N.3    72  ASN72      -0.1240
     68  CA         9.2700  -16.4030    4.4410 C.3    72  ASN72       0.1653
     69  C          9.7080  -15.0310    3.9410 C.2    72  ASN72       0.2266
     70  O          9.3830  -14.0080    4.5440 O.2    72  ASN72      -0.2867
     71  CB         8.4080  -17.0900    3.3680 C.3    72  ASN72       0.1155
     72  CG         9.2270  -17.9590    2.4110 C.2    72  ASN72       0.2627
     73  OD1       10.4570  -17.8850    2.3690 O.2    72  ASN72      -0.2716
     74  ND2        8.5380  -18.7810    1.6350 N.am   72  ASN72      -0.0877
     75  N          9.0440  -17.4810   -3.8660 N.3    80  TRP80      -0.1241
     76  CA         9.0700  -17.4570   -2.4160 C.3    80  TRP80       0.1605
     77  C         10.2650  -18.3000   -2.0120 C.2    80  TRP80       0.2264
     78  O         10.5440  -19.3210   -2.6390 O.2    80  TRP80      -0.2867
     79  CB         7.7860  -18.0570   -1.8410 C.3    80  TRP80       0.0550
     80  CG         6.6620  -17.0820   -1.8220 C.ar   80  TRP80       0.0003
     81  CD1        5.5910  -17.0410   -2.6680 C.ar   80  TRP80       0.0946
     82  CD2        6.5270  -15.9560   -0.9440 C.ar   80  TRP80       0.0152
     83  NE1        4.7990  -15.9540   -2.3720 N.ar   80  TRP80      -0.2442
     84  CE2        5.3510  -15.2720   -1.3190 C.ar   80  TRP80       0.0810
     85  CE3        7.2890  -15.4580    0.1200 C.ar   80  TRP80       0.0012
     86  CZ2        4.9190  -14.1160   -0.6670 C.ar   80  TRP80       0.0191
     87  CZ3        6.8580  -14.3070    0.7680 C.ar   80  TRP80       0.0001
     88  CH2        5.6830  -13.6500    0.3700 C.ar   80  TRP80       0.0015
     89  N         10.5150  -21.4670    3.5250 N.3    83  GLU83      -0.1245
     90  CA         9.5020  -21.2530    4.5510 C.3    83  GLU83       0.1567
     91  C          9.9210  -21.7720    5.9180 C.2    83  GLU83       0.2260
     92  O         10.4490  -22.8790    6.0370 O.2    83  GLU83      -0.2867
     93  CB         8.1940  -21.9600    4.1800 C.3    83  GLU83       0.0388
     94  CG         7.2510  -21.2010    3.2720 C.3    83  GLU83       0.1160
     95  CD         5.9130  -21.9090    3.1480 C.2    83  GLU83       0.3649
     96  OE1        4.9640  -21.3410    2.5650 O.co2  83  GLU83      -0.2457
     97  OE2        5.8100  -23.0470    3.6450 O.co2  83  GLU83      -0.2457
@<TRIPOS>BOND
     1    75    76    1
     2    81    83   ar
     3    81    80   ar
     4    78    77    2
     5    76    77    1
     6    76    79    1
     7    83    84   ar
     8    79    80    1
     9    80    82   ar
    10    84    82   ar
    11    84    86   ar
    12    82    85   ar
    13     7     6    2
    14     4     3    2
    15    86    88   ar
    16     5     6    1
    17     5     2    1
    18     6     8   am
    19    85    87   ar
    20     3     2    1
    21     3     9   am
    22    88    87   ar
    23    15     9    1
    24    15    14    1
    25     2     1    1
    26     9    10    1
    27    14    13    1
    28    74    72   am
    29    13    10    1
    30    23    21   am
    31    10    11    1
    32    73    72    2
    33    72    71    1
    34    96    95   ar
    35    49    47    1
    36    32    33   ar
    37    32    30   ar
    38    95    94    1
    39    95    97   ar
    40    33    31   ar
    41    94    93    1
    42    30    29   ar
    43    16    11   am
    44    16    17    1
    45    71    68    1
    46    21    20    1
    47    21    22    2
    48    89    90    1
    49    11    12    2
    50    48    47    1
    51    31    29   ar
    52    29    28    1
    53    47    46    2
    54    69    68    1
    55    69    70    2
    56    20    17    1
    57    28    25    1
    58    19    18    2
    59    58    56   ar
    60    93    90    1
    61    17    18    1
    62    68    67    1
    63    90    91    1
    64    46    45    1
    65    56    57   ar
    66    56    55    1
    67    25    24    1
    68    25    26    1
    69    45    44    1
    70    65    63    1
    71    91    92    2
    72    38    35    1
    73    55    54    1
    74    26    27    2
    75    44    43    1
    76    64    63    1
    77    64    66    1
    78    63    60    1
    79    35    34    1
    80    35    36    1
    81    43    40    1
    82    54    51    1
    83    61    62    2
    84    61    60    1
    85    60    59    1
    86    36    37    2
    87    40    39    1
    88    40    41    1
    89    50    51    1
    90    51    52    1
    91    41    42    2
    92    52    53    2
