@<TRIPOS>MOLECULE
tmp/3m3qA00.pdb
 100 94 0 0 0
SMALL
GASTEIGER

@<TRIPOS>ATOM
      1  N        -13.2200    4.2890  -20.8110 N.3    43  PRO43      -0.2102
      2  CA       -13.5060    3.0830  -20.0320 C.3    43  PRO43       0.1504
      3  C        -13.7210    3.3570  -18.5510 C.2    43  PRO43       0.2575
      4  O        -14.3380    2.5540  -17.8510 O.2    43  PRO43      -0.2718
      5  CB       -12.2620    2.2390  -20.2630 C.3    43  PRO43       0.0282
      6  CG       -11.1820    3.2830  -20.2330 C.3    43  PRO43       0.0208
      7  CD       -11.7820    4.3590  -21.1360 C.3    43  PRO43       0.0893
      8  N        -13.2040    4.4870  -18.0740 N.am   44  ASN44      -0.1975
      9  CA       -13.3200    4.8500  -16.6650 C.3    44  ASN44       0.1688
     10  C        -14.6680    5.4630  -16.2770 C.2    44  ASN44       0.2292
     11  O        -15.2780    6.2060  -17.0470 O.2    44  ASN44      -0.2864
     12  CB       -12.2130    5.8450  -16.2840 C.3    44  ASN44       0.1181
     13  CG       -10.8310    5.3680  -16.6920 C.2    44  ASN44       0.2629
     14  OD1      -10.4780    4.2100  -16.4710 O.2    44  ASN44      -0.2716
     15  ND2      -10.0370    6.2660  -17.2790 N.am   44  ASN44      -0.0877
     16  N         -2.7540    8.8290  -10.8940 N.3    60  HIS60      -0.1241
     17  CA        -3.9970    8.6920  -11.6310 C.3    60  HIS60       0.1621
     18  C         -4.7470    7.5380  -10.9650 C.2    60  HIS60       0.2264
     19  O         -4.2440    6.4160  -10.9120 O.2    60  HIS60      -0.2867
     20  CB        -3.7000    8.3580  -13.1000 C.3    60  HIS60       0.0745
     21  CG        -4.9180    8.0900  -13.9280 C.ar   60  HIS60       0.0817
     22  ND1       -5.8440    9.0650  -14.2360 N.ar   60  HIS60      -0.2268
     23  CD2       -5.3530    6.9570  -14.5310 C.ar   60  HIS60       0.1154
     24  CE1       -6.7940    8.5460  -14.9950 C.ar   60  HIS60       0.1986
     25  NE2       -6.5200    7.2680  -15.1890 N.ar   60  HIS60      -0.2212
     26  N         -8.1460    5.5010  -11.2650 N.3    62  ALA62      -0.1245
     27  CA        -9.3040    5.2430  -12.1080 C.3    62  ALA62       0.1562
     28  C        -10.1930    4.0970  -11.6230 C.2    62  ALA62       0.2260
     29  O         -9.7280    2.9700  -11.4490 O.2    62  ALA62      -0.2867
     30  CB        -8.8420    4.9700  -13.5420 C.3    62  ALA62       0.0290
     31  N        -13.0060    1.6250  -12.5530 N.3    64  ARG64      -0.1245
     32  CA       -13.5630    1.0670  -13.7790 C.3    64  ARG64       0.1563
     33  C        -14.5110   -0.0860  -13.4340 C.2    64  ARG64       0.2260
     34  O        -14.0820   -1.2270  -13.2600 O.2    64  ARG64      -0.2867
     35  CB       -12.3950    0.5930  -14.6640 C.3    64  ARG64       0.0307
     36  CG       -12.6830    0.5550  -16.1560 C.3    64  ARG64       0.0489
     37  CD       -11.4190    0.2620  -16.9600 C.3    64  ARG64       0.2205
     38  NE       -10.4540    1.3630  -16.9390 N.pl3  64  ARG64      -0.0865
     39  CZ        -9.2880    1.3470  -17.5810 C.cat  64  ARG64       0.5346
     40  NH1       -8.9340    0.2840  -18.2950 N.pl3  64  ARG64       0.1354
     41  NH2       -8.4790    2.3980  -17.5240 N.pl3  64  ARG64       0.1354
     42  N        -14.6960   -3.4400  -15.5380 N.3    67  GLU67      -0.1245
     43  CA       -13.5410   -4.3200  -15.3810 C.3    67  GLU67       0.1567
     44  C        -13.4010   -4.6900  -13.9100 C.2    67  GLU67       0.2260
     45  O        -12.5160   -5.4610  -13.5300 O.2    67  GLU67      -0.2867
     46  CB       -12.2610   -3.6320  -15.8860 C.3    67  GLU67       0.0388
     47  CG       -12.1210   -3.6230  -17.4060 C.3    67  GLU67       0.1160
     48  CD       -10.8920   -2.8620  -17.8960 C.2    67  GLU67       0.3649
     49  OE1       -9.7740   -3.1270  -17.3960 O.co2  67  GLU67      -0.2457
     50  OE2      -11.0450   -2.0020  -18.7920 O.co2  67  GLU67      -0.2457
     51  N         -7.6730    1.3780  -10.9160 N.3    71  ILE71      -0.1245
     52  CA        -6.3480    1.4710  -11.5150 C.3    71  ILE71       0.1561
     53  C         -5.5610    2.6910  -11.0410 C.2    71  ILE71       0.2260
     54  O         -6.0870    3.8080  -10.9880 O.2    71  ILE71      -0.2867
     55  CB        -6.4550    1.5170  -13.0480 C.3    71  ILE71       0.0252
     56  CG1       -7.1440    0.2440  -13.5530 C.3    71  ILE71       0.0019
     57  CG2       -5.0710    1.6670  -13.6730 C.3    71  ILE71       0.0019
     58  CD1       -7.5400    0.3030  -15.0160 C.3    71  ILE71       0.0001
     59  N         -1.9110    4.7560  -11.7220 N.3    73  ASN73      -0.1240
     60  CA        -0.8400    4.8880  -12.7090 C.3    73  ASN73       0.1653
     61  C         -0.3030    6.3130  -12.6900 C.2    73  ASN73       0.2266
     62  O         -0.7000    7.1290  -11.8520 O.2    73  ASN73      -0.2867
     63  CB        -1.3750    4.5660  -14.1130 C.3    73  ASN73       0.1155
     64  CG        -0.2930    4.0240  -15.0620 C.2    73  ASN73       0.2627
     65  OD1        0.9010    4.1730  -14.8160 O.2    73  ASN73      -0.2716
     66  ND2       -0.7240    3.4000  -16.1570 N.am   73  ASN73      -0.0877
     67  N          1.0010    6.1440  -20.8610 N.3    81  TRP81      -0.1241
     68  CA         0.6120    5.7680  -19.5150 C.3    81  TRP81       0.1605
     69  C          1.6690    4.7570  -19.0810 C.2    81  TRP81       0.2264
     70  O          2.0470    3.8820  -19.8630 O.2    81  TRP81      -0.2867
     71  CB        -0.7730    5.1140  -19.5160 C.3    81  TRP81       0.0550
     72  CG        -1.8730    6.1080  -19.6330 C.ar   81  TRP81       0.0003
     73  CD1       -2.6600    6.3460  -20.7250 C.ar   81  TRP81       0.0946
     74  CD2       -2.2910    7.0340  -18.6250 C.ar   81  TRP81       0.0152
     75  NE1       -3.5450    7.3690  -20.4550 N.ar   81  TRP81      -0.2442
     76  CE2       -3.3380    7.8080  -19.1740 C.ar   81  TRP81       0.0810
     77  CE3       -1.8800    7.2870  -17.3070 C.ar   81  TRP81       0.0012
     78  CZ2       -3.9820    8.8160  -18.4530 C.ar   81  TRP81       0.0191
     79  CZ3       -2.5260    8.2970  -16.5870 C.ar   81  TRP81       0.0001
     80  CH2       -3.5630    9.0450  -17.1650 C.ar   81  TRP81       0.0015
     81  N          0.4610    0.1490  -14.8390 N.3    84  GLU84      -0.1245
     82  CA        -0.7400    0.1600  -14.0050 C.3    84  GLU84       0.1567
     83  C         -0.5960   -0.7710  -12.8060 C.2    84  GLU84       0.2260
     84  O          0.0630   -1.8020  -12.8850 O.2    84  GLU84      -0.2867
     85  CB        -1.9850   -0.2970  -14.7980 C.3    84  GLU84       0.0388
     86  CG        -2.3750    0.5230  -16.0380 C.3    84  GLU84       0.1160
     87  CD        -3.7460    0.1100  -16.6160 C.2    84  GLU84       0.3649
     88  OE1       -4.0980   -1.0900  -16.5360 O.co2  84  GLU84      -0.2457
     89  OE2       -4.4690    0.9810  -17.1600 O.co2  84  GLU84      -0.2457
     90  N         -3.2240   -2.6110  -10.4300 N.3    86  ARG86      -0.1245
     91  CA        -4.6580   -2.8750  -10.3390 C.3    86  ARG86       0.1563
     92  C         -5.1680   -3.5230   -9.0640 C.2    86  ARG86       0.2260
     93  O         -4.6570   -4.5560   -8.6310 O.2    86  ARG86      -0.2867
     94  CB        -5.0930   -3.7560  -11.5090 C.3    86  ARG86       0.0307
     95  CG        -4.7860   -3.1820  -12.8740 C.3    86  ARG86       0.0489
     96  CD        -5.3080   -4.0900  -13.9790 C.3    86  ARG86       0.2205
     97  NE        -5.4830   -3.3380  -15.2120 N.pl3  86  ARG86      -0.0865
     98  CZ        -6.6380   -3.2160  -15.8570 C.cat  86  ARG86       0.5346
     99  NH1       -7.7330   -3.8090  -15.3920 N.pl3  86  ARG86       0.1354
    100  NH2       -6.6990   -2.4840  -16.9590 N.pl3  86  ARG86       0.1354
@<TRIPOS>BOND
     1     7     1    1
     2     7     6    1
     3    67    68    1
     4     1     2    1
     5    73    75   ar
     6    73    72   ar
     7    75    76   ar
     8     5     6    1
     9     5     2    1
    10     2     3    1
    11    70    69    2
    12    72    71    1
    13    72    74   ar
    14    71    68    1
    15    68    69    1
    16    76    74   ar
    17    76    78   ar
    18    50    48   ar
    19    74    77   ar
    20     3     8   am
    21     3     4    2
    22    78    80   ar
    23    40    39    1
    24     8     9    1
    25    48    47    1
    26    48    49   ar
    27    39    41    1
    28    39    38    2
    29    47    46    1
    30    77    79   ar
    31    15    13   am
    32    80    79   ar
    33    89    87   ar
    34    11    10    2
    35    37    38    1
    36    37    36    1
    37   100    98    1
    38    13    14    2
    39    13    12    1
    40     9    12    1
    41     9    10    1
    42    87    88   ar
    43    87    86    1
    44    66    64   am
    45    36    35    1
    46    86    85    1
    47    46    43    1
    48    98    99    1
    49    98    97    2
    50    42    43    1
    51    43    44    1
    52    97    96    1
    53    25    24   ar
    54    25    23   ar
    55    64    65    2
    56    64    63    1
    57    58    56    1
    58    24    22   ar
    59    81    82    1
    60    85    82    1
    61    35    32    1
    62    23    21   ar
    63    22    21   ar
    64    63    60    1
    65    82    83    1
    66    96    95    1
    67    21    20    1
    68    44    45    2
    69    32    33    1
    70    32    31    1
    71    57    55    1
    72    56    55    1
    73    30    27    1
    74    33    34    2
    75    20    17    1
    76    55    52    1
    77    84    83    2
    78    95    94    1
    79    60    61    1
    80    60    59    1
    81    61    62    2
    82    27    28    1
    83    27    26    1
    84    17    18    1
    85    17    16    1
    86    28    29    2
    87    52    53    1
    88    52    51    1
    89    94    91    1
    90    53    54    2
    91    18    19    2
    92    90    91    1
    93    91    92    1
    94    92    93    2
