@<TRIPOS>MOLECULE
tmp/3m3xA00.pdb
 133 130 0 0 0
SMALL
GASTEIGER

@<TRIPOS>ATOM
      1  N        -12.4280    6.1950   11.1940 N.3    90  GLN90      -0.1245
      2  CA       -12.1570    5.0380   10.2810 C.3    90  GLN90       0.1566
      3  C        -12.3970    3.7810   11.0670 C.2    90  GLN90       0.2260
      4  O        -12.5040    3.8390   12.2600 O.2    90  GLN90      -0.2867
      5  CB       -10.7120    5.0120    9.7380 C.3    90  GLN90       0.0367
      6  CG        -9.6120    5.1930   10.8120 C.3    90  GLN90       0.0905
      7  CD        -8.9030    3.9040   11.2370 C.2    90  GLN90       0.2608
      8  OE1       -9.4600    2.8150   11.1380 O.2    90  GLN90      -0.2717
      9  NE2       -7.7100    4.0650   11.7970 N.am   90  GLN90      -0.0878
     10  N        -11.0440   -0.5060   10.8240 N.3    92  HIS92      -0.1241
     11  CA       -10.1400   -1.4350   10.2190 C.3    92  HIS92       0.1621
     12  C        -10.2400   -2.7370   11.0620 C.2    92  HIS92       0.2264
     13  O        -10.9270   -2.7790   12.1010 O.2    92  HIS92      -0.2867
     14  CB        -8.6770   -0.9500   10.1700 C.3    92  HIS92       0.0745
     15  CG        -8.1450   -0.6800   11.5420 C.ar   92  HIS92       0.0817
     16  ND1       -8.3070    0.5530   12.1590 N.ar   92  HIS92      -0.2268
     17  CD2       -7.6130   -1.5000   12.4560 C.ar   92  HIS92       0.1154
     18  CE1       -7.8250    0.4680   13.4030 C.ar   92  HIS92       0.1986
     19  NE2       -7.3710   -0.7660   13.6010 N.ar   92  HIS92      -0.2212
     20  N         -7.8860   -6.4920   12.3540 N.3    94  HIS94      -0.1241
     21  CA        -6.7040   -7.2910   12.5710 C.3    94  HIS94       0.1621
     22  C         -7.0770   -8.7490   12.4560 C.2    94  HIS94       0.2264
     23  O         -8.1550   -9.1080   12.9750 O.2    94  HIS94      -0.2867
     24  CB        -6.0770   -7.0440   13.9820 C.3    94  HIS94       0.0745
     25  CG        -5.7790   -5.5980   14.2550 C.ar   94  HIS94       0.0817
     26  ND1       -4.5170   -5.0500   14.0870 N.ar   94  HIS94      -0.2268
     27  CD2       -6.6040   -4.5710   14.6070 C.ar   94  HIS94       0.1154
     28  CE1       -4.5620   -3.7640   14.4520 C.ar   94  HIS94       0.1986
     29  NE2       -5.8280   -3.4400   14.6930 N.ar   94  HIS94      -0.2212
     30  N        -11.8810   -2.6350   14.7950 N.3   117  HIS117     -0.1241
     31  CA       -11.6100   -1.4340   15.5470 C.3   117  HIS117      0.1621
     32  C        -12.3060   -0.2470   14.8830 C.2   117  HIS117      0.2264
     33  O        -11.9530    0.0440   13.7340 O.2   117  HIS117     -0.2867
     34  CB       -10.0930   -1.1960   15.6140 C.3   117  HIS117      0.0745
     35  CG        -9.4450   -2.1690   16.5690 C.ar  117  HIS117      0.0817
     36  ND1       -8.0920   -2.4830   16.5540 N.ar  117  HIS117     -0.2268
     37  CD2      -10.0100   -2.9310   17.5330 C.ar  117  HIS117      0.1154
     38  CE1       -7.8440   -3.3790   17.4980 C.ar  117  HIS117      0.1986
     39  NE2       -9.0050   -3.6970   18.0830 N.ar  117  HIS117     -0.2212
     40  N        -12.6060    3.5450   15.1270 N.3   119  VAL119     -0.1245
     41  CA       -11.7830    4.5470   15.8030 C.3   119  VAL119      0.1561
     42  C        -12.4950    5.8900   15.8320 C.2   119  VAL119      0.2260
     43  O        -12.8820    6.3850   14.7550 O.2   119  VAL119     -0.2867
     44  CB       -10.4420    4.6940   15.0030 C.3   119  VAL119      0.0252
     45  CG1       -9.4490    5.6680   15.6990 C.3   119  VAL119      0.0019
     46  CG2       -9.7700    3.3240   14.7830 C.3   119  VAL119      0.0019
     47  N         -8.3750   14.6740   14.6350 N.3   128  PHE128     -0.1227
     48  CA        -7.6640   13.4450   14.9630 C.3   128  PHE128      0.1736
     49  C         -6.2310   13.6980   15.3450 C.2   128  PHE128      0.2596
     50  O         -5.7200   13.1200   16.3450 O.2   128  PHE128     -0.2718
     51  CB        -7.8000   12.3960   13.8470 C.3   128  PHE128      0.0547
     52  CG        -7.1110   11.1130   14.1260 C.ar  128  PHE128     -0.0202
     53  CD1       -7.7670   10.0650   14.8900 C.ar  128  PHE128     -0.0042
     54  CD2       -5.7960   10.9150   13.7100 C.ar  128  PHE128     -0.0042
     55  CE1       -7.1110    8.8890   15.1460 C.ar  128  PHE128     -0.0003
     56  CE2       -5.1610    9.6900   13.9520 C.ar  128  PHE128     -0.0003
     57  CZ        -5.8380    8.7080   14.7050 C.ar  128  PHE128     -0.0000
     58  N         -5.5070   14.4840   14.5320 N.am  129  GLY129     -0.1957
     59  CA        -4.1010   14.6390   14.8510 C.3   129  GLY129      0.1869
     60  C         -3.8040   15.2460   16.2170 C.2   129  GLY129      0.2309
     61  O         -2.7770   14.9330   16.8380 O.2   129  GLY129     -0.2863
     62  N         -4.8330   12.4970   19.2420 N.3   132  VAL132     -0.1245
     63  CA        -3.8700   11.4050   19.6130 C.3   132  VAL132      0.1561
     64  C         -2.7620   11.8390   20.5870 C.2   132  VAL132      0.2260
     65  O         -2.1070   11.0160   21.1710 O.2   132  VAL132     -0.2867
     66  CB        -3.2950   10.6420   18.3500 C.3   132  VAL132      0.0252
     67  CG1       -4.4330   10.1200   17.5190 C.3   132  VAL132      0.0019
     68  CG2       -2.3180   11.5480   17.5650 C.3   132  VAL132      0.0019
     69  N        -11.8370    3.7510   21.1380 N.3   140  VAL140     -0.1245
     70  CA       -11.8880    2.7880   20.0510 C.3   140  VAL140      0.1561
     71  C        -12.8460    1.6750   20.4920 C.2   140  VAL140      0.2260
     72  O        -12.7080    1.1270   21.6040 O.2   140  VAL140     -0.2867
     73  CB       -10.5240    2.1450   19.7230 C.3   140  VAL140      0.0252
     74  CG1      -10.6360    1.0610   18.5540 C.3   140  VAL140      0.0019
     75  CG2       -9.5240    3.2160   19.3500 C.3   140  VAL140      0.0019
     76  N         -3.0060    3.1290   21.1620 N.3   195  LEU195     -0.1231
     77  CA        -3.0210    2.5530   19.7730 C.3   195  LEU195      0.1693
     78  C         -2.2240    1.2300   19.8300 C.2   195  LEU195      0.2593
     79  O         -1.1750    1.0830   20.5690 O.2   195  LEU195     -0.2718
     80  CB        -2.3830    3.5500   18.8230 C.3   195  LEU195      0.0284
     81  CG        -3.0090    4.9370   18.7140 C.3   195  LEU195      0.0019
     82  CD1       -2.1790    5.7810   17.7090 C.3   195  LEU195      0.0001
     83  CD2       -4.3820    4.8360   18.2050 C.3   195  LEU195      0.0001
     84  N         -2.7200    0.2660   19.0700 N.am  196  THR196     -0.1939
     85  CA        -1.9910   -1.0290   19.0190 C.3   196  THR196      0.2028
     86  C         -0.9470   -1.0890   17.8740 C.2   196  THR196      0.2643
     87  O         -0.3630   -2.1500   17.6620 O.2   196  THR196     -0.2714
     88  CB        -3.0080   -2.1670   18.8580 C.3   196  THR196      0.1808
     89  OG1       -3.6230   -2.1290   17.5860 O.3   196  THR196     -0.2208
     90  CG2       -3.9850   -2.1800   19.9920 C.3   196  THR196      0.0379
     91  N         -0.8730   -0.0450   17.0470 N.am  197  THR197     -0.1937
     92  CA         0.2090    0.0710   16.0240 C.3   197  THR197      0.2013
     93  C          1.0500    1.2840   16.3730 C.2   197  THR197      0.2484
     94  O          0.5330    2.2710   16.9350 O.2   197  THR197     -0.2729
     95  CB        -0.3720    0.2750   14.6270 C.3   197  THR197      0.1807
     96  OG1       -1.3020    1.3940   14.6320 O.3   197  THR197     -0.2208
     97  CG2       -1.1670   -1.0260   14.1990 C.3   197  THR197      0.0379
     98  N          2.3170    1.2620   15.9220 N.am  198  PRO198     -0.2715
     99  CA         3.0690    2.5230   15.9550 C.3   198  PRO198      0.1521
    100  C          2.2010    3.7110   15.3880 C.2   198  PRO198      0.2440
    101  O          1.5030    3.5760   14.3110 O.2   198  PRO198     -0.2731
    102  CB         4.3150    2.1790   15.0590 C.3   198  PRO198      0.0310
    103  CG         4.5550    0.6920   15.2840 C.3   198  PRO198      0.0237
    104  CD         3.0680    0.1260   15.3010 C.3   198  PRO198      0.0939
    105  N          2.2590    4.9030   16.0650 N.am  199  PRO199     -0.2727
    106  CA         3.1560    5.3070   17.1740 C.3   199  PRO199      0.1402
    107  C          2.8470    4.8540   18.6070 C.2   199  PRO199      0.2269
    108  O          3.4990    5.2730   19.6110 O.2   199  PRO199     -0.2865
    109  CB         3.1570    6.8460   17.0620 C.3   199  PRO199      0.0296
    110  CG         1.7320    7.1640   16.5910 C.3   199  PRO199      0.0237
    111  CD         1.4700    6.0560   15.5510 C.3   199  PRO199      0.0939
    112  N          0.5920    5.4720   20.7450 N.3   201  LEU201     -0.1245
    113  CA         0.3100    6.5890   21.6940 C.3   201  LEU201      0.1561
    114  C         -0.7130    6.1500   22.7410 C.2   201  LEU201      0.2260
    115  O         -1.6940    5.4230   22.3940 O.2   201  LEU201     -0.2867
    116  CB        -0.1470    7.8320   20.9050 C.3   201  LEU201      0.0270
    117  CG         0.9270    8.3820   19.9480 C.3   201  LEU201      0.0019
    118  CD1        0.3130    9.4420   18.9960 C.3   201  LEU201      0.0001
    119  CD2        2.0750    8.9530   20.8280 C.3   201  LEU201      0.0001
    120  N        -10.4450    2.2490   25.6860 N.3   206  TRP206     -0.1241
    121  CA       -10.8830    1.0420   24.9450 C.3   206  TRP206      0.1605
    122  C        -12.2790    0.5950   25.4340 C.2   206  TRP206      0.2264
    123  O        -12.5190    0.5600   26.6510 O.2   206  TRP206     -0.2867
    124  CB        -9.8710   -0.1160   25.1900 C.3   206  TRP206      0.0550
    125  CG        -8.7710    0.0220   24.2110 C.ar  206  TRP206      0.0003
    126  CD1       -7.4730    0.6030   24.3940 C.ar  206  TRP206      0.0946
    127  CD2       -8.8210   -0.4130   22.8410 C.ar  206  TRP206      0.0152
    128  NE1       -6.7920    0.5760   23.1870 N.ar  206  TRP206     -0.2442
    129  CE2       -7.5370   -0.0810   22.2390 C.ar  206  TRP206      0.0810
    130  CE3       -9.8170   -1.0270   22.0380 C.ar  206  TRP206      0.0012
    131  CZ2       -7.2570   -0.2590   20.8830 C.ar  206  TRP206      0.0191
    132  CZ3       -9.5010   -1.3240   20.6710 C.ar  206  TRP206      0.0001
    133  CH2       -8.2120   -0.9320   20.0860 C.ar  206  TRP206      0.0015
@<TRIPOS>BOND
     1     5     2    1
     2     5     6    1
     3    14    11    1
     4    14    15    1
     5    11    10    1
     6    11    12    1
     7     2     3    1
     8     2     1    1
     9     6     7    1
    10    12    13    2
    11     3     4    2
    12     8     7    2
    13     7     9   am
    14    15    16   ar
    15    15    17   ar
    16    16    18   ar
    17    20    21    1
    18    17    19   ar
    19    22    21    1
    20    22    23    2
    21    21    24    1
    22    18    19   ar
    23    54    56   ar
    24    54    52   ar
    25    33    32    2
    26    51    52    1
    27    51    48    1
    28    56    57   ar
    29    24    25    1
    30    26    25   ar
    31    26    28   ar
    32    52    53   ar
    33    97    95    1
    34    25    27   ar
    35   101   100    2
    36    28    29   ar
    37    58    59    1
    38    58    49   am
    39    27    29   ar
    40    95    96    1
    41    95    92    1
    42    47    48    1
    43    57    55   ar
    44    43    42    2
    45    46    44    1
    46    30    31    1
    47    59    60    1
    48    32    31    1
    49    53    55   ar
    50    48    49    1
    51    44    45    1
    52    44    41    1
    53   102   103    1
    54   102    99    1
    55    40    41    1
    56   103   104    1
    57   104    98    1
    58    49    50    2
    59   100    99    1
    60   100   105   am
    61    31    34    1
    62   111   105    1
    63   111   110    1
    64    34    35    1
    65    41    42    1
    66    98    99    1
    67    98    93   am
    68    92    93    1
    69    92    91    1
    70   105   106    1
    71    60    61    2
    72    93    94    2
    73    36    35   ar
    74    36    38   ar
    75    35    37   ar
    76   110   109    1
    77    91    86   am
    78   109   106    1
    79   106   107    1
    80    38    39   ar
    81    67    66    1
    82    37    39   ar
    83    68    66    1
    84    89    88    1
    85    87    86    2
    86    82    81    1
    87    86    85    1
    88    83    81    1
    89    66    63    1
    90    74    73    1
    91   107   108    2
    92    81    80    1
    93    80    77    1
    94    88    85    1
    95    88    90    1
    96   118   117    1
    97    85    84    1
    98    84    78   am
    99    62    63    1
   100    75    73    1
   101    63    64    1
   102    73    70    1
   103    77    78    1
   104    77    76    1
   105    78    79    2
   106   117   119    1
   107   117   116    1
   108    70    71    1
   109    70    69    1
   110   133   132   ar
   111   133   131   ar
   112    71    72    2
   113    64    65    2
   114   132   130   ar
   115   112   113    1
   116   131   129   ar
   117   116   113    1
   118   113   114    1
   119   130   127   ar
   120   129   127   ar
   121   129   128   ar
   122   115   114    2
   123   127   125   ar
   124   128   126   ar
   125   125   126   ar
   126   125   124    1
   127   121   124    1
   128   121   122    1
   129   121   120    1
   130   122   123    2
