@<TRIPOS>MOLECULE
tmp/3m3zA00.pdb
 120 110 0 0 0
SMALL
GASTEIGER

@<TRIPOS>ATOM
      1  N         15.1570    4.6240    9.3870 N.3    11  TYR11      -0.1241
      2  CA        16.5210    5.1200    9.2420 C.3    11  TYR11       0.1605
      3  C         16.6080    6.6120    8.9000 C.2    11  TYR11       0.2264
      4  O         15.7660    7.1040    8.1390 O.2    11  TYR11      -0.2867
      5  CB        17.2340    4.3390    8.1350 C.3    11  TYR11       0.0534
      6  CG        17.5720    2.9510    8.5680 C.ar   11  TYR11      -0.0201
      7  CD1       18.8070    2.6890    9.1540 C.ar   11  TYR11      -0.0009
      8  CD2       16.6600    1.8820    8.3770 C.ar   11  TYR11      -0.0009
      9  CE1       19.1400    1.4050    9.5810 C.ar   11  TYR11       0.0417
     10  CE2       17.0000    0.5690    8.8030 C.ar   11  TYR11       0.0417
     11  CZ        18.2560    0.3790    9.4020 C.ar   11  TYR11       0.1957
     12  OH        18.6700   -0.8470    9.8220 O.3    11  TYR11      -0.2866
     13  N         23.7090    5.1750    7.1020 N.3    33  THR33      -0.1218
     14  CA        22.4350    5.4930    7.7170 C.3    33  THR33       0.1862
     15  C         22.4210    5.1490    9.2180 C.2    33  THR33       0.2287
     16  O         23.2190    4.3370    9.6860 O.2    33  THR33      -0.2866
     17  CB        21.2650    4.8370    7.0160 C.3    33  THR33       0.1770
     18  OG1       21.2850    3.4330    7.2900 O.3    33  THR33      -0.2211
     19  CG2       21.3510    5.0930    5.5190 C.3    33  THR33       0.0375
     20  N         10.8070    1.4150    0.5480 N.3   197  GLY197     -0.1210
     21  CA        11.8540    1.1050    1.5120 C.3   197  GLY197      0.1956
     22  C         11.6100   -0.2230    2.2390 C.2   197  GLY197      0.2612
     23  O         11.1780   -1.2080    1.6500 O.2   197  GLY197     -0.2717
     24  N         11.9230   -0.2370    3.5230 N.am  198  GLY198     -0.1956
     25  CA        11.7910   -1.4340    4.3380 C.3   198  GLY198      0.1869
     26  C         10.3780   -1.6600    4.8070 C.2   198  GLY198      0.2309
     27  O          9.9290   -2.7940    4.9610 O.2   198  GLY198     -0.2863
     28  N         10.0690   -3.8890    1.9240 N.3   226  GLY226     -0.1210
     29  CA        11.0500   -4.9750    1.9510 C.3   226  GLY226      0.1956
     30  C         10.7750   -6.0430    2.9890 C.2   226  GLY226      0.2611
     31  O         11.0460   -7.1980    2.7240 O.2   226  GLY226     -0.2717
     32  N         10.2180   -5.6890    4.1510 N.am  227  GLU227     -0.1979
     33  CA         9.8420   -6.6780    5.1530 C.3   227  GLU227      0.1602
     34  C          8.8510   -7.6650    4.5940 C.2   227  GLU227      0.2287
     35  O          8.8430   -8.8480    5.0170 O.2   227  GLU227     -0.2864
     36  CB         9.1230   -6.0550    6.3600 C.3   227  GLU227      0.0415
     37  CG         9.9090   -5.0460    7.1600 C.3   227  GLU227      0.1163
     38  CD        11.0800   -5.6820    7.8000 C.2   227  GLU227      0.3649
     39  OE1       10.8950   -6.7090    8.5240 O.co2 227  GLU227     -0.2457
     40  OE2       12.1940   -5.1760    7.5290 O.co2 227  GLU227     -0.2457
     41  N         10.5400  -10.3010    2.6920 N.3   230  ASP230     -0.1239
     42  CA        11.2690  -11.2060    3.6230 C.3   230  ASP230      0.1674
     43  C         10.3760  -12.3230    4.1560 C.2   230  ASP230      0.2266
     44  O         10.8000  -13.4480    4.2070 O.2   230  ASP230     -0.2867
     45  CB        11.9410  -10.4210    4.7710 C.3   230  ASP230      0.1410
     46  CG        12.9490   -9.3680    4.2760 C.2   230  ASP230      0.3668
     47  OD1       13.3900   -9.4280    3.0880 O.co2 230  ASP230     -0.2456
     48  OD2       13.3210   -8.4730    5.0950 O.co2 230  ASP230     -0.2456
     49  N         16.5290  -11.9700    4.4340 N.3   264  GLU264     -0.1245
     50  CA        16.7450  -10.5710    4.0720 C.3   264  GLU264      0.1567
     51  C         18.1160  -10.3850    3.3650 C.2   264  GLU264      0.2260
     52  O         18.2610   -9.5930    2.3760 O.2   264  GLU264     -0.2867
     53  CB        16.6000   -9.7310    5.3600 C.3   264  GLU264      0.0388
     54  CG        16.5070   -8.2070    5.1900 C.3   264  GLU264      0.1160
     55  CD        17.8090   -7.5260    4.8620 C.2   264  GLU264      0.3649
     56  OE1       17.7640   -6.4720    4.2010 O.co2 264  GLU264     -0.2457
     57  OE2       18.8810   -8.0410    5.2290 O.co2 264  GLU264     -0.2457
     58  N         17.9570  -11.9910   -0.1060 N.3   267  LYS267     -0.1231
     59  CA        17.2850  -11.0110   -0.9690 C.3   267  LYS267      0.1693
     60  C         18.1950   -9.9370   -1.5340 C.2   267  LYS267      0.2591
     61  O         18.0540   -9.5540   -2.7200 O.2   267  LYS267     -0.2718
     62  CB        16.1250  -10.3670   -0.2520 C.3   267  LYS267      0.0285
     63  CG        15.5610   -9.0890   -0.9100 C.3   267  LYS267      0.0035
     64  CD        14.5770   -8.4730    0.0810 C.3   267  LYS267      0.0206
     65  CE        15.3220   -7.6420    1.1750 C.3   267  LYS267      0.1093
     66  NZ        14.2250   -6.8350    1.8820 N.3   267  LYS267     -0.1314
     67  N         19.0880   -9.4150   -0.7090 N.am  268  ARG268     -0.1980
     68  CA        20.0280   -8.3860   -1.1350 C.3   268  ARG268      0.1597
     69  C         20.9710   -8.9060   -2.2010 C.2   268  ARG268      0.2287
     70  O         21.1270   -8.2650   -3.2340 O.2   268  ARG268     -0.2864
     71  CB        20.8170   -7.8320    0.0400 C.3   268  ARG268      0.0334
     72  CG        19.9960   -6.9920    0.9160 C.3   268  ARG268      0.0492
     73  CD        20.8980   -6.0720    1.6780 C.3   268  ARG268      0.2205
     74  NE        20.2940   -5.6300    2.9270 N.pl3 268  ARG268     -0.0865
     75  CZ        20.8270   -4.6940    3.7000 C.cat 268  ARG268      0.5346
     76  NH1       21.9890   -4.1230    3.3520 N.pl3 268  ARG268      0.1354
     77  NH2       20.2310   -4.3400    4.8220 N.pl3 268  ARG268      0.1354
     78  N         19.7480   -9.0480   -5.7540 N.3   271  SER271     -0.1217
     79  CA        19.5490   -7.7990   -6.5090 C.3   271  SER271      0.1889
     80  C         20.7240   -7.6360   -7.4940 C.2   271  SER271      0.2288
     81  O         20.5930   -6.9420   -8.5210 O.2   271  SER271     -0.2866
     82  CB        19.3600   -6.5820   -5.5820 C.3   271  SER271      0.2089
     83  OG        18.1680   -6.6850   -4.7790 O.3   271  SER271     -0.2183
     84  N         15.6940    1.4120   -0.1910 N.3   335  GLY335     -0.1210
     85  CA        16.6040    0.3310   -0.5380 C.3   335  GLY335      0.1956
     86  C         15.9730   -0.8070   -1.2990 C.2   335  GLY335      0.2612
     87  O         16.6430   -1.4340   -2.0630 O.2   335  GLY335     -0.2717
     88  N         14.6720   -1.0490   -1.1220 N.am  336  SER336     -0.1952
     89  CA        13.9500   -2.0560   -1.8920 C.3   336  SER336      0.1924
     90  C         13.8370   -1.8060   -3.3850 C.2   336  SER336      0.2314
     91  O         13.5070   -2.7590   -4.1230 O.2   336  SER336     -0.2863
     92  CB        12.5620   -2.2280   -1.3450 C.3   336  SER336      0.2116
     93  OG        12.6430   -2.6680   -0.0230 O.3   336  SER336     -0.2180
     94  N         16.1010   -1.4450   -5.2710 N.3   338  ARG338     -0.1231
     95  CA        17.2380   -2.1940   -5.7900 C.3   338  ARG338      0.1694
     96  C         16.8690   -3.5070   -6.5130 C.2   338  ARG338      0.2591
     97  O         17.6860   -4.0370   -7.2570 O.2   338  ARG338     -0.2718
     98  CB        18.2620   -2.4240   -4.6870 C.3   338  ARG338      0.0321
     99  CG        19.1310   -1.1560   -4.3340 C.3   338  ARG338      0.0489
    100  CD        20.3210   -1.5380   -3.4280 C.3   338  ARG338      0.2205
    101  NE        21.1300   -0.3920   -2.9570 N.pl3 338  ARG338     -0.0865
    102  CZ        20.9190    0.2600   -1.8030 C.cat 338  ARG338      0.5346
    103  NH1       19.9450   -0.0980   -0.9830 N.pl3 338  ARG338      0.1354
    104  NH2       21.6880    1.2640   -1.4540 N.pl3 338  ARG338      0.1354
    105  N         15.6260   -3.9770   -6.3570 N.am  339  ILE339     -0.1980
    106  CA        15.1960   -5.2830   -6.8720 C.3   339  ILE339      0.1595
    107  C         14.9850   -5.1870   -8.4050 C.2   339  ILE339      0.2287
    108  O         14.1450   -4.3870   -8.8440 O.2   339  ILE339     -0.2864
    109  CB        13.8730   -5.7590   -6.1800 C.3   339  ILE339      0.0276
    110  CG1       14.0340   -5.8550   -4.6500 C.3   339  ILE339      0.0022
    111  CG2       13.3690   -7.0760   -6.8020 C.3   339  ILE339      0.0022
    112  CD1       12.7360   -6.2970   -3.9580 C.3   339  ILE339      0.0001
    113  N         18.8640    4.8090   -0.7970 N.3   362  ASP362     -0.1239
    114  CA        18.7470    5.0850    0.6500 C.3   362  ASP362      0.1674
    115  C         19.3540    6.4560    0.9780 C.2   362  ASP362      0.2266
    116  O         19.0550    7.0110    2.0100 O.2   362  ASP362     -0.2867
    117  CB        19.4780    3.9950    1.4840 C.3   362  ASP362      0.1410
    118  CG        18.8490    2.5610    1.3490 C.2   362  ASP362      0.3668
    119  OD1       17.6910    2.3250    1.7660 O.co2 362  ASP362     -0.2456
    120  OD2       19.5610    1.6490    0.8530 O.co2 362  ASP362     -0.2456
@<TRIPOS>BOND
     1   108   107    2
     2    81    80    2
     3   107   106    1
     4    80    79    1
     5    97    96    2
     6   106   105    1
     7   106   109    1
     8   111   109    1
     9    96   105   am
    10    96    95    1
    11    79    78    1
    12    79    82    1
    13   109   110    1
    14    95    94    1
    15    95    98    1
    16    82    83    1
    17    98    99    1
    18   110   112    1
    19    99   100    1
    20    91    90    2
    21   100   101    1
    22    90    89    1
    23    70    69    2
    24   101   102    2
    25    61    60    2
    26    69    68    1
    27    87    86    2
    28    89    92    1
    29    89    88    1
    30   102   104    1
    31   102   103    1
    32    60    59    1
    33    60    67   am
    34    92    93    1
    35    86    88   am
    36    86    85    1
    37    68    67    1
    38    68    71    1
    39    59    62    1
    40    59    58    1
    41    63    62    1
    42    63    64    1
    43   113   114    1
    44    85    84    1
    45    71    72    1
    46    64    65    1
    47    20    21    1
    48   114   115    1
    49   114   117    1
    50   120   118   ar
    51    72    73    1
    52   115   116    2
    53    65    66    1
    54   118   117    1
    55   118   119   ar
    56    21    22    1
    57    23    22    2
    58    73    74    1
    59    28    29    1
    60    29    30    1
    61    22    24   am
    62    52    51    2
    63    41    42    1
    64    31    30    2
    65    74    75    2
    66    30    32   am
    67    47    46   ar
    68    76    75    1
    69    51    50    1
    70    24    25    1
    71    42    43    1
    72    42    45    1
    73    75    77    1
    74    50    49    1
    75    50    53    1
    76    32    33    1
    77    43    44    2
    78    56    55   ar
    79    46    45    1
    80    46    48   ar
    81    25    26    1
    82    34    35    2
    83    34    33    1
    84    26    27    2
    85    55    54    1
    86    55    57   ar
    87    33    36    1
    88    54    53    1
    89    19    17    1
    90    36    37    1
    91    17    18    1
    92    17    14    1
    93    13    14    1
    94    37    38    1
    95    40    38   ar
    96    14    15    1
    97    38    39   ar
    98     5     6    1
    99     5     2    1
   100     4     3    2
   101     8     6   ar
   102     8    10   ar
   103     6     7   ar
   104    10    11   ar
   105     3     2    1
   106     7     9   ar
   107    15    16    2
   108     2     1    1
   109    11     9   ar
   110    11    12    1
