@<TRIPOS>MOLECULE
tmp/3m40A00.pdb
 137 134 0 0 0
SMALL
GASTEIGER

@<TRIPOS>ATOM
      1  N         -8.2850    0.3920    5.8500 N.3    65  ASN65      -0.1240
      2  CA        -9.1430    1.3330    6.6110 C.3    65  ASN65       0.1653
      3  C        -10.3390    1.7160    5.7810 C.2    65  ASN65       0.2266
      4  O        -10.1630    2.1460    4.6520 O.2    65  ASN65      -0.2867
      5  CB        -8.4560    2.6670    6.9580 C.3    65  ASN65       0.1155
      6  CG        -7.2430    2.5200    7.7930 C.2    65  ASN65       0.2627
      7  OD1       -6.3490    3.4270    7.8130 O.2    65  ASN65      -0.2716
      8  ND2       -7.1230    1.3770    8.4550 N.am   65  ASN65      -0.0877
      9  N        -13.9930    8.1480   12.7690 N.3    89  ILE89      -0.1231
     10  CA       -13.0920    8.6100   11.6870 C.3    89  ILE89       0.1692
     11  C        -12.7810    7.4560   10.7320 C.2    89  ILE89       0.2591
     12  O        -12.6810    7.6290    9.5060 O.2    89  ILE89      -0.2718
     13  CB       -11.7950    9.3280   12.2490 C.3    89  ILE89       0.0266
     14  CG1      -10.8950    9.6900   11.0760 C.3    89  ILE89       0.0019
     15  CG2      -11.0250    8.4510   13.2690 C.3    89  ILE89       0.0020
     16  CD1       -9.8580   10.6750   11.4250 C.3    89  ILE89       0.0001
     17  N        -12.6760    6.2360   11.2940 N.am   90  GLN90      -0.1979
     18  CA       -12.3220    5.0490   10.4360 C.3    90  GLN90       0.1601
     19  C        -12.5740    3.7640   11.1710 C.2    90  GLN90       0.2287
     20  O        -12.6090    3.7610   12.3960 O.2    90  GLN90      -0.2864
     21  CB       -10.8610    5.0640    9.9100 C.3    90  GLN90       0.0394
     22  CG        -9.7470    5.2010   11.0670 C.3    90  GLN90       0.0908
     23  CD        -9.0080    3.8450   11.3260 C.2    90  GLN90       0.2608
     24  OE1       -9.6180    2.7830   11.2260 O.2    90  GLN90      -0.2717
     25  NE2       -7.7290    3.9080   11.7760 N.am   90  GLN90      -0.0878
     26  N        -11.1490   -0.5290   10.9550 N.3    92  HIS92      -0.1241
     27  CA       -10.2610   -1.4950   10.3030 C.3    92  HIS92       0.1621
     28  C        -10.3380   -2.7490   11.1560 C.2    92  HIS92       0.2264
     29  O        -10.9660   -2.7600   12.1710 O.2    92  HIS92      -0.2867
     30  CB        -8.7830   -1.0380   10.2710 C.3    92  HIS92       0.0745
     31  CG        -8.2610   -0.7330   11.6610 C.ar   92  HIS92       0.0817
     32  ND1       -8.5100    0.4660   12.3130 N.ar   92  HIS92      -0.2268
     33  CD2       -7.6760   -1.5400   12.5780 C.ar   92  HIS92       0.1154
     34  CE1       -8.0370    0.3990   13.5490 C.ar   92  HIS92       0.1986
     35  NE2       -7.5040   -0.8090   13.7240 N.ar   92  HIS92      -0.2212
     36  N         -8.0570   -6.4430   12.4800 N.3    94  HIS94      -0.1241
     37  CA        -6.8810   -7.3000   12.6430 C.3    94  HIS94       0.1621
     38  C         -7.3010   -8.7610   12.5570 C.2    94  HIS94       0.2264
     39  O         -8.3720   -9.1540   13.0910 O.2    94  HIS94      -0.2867
     40  CB        -6.2030   -7.0430   14.0140 C.3    94  HIS94       0.0745
     41  CG        -5.9460   -5.6090   14.3040 C.ar   94  HIS94       0.0817
     42  ND1       -4.7010   -5.0480   14.0990 N.ar   94  HIS94      -0.2268
     43  CD2       -6.7750   -4.6030   14.6930 C.ar   94  HIS94       0.1154
     44  CE1       -4.7480   -3.7550   14.4640 C.ar   94  HIS94       0.1986
     45  NE2       -6.0070   -3.4510   14.7690 N.ar   94  HIS94      -0.2212
     46  N        -12.0340   -2.6320   14.8440 N.3   117  HIS117     -0.1241
     47  CA       -11.7620   -1.4550   15.6890 C.3   117  HIS117      0.1621
     48  C        -12.4670   -0.3040   14.9900 C.2   117  HIS117      0.2264
     49  O        -12.1030    0.0360   13.8460 O.2   117  HIS117     -0.2867
     50  CB       -10.2310   -1.2560   15.7090 C.3   117  HIS117      0.0745
     51  CG        -9.5780   -2.2230   16.6320 C.ar  117  HIS117      0.0817
     52  ND1       -8.2150   -2.5010   16.6440 N.ar  117  HIS117     -0.2268
     53  CD2      -10.1390   -3.0410   17.5820 C.ar  117  HIS117      0.1154
     54  CE1       -7.9660   -3.4010   17.5760 C.ar  117  HIS117      0.1986
     55  NE2       -9.1130   -3.7450   18.1500 N.ar  117  HIS117     -0.2212
     56  N        -12.8620    3.5370   15.1990 N.3   119  VAL119     -0.1245
     57  CA       -11.9860    4.5040   15.8640 C.3   119  VAL119      0.1561
     58  C        -12.6670    5.8560   15.9090 C.2   119  VAL119      0.2260
     59  O        -13.0730    6.3520   14.8750 O.2   119  VAL119     -0.2867
     60  CB       -10.6170    4.6540   15.1010 C.3   119  VAL119      0.0252
     61  CG1       -9.6790    5.6760   15.7960 C.3   119  VAL119      0.0019
     62  CG2       -9.9680    3.2660   14.9130 C.3   119  VAL119      0.0019
     63  N         -8.4750   14.7010   14.8830 N.3   128  PHE128     -0.1241
     64  CA        -7.8410   13.4490   15.2900 C.3   128  PHE128      0.1605
     65  C         -6.3600   13.7010   15.6740 C.2   128  PHE128      0.2264
     66  O         -5.8620   13.1280   16.6640 O.2   128  PHE128     -0.2867
     67  CB        -7.8660   12.4740   14.1000 C.3   128  PHE128      0.0534
     68  CG        -7.2300   11.1520   14.3690 C.ar  128  PHE128     -0.0203
     69  CD1       -7.9520   10.0890   14.9920 C.ar  128  PHE128     -0.0042
     70  CD2       -5.8960   10.9450   14.0170 C.ar  128  PHE128     -0.0042
     71  CE1       -7.3510    8.8960   15.2410 C.ar  128  PHE128     -0.0003
     72  CE2       -5.2940    9.7160   14.2700 C.ar  128  PHE128     -0.0003
     73  CZ        -6.0460    8.6810   14.8640 C.ar  128  PHE128     -0.0000
     74  N         -4.9970   12.5640   19.4960 N.3   132  VAL132     -0.1245
     75  CA        -4.0910   11.4460   19.8250 C.3   132  VAL132      0.1561
     76  C         -2.9940   11.8450   20.8210 C.2   132  VAL132      0.2260
     77  O         -2.3240   10.9770   21.3630 O.2   132  VAL132     -0.2867
     78  CB        -3.5020   10.7200   18.5890 C.3   132  VAL132      0.0252
     79  CG1       -4.6010   10.1260   17.7870 C.3   132  VAL132      0.0019
     80  CG2       -2.5190   11.6230   17.7250 C.3   132  VAL132      0.0019
     81  N        -11.9500    3.7170   21.1530 N.3   140  VAL140     -0.1245
     82  CA       -11.9890    2.6790   20.1580 C.3   140  VAL140      0.1561
     83  C        -12.9620    1.5980   20.6230 C.2   140  VAL140      0.2260
     84  O        -12.8210    1.0600   21.7620 O.2   140  VAL140     -0.2867
     85  CB       -10.6130    2.1000   19.8310 C.3   140  VAL140      0.0252
     86  CG1      -10.7710    1.0800   18.6480 C.3   140  VAL140      0.0019
     87  CG2       -9.7100    3.2480   19.4060 C.3   140  VAL140      0.0019
     88  N         -3.1090    3.0760   21.2970 N.3   195  LEU195     -0.1231
     89  CA        -3.1090    2.5470   19.9250 C.3   195  LEU195      0.1693
     90  C         -2.3690    1.2360   19.9370 C.2   195  LEU195      0.2593
     91  O         -1.3520    1.0360   20.6700 O.2   195  LEU195     -0.2718
     92  CB        -2.3770    3.5190   19.0170 C.3   195  LEU195      0.0284
     93  CG        -2.8990    4.9340   18.9620 C.3   195  LEU195      0.0019
     94  CD1       -2.0240    5.7470   18.0050 C.3   195  LEU195      0.0001
     95  CD2       -4.3510    5.0610   18.5950 C.3   195  LEU195      0.0001
     96  N         -2.8280    0.3150   19.1100 N.am  196  THR196     -0.1939
     97  CA        -2.1500   -1.0130   19.0810 C.3   196  THR196      0.2028
     98  C         -1.1070   -1.1580   17.9530 C.2   196  THR196      0.2643
     99  O         -0.5270   -2.2600   17.7710 O.2   196  THR196     -0.2714
    100  CB        -3.1890   -2.1380   18.9530 C.3   196  THR196      0.1808
    101  OG1       -3.7480   -2.1290   17.6310 O.3   196  THR196     -0.2208
    102  CG2       -4.1930   -2.0730   20.1160 C.3   196  THR196      0.0379
    103  N         -0.9750   -0.0810   17.1380 N.am  197  THR197     -0.1937
    104  CA         0.1230    0.0260   16.1930 C.3   197  THR197      0.2013
    105  C          0.9340    1.2760   16.4470 C.2   197  THR197      0.2484
    106  O          0.4490    2.2070   17.0690 O.2   197  THR197     -0.2729
    107  CB        -0.3770    0.0870   14.7230 C.3   197  THR197      0.1807
    108  OG1       -1.2240    1.2550   14.5190 O.3   197  THR197     -0.2208
    109  CG2       -1.0450   -1.1600   14.3280 C.3   197  THR197      0.0379
    110  N          2.2190    1.2710   16.0030 N.am  198  PRO198     -0.2715
    111  CA         2.9660    2.5330   16.1370 C.3   198  PRO198      0.1521
    112  C          2.0690    3.7130   15.5760 C.2   198  PRO198      0.2440
    113  O          1.3950    3.5690   14.5040 O.2   198  PRO198     -0.2731
    114  CB         4.2180    2.2920   15.2280 C.3   198  PRO198      0.0310
    115  CG         4.4150    0.8600   15.3870 C.3   198  PRO198      0.0237
    116  CD         2.9970    0.2120   15.3520 C.3   198  PRO198      0.0939
    117  N          2.1300    4.8930   16.2060 N.am  199  PRO199     -0.2727
    118  CA         3.0140    5.2780   17.2770 C.3   199  PRO199      0.1402
    119  C          2.6560    4.8120   18.7370 C.2   199  PRO199      0.2269
    120  O          3.2700    5.2770   19.7020 O.2   199  PRO199     -0.2865
    121  CB         2.9720    6.8320   17.1770 C.3   199  PRO199      0.0296
    122  CG         1.5610    7.1200   16.8180 C.3   199  PRO199      0.0237
    123  CD         1.2980    6.0310   15.7480 C.3   199  PRO199      0.0939
    124  N        -10.5620    2.2010   25.7550 N.3   206  TRP206     -0.1241
    125  CA       -10.9880    1.0170   25.0190 C.3   206  TRP206      0.1605
    126  C        -12.3930    0.6150   25.5100 C.2   206  TRP206      0.2264
    127  O        -12.6600    0.5160   26.7140 O.2   206  TRP206     -0.2867
    128  CB        -9.9940   -0.1640   25.2120 C.3   206  TRP206      0.0550
    129  CG        -8.9440   -0.0200   24.2690 C.ar  206  TRP206      0.0003
    130  CD1       -7.7120    0.5880   24.4670 C.ar  206  TRP206      0.0946
    131  CD2       -8.9860   -0.3940   22.8640 C.ar  206  TRP206      0.0152
    132  NE1       -6.9770    0.5740   23.2940 N.ar  206  TRP206     -0.2442
    133  CE2       -7.7070    0.0000   22.2900 C.ar  206  TRP206      0.0810
    134  CE3       -9.9540   -1.0110   22.0410 C.ar  206  TRP206      0.0012
    135  CZ2       -7.3650   -0.2500   20.9470 C.ar  206  TRP206      0.0191
    136  CZ3       -9.6250   -1.2610   20.6960 C.ar  206  TRP206      0.0001
    137  CH2       -8.3360   -0.8950   20.1570 C.ar  206  TRP206      0.0015
@<TRIPOS>BOND
     1     4     3    2
     2     3     2    1
     3     1     2    1
     4     2     5    1
     5     5     6    1
     6     6     7    2
     7     6     8   am
     8    12    11    2
     9    21    18    1
    10    21    22    1
    11    30    27    1
    12    30    31    1
    13    27    26    1
    14    27    28    1
    15    18    19    1
    16    18    17    1
    17    11    17   am
    18    11    10    1
    19    22    23    1
    20    14    16    1
    21    14    13    1
    22    28    29    2
    23    19    20    2
    24    24    23    2
    25    23    25   am
    26    31    32   ar
    27    31    33   ar
    28    10    13    1
    29    10     9    1
    30    13    15    1
    31    32    34   ar
    32    36    37    1
    33    38    37    1
    34    38    39    2
    35    33    35   ar
    36    37    40    1
    37    34    35   ar
    38    49    48    2
    39    40    41    1
    40    70    72   ar
    41    70    68   ar
    42    42    41   ar
    43    42    44   ar
    44    67    68    1
    45    67    64    1
    46    72    73   ar
    47    41    43   ar
    48   109   107    1
    49    68    69   ar
    50    44    45   ar
    51   113   112    2
    52   108   107    1
    53    43    45   ar
    54   107   104    1
    55    46    47    1
    56    73    71   ar
    57    59    58    2
    58    63    64    1
    59    62    60    1
    60    48    47    1
    61    69    71   ar
    62    60    61    1
    63    60    57    1
    64    56    57    1
    65   114   115    1
    66   114   111    1
    67    64    65    1
    68   116   115    1
    69   116   110    1
    70   112   111    1
    71   112   117   am
    72    65    66    2
    73    47    50    1
    74    50    51    1
    75   123   117    1
    76   123   122    1
    77    57    58    1
    78   110   111    1
    79   110   105   am
    80   104   105    1
    81   104   103    1
    82   117   118    1
    83   105   106    2
    84    51    52   ar
    85    51    53   ar
    86    52    54   ar
    87   122   121    1
    88   103    98   am
    89   121   118    1
    90   118   119    1
    91    54    55   ar
    92    53    55   ar
    93   101   100    1
    94    80    78    1
    95    99    98    2
    96    79    78    1
    97    98    97    1
    98    94    93    1
    99    78    75    1
   100    95    93    1
   101    86    85    1
   102   119   120    2
   103   100    97    1
   104   100   102    1
   105    93    92    1
   106    92    89    1
   107    97    96    1
   108    96    90   am
   109    87    85    1
   110    74    75    1
   111    75    76    1
   112    85    82    1
   113    89    90    1
   114    89    88    1
   115    90    91    2
   116   137   136   ar
   117   137   135   ar
   118    82    83    1
   119    82    81    1
   120    83    84    2
   121   136   134   ar
   122    76    77    2
   123   135   133   ar
   124   134   131   ar
   125   133   131   ar
   126   133   132   ar
   127   131   129   ar
   128   132   130   ar
   129   129   130   ar
   130   129   128    1
   131   125   128    1
   132   125   126    1
   133   125   124    1
   134   126   127    2
