@<TRIPOS>MOLECULE
tmp/3m42A00.pdb
 187 173 0 0 0
SMALL
GASTEIGER

@<TRIPOS>ATOM
      1  N         27.5590   10.6250   12.8420 N.3    22  GLN22      -0.1245
      2  CA        27.6910    9.2870   13.4030 C.3    22  GLN22       0.1566
      3  C         28.9230    9.1270   14.2850 C.2    22  GLN22       0.2260
      4  O         30.0450    9.3930   13.8570 O.2    22  GLN22      -0.2867
      5  CB        27.7390    8.2410   12.2920 C.3    22  GLN22       0.0367
      6  CG        27.5500    6.8220   12.8120 C.3    22  GLN22       0.0905
      7  CD        28.3230    5.7920   12.0180 C.2    22  GLN22       0.2608
      8  OE1       28.7180    6.0360   10.8760 O.2    22  GLN22      -0.2717
      9  NE2       28.5470    4.6280   12.6220 N.am   22  GLN22      -0.0878
     10  N         31.9130    7.2480   16.1440 N.3    24  LEU24      -0.1231
     11  CA        32.7840    6.1180   15.8410 C.3    24  LEU24       0.1693
     12  C         33.4650    5.6580   17.1210 C.2    24  LEU24       0.2593
     13  O         34.2070    4.6770   17.1280 O.2    24  LEU24      -0.2718
     14  CB        33.8440    6.5180   14.8100 C.3    24  LEU24       0.0284
     15  CG        33.3690    7.1100   13.4760 C.3    24  LEU24       0.0019
     16  CD1       34.5790    7.4640   12.6240 C.3    24  LEU24       0.0001
     17  CD2       32.4720    6.1180   12.7480 C.3    24  LEU24       0.0001
     18  N         33.2060    6.3780   18.2050 N.am   25  GLY25      -0.1942
     19  CA        33.7800    6.0180   19.4880 C.3    25  GLY25       0.2014
     20  C         33.6600    7.1580   20.4780 C.2    25  GLY25       0.2639
     21  O         33.2420    8.2600   20.1140 O.2    25  GLY25      -0.2714
     22  N         34.0130    6.8970   21.7320 N.am   26  LEU26      -0.1963
     23  CA        34.0410    7.9490   22.7400 C.3    26  LEU26       0.1728
     24  C         35.3950    8.0210   23.4170 C.2    26  LEU26       0.2616
     25  O         35.8770    7.0390   23.9850 O.2    26  LEU26      -0.2715
     26  CB        32.9620    7.7240   23.7970 C.3    26  LEU26       0.0311
     27  CG        31.5110    7.8490   23.3330 C.3    26  LEU26       0.0022
     28  CD1       30.6280    8.0580   24.5540 C.3    26  LEU26       0.0001
     29  CD2       31.3630    9.0140   22.3630 C.3    26  LEU26       0.0001
     30  N         36.0000    9.2020   23.3600 N.am   27  GLY27      -0.1955
     31  CA        37.3540    9.3670   23.8480 C.3    27  GLY27       0.1869
     32  C         37.4230   10.0590   25.1910 C.2    27  GLY27       0.2309
     33  O         36.3980   10.3660   25.8060 O.2    27  GLY27      -0.2863
     34  N         34.3450   10.9090   18.6380 N.3    32  VAL32      -0.1245
     35  CA        34.9180   10.7330   17.3080 C.3    32  VAL32       0.1561
     36  C         33.8000   10.5480   16.2860 C.2    32  VAL32       0.2260
     37  O         32.8750    9.7700   16.5090 O.2    32  VAL32      -0.2867
     38  CB        35.8610    9.5100   17.2640 C.3    32  VAL32       0.0252
     39  CG1       36.4450    9.3470   15.8710 C.3    32  VAL32       0.0019
     40  CG2       36.9740    9.6780   18.2900 C.3    32  VAL32       0.0019
     41  N         32.3210   10.4930   11.9740 N.3    34  GLN34      -0.1245
     42  CA        32.6050   10.0580   10.6150 C.3    34  GLN34       0.1566
     43  C         32.5780   11.2510    9.6660 C.2    34  GLN34       0.2260
     44  O         31.6410   12.0370    9.6940 O.2    34  GLN34      -0.2867
     45  CB        31.5560    9.0360   10.1800 C.3    34  GLN34       0.0367
     46  CG        31.8940    8.2960    8.8960 C.3    34  GLN34       0.0905
     47  CD        32.9730    7.2480    9.1010 C.2    34  GLN34       0.2608
     48  OE1       32.6840    6.0510    9.1980 O.2    34  GLN34      -0.2717
     49  NE2       34.2260    7.6910    9.1700 N.am   34  GLN34      -0.0878
     50  N         36.8660    8.3110    3.1920 N.3    43  LYS43      -0.1245
     51  CA        36.3080    8.3690    4.5360 C.3    43  LYS43       0.1561
     52  C         37.4110    8.5590    5.5840 C.2    43  LYS43       0.2260
     53  O         38.5430    8.1030    5.3940 O.2    43  LYS43      -0.2867
     54  CB        35.5320    7.0810    4.8070 C.3    43  LYS43       0.0271
     55  CG        34.5980    7.1390    5.9930 C.3    43  LYS43       0.0035
     56  CD        33.6460    5.9450    6.0020 C.3    43  LYS43       0.0206
     57  CE        34.2440    4.7550    6.7450 C.3    43  LYS43       0.1093
     58  NZ        35.5950    4.3870    6.2250 N.3    43  LYS43      -0.1314
     59  N         38.2050    9.7990   10.1320 N.3    45  ALA45      -0.1245
     60  CA        37.6840   10.0590   11.4700 C.3    45  ALA45       0.1562
     61  C         38.0780   11.4500   11.9600 C.2    45  ALA45       0.2260
     62  O         39.1500   11.9580   11.6260 O.2    45  ALA45      -0.2867
     63  CB        38.1890    9.0080   12.4370 C.3    45  ALA45       0.0290
     64  N         38.4120   13.8740   15.4750 N.3    47  LYS47      -0.1245
     65  CA        38.3230   14.1190   16.9080 C.3    47  LYS47       0.1561
     66  C         38.2330   15.6240   17.1490 C.2    47  LYS47       0.2260
     67  O         38.9670   16.4010   16.5370 O.2    47  LYS47      -0.2867
     68  CB        39.5470   13.5440   17.6240 C.3    47  LYS47       0.0271
     69  CG        39.2450   12.9710   18.9940 C.3    47  LYS47       0.0035
     70  CD        40.5060   12.4540   19.6670 C.3    47  LYS47       0.0206
     71  CE        40.1950   11.8130   21.0060 C.3    47  LYS47       0.1093
     72  NZ        41.4290   11.3450   21.6830 N.3    47  LYS47      -0.1314
     73  N         50.8300   13.1630   20.0240 N.3    62  HIS62      -0.1241
     74  CA        50.2510   12.2220   19.0780 C.3    62  HIS62       0.1621
     75  C         50.8920   12.4050   17.7070 C.2    62  HIS62       0.2264
     76  O         51.0680   11.4410   16.9650 O.2    62  HIS62      -0.2867
     77  CB        48.7360   12.4230   18.9790 C.3    62  HIS62       0.0745
     78  CG        48.0360   11.3720   18.1700 C.ar   62  HIS62       0.0817
     79  ND1       46.6740   11.1640   18.2400 N.ar   62  HIS62      -0.2268
     80  CD2       48.5080   10.4700   17.2740 C.ar   62  HIS62       0.1154
     81  CE1       46.3380   10.1820   17.4220 C.ar   62  HIS62       0.1986
     82  NE2       47.4330    9.7440   16.8250 N.ar   62  HIS62      -0.2212
     83  N         47.5560    5.0500   15.3410 N.3    72  VAL72      -0.1245
     84  CA        46.6520    5.6900   14.3900 C.3    72  VAL72       0.1561
     85  C         47.2900    6.9590   13.8340 C.2    72  VAL72       0.2260
     86  O         47.9450    7.7030   14.5580 O.2    72  VAL72      -0.2867
     87  CB        45.2960    6.0630   15.0310 C.3    72  VAL72       0.0252
     88  CG1       45.4620    7.2520   15.9740 C.3    72  VAL72       0.0019
     89  CG2       44.2830    6.3700   13.9460 C.3    72  VAL72       0.0019
     90  N         41.9070   11.8680   11.3570 N.3    92  MET92      -0.1230
     91  CA        42.7070   10.6550   11.4600 C.3    92  MET92       0.1702
     92  C         42.2820    9.6020   10.4540 C.2    92  MET92       0.2592
     93  O         41.1730    9.6530    9.9240 O.2    92  MET92      -0.2718
     94  CB        42.6090   10.0800   12.8680 C.3    92  MET92       0.0401
     95  CG        43.4550   10.8220   13.8590 C.3    92  MET92       0.0596
     96  SD        43.0460   10.4120   15.5420 S.3    92  MET92      -0.1393
     97  CE        41.3200   10.8810   15.5900 C.3    92  MET92       0.0692
     98  N         43.1650    8.6410   10.1970 N.am   93  GLU93      -0.1966
     99  CA        42.8220    7.5210    9.3290 C.3    93  GLU93       0.1733
    100  C         41.6680    6.7380    9.9440 C.2    93  GLU93       0.2616
    101  O         41.5660    6.6180   11.1650 O.2    93  GLU93      -0.2715
    102  CB        44.0290    6.6000    9.1350 C.3    93  GLU93       0.0429
    103  CG        44.4900    5.8770   10.3940 C.3    93  GLU93       0.1163
    104  CD        45.5750    4.8500   10.1070 C.2    93  GLU93       0.3649
    105  OE1       45.3430    3.9670    9.2500 O.co2  93  GLU93      -0.2457
    106  OE2       46.6580    4.9230   10.7310 O.co2  93  GLU93      -0.2457
    107  N         40.7960    6.2140    9.0900 N.am   94  CYS94      -0.1954
    108  CA        39.6150    5.4940    9.5480 C.3    94  CYS94       0.1843
    109  C         39.9510    4.0270    9.8190 C.2    94  CYS94       0.2625
    110  O         40.6850    3.4010    9.0510 O.2    94  CYS94      -0.2714
    111  CB        38.5120    5.5980    8.4930 C.3    94  CYS94       0.0997
    112  SG        36.8560    5.3100    9.1350 S.3    94  CYS94      -0.0797
    113  N         39.4230    3.4850   10.9140 N.am   95  LEU95      -0.1963
    114  CA        39.7560    2.1190   11.3280 C.3    95  LEU95       0.1728
    115  C         38.5080    1.2420   11.4400 C.2    95  LEU95       0.2616
    116  O         37.8800    1.1770   12.5000 O.2    95  LEU95      -0.2715
    117  CB        40.4980    2.1420   12.6720 C.3    95  LEU95       0.0311
    118  CG        41.7720    2.9960   12.7770 C.3    95  LEU95       0.0022
    119  CD1       42.4030    2.8240   14.1450 C.3    95  LEU95       0.0001
    120  CD2       42.7560    2.5940   11.7110 C.3    95  LEU95       0.0001
    121  N         38.1650    0.5610   10.3460 N.am   96  ASP96      -0.1971
    122  CA        36.8940   -0.1600   10.2370 C.3    96  ASP96       0.1709
    123  C         36.9010   -1.4990   10.9510 C.2    96  ASP96       0.2293
    124  O         35.8530   -1.9830   11.3710 O.2    96  ASP96      -0.2864
    125  CB        36.5410   -0.4220    8.7770 C.3    96  ASP96       0.1436
    126  CG        36.7340    0.7890    7.9080 C.2    96  ASP96       0.3671
    127  OD1       37.7050    0.7950    7.1130 O.co2  96  ASP96      -0.2456
    128  OD2       35.9150    1.7290    8.0180 O.co2  96  ASP96      -0.2456
    129  N         37.4090   -2.5790   13.7440 N.3    98  GLY98      -0.1210
    130  CA        36.7920   -2.6960   15.0520 C.3    98  GLY98       0.1956
    131  C         37.7930   -2.8740   16.1830 C.2    98  GLY98       0.2611
    132  O         39.0090   -2.8370   15.9650 O.2    98  GLY98      -0.2717
    133  N         37.2760   -3.0680   17.3940 N.am   99  GLU99      -0.1979
    134  CA        38.1070   -3.2110   18.5820 C.3    99  GLU99       0.1602
    135  C         38.7040   -4.6100   18.6590 C.2    99  GLU99       0.2287
    136  O         38.0520   -5.5920   18.3100 O.2    99  GLU99      -0.2864
    137  CB        37.2830   -2.9450   19.8420 C.3    99  GLU99       0.0415
    138  CG        36.5730   -1.6010   19.8590 C.3    99  GLU99       0.1163
    139  CD        35.9230   -1.2980   21.2020 C.2    99  GLU99       0.3649
    140  OE1       35.8540   -2.2170   22.0480 O.co2  99  GLU99      -0.2457
    141  OE2       35.4850   -0.1430   21.4130 O.co2  99  GLU99      -0.2457
    142  N         36.7170   -7.4840   20.4050 N.3   102  SER102     -0.1217
    143  CA        35.4350   -7.6600   19.7470 C.3   102  SER102      0.1889
    144  C         35.6150   -8.5950   18.5540 C.2   102  SER102      0.2288
    145  O         34.7930   -9.4770   18.3100 O.2   102  SER102     -0.2866
    146  CB        34.8950   -6.3110   19.2780 C.3   102  SER102      0.2089
    147  OG        33.6810   -6.4780   18.5740 O.3   102  SER102     -0.2183
    148  N         39.4650   -0.5690   24.4660 N.3   144  GLU144     -0.1231
    149  CA        38.7500    0.3510   23.5800 C.3   144  GLU144      0.1699
    150  C         39.6890    1.1880   22.7250 C.2   144  GLU144      0.2592
    151  O         39.2520    1.8230   21.7660 O.2   144  GLU144     -0.2718
    152  CB        37.8180    1.2720   24.3740 C.3   144  GLU144      0.0402
    153  CG        38.3400    1.6780   25.7380 C.3   144  GLU144      0.1161
    154  CD        37.6320    0.9500   26.8770 C.2   144  GLU144      0.3649
    155  OE1       36.4160    1.1910   27.0770 O.co2 144  GLU144     -0.2457
    156  OE2       38.2950    0.1350   27.5670 O.co2 144  GLU144     -0.2457
    157  N         40.9760    1.1830   23.0640 N.am  145  ASN145     -0.1974
    158  CA        41.9590    1.9890   22.3410 C.3   145  ASN145      0.1688
    159  C         42.8320    1.1810   21.3860 C.2   145  ASN145      0.2292
    160  O         43.8110    1.6990   20.8500 O.2   145  ASN145     -0.2864
    161  CB        42.8560    2.7530   23.3190 C.3   145  ASN145      0.1181
    162  CG        42.1170    3.8670   24.0450 C.2   145  ASN145      0.2629
    163  OD1       41.1410    4.4190   23.5360 O.2   145  ASN145     -0.2716
    164  ND2       42.5810    4.2000   25.2450 N.am  145  ASN145     -0.0877
    165  N         42.3690   -0.7350   17.9070 N.3   147  LEU147     -0.1245
    166  CA        41.4130   -0.9310   16.8100 C.3   147  LEU147      0.1561
    167  C         42.0970   -1.4000   15.5320 C.2   147  LEU147      0.2260
    168  O         43.2650   -1.0820   15.2950 O.2   147  LEU147     -0.2867
    169  CB        40.6700    0.3690   16.5110 C.3   147  LEU147      0.0270
    170  CG        39.8990    1.0470   17.6390 C.3   147  LEU147      0.0019
    171  CD1       39.4890    2.4280   17.1770 C.3   147  LEU147      0.0001
    172  CD2       38.6760    0.2420   18.0040 C.3   147  LEU147      0.0001
    173  N         45.3200    4.0450   19.7380 N.3   160  THR160     -0.1203
    174  CA        44.6670    5.3450   19.6360 C.3   160  THR160      0.1994
    175  C         44.6160    6.0780   20.9740 C.2   160  THR160      0.2617
    176  O         44.9370    5.5130   22.0240 O.2   160  THR160     -0.2717
    177  CB        43.2210    5.2020   19.1490 C.3   160  THR160      0.1784
    178  OG1       42.4650    4.4610   20.1170 O.3   160  THR160     -0.2211
    179  CG2       43.1780    4.4790   17.8250 C.3   160  THR160      0.0376
    180  N         44.2090    7.3440   20.9100 N.am  161  ASP161     -0.1973
    181  CA        43.8610    8.1490   22.0790 C.3   161  ASP161      0.1709
    182  C         45.0540    8.5610   22.9220 C.2   161  ASP161      0.2293
    183  O         45.5650    7.7750   23.7180 O.2   161  ASP161     -0.2864
    184  CB        42.8550    7.4080   22.9630 C.3   161  ASP161      0.1436
    185  CG        42.1480    8.3360   23.9330 C.2   161  ASP161      0.3671
    186  OD1       40.9570    8.1000   24.2420 O.co2 161  ASP161     -0.2456
    187  OD2       42.7900    9.3120   24.3800 O.co2 161  ASP161     -0.2456
@<TRIPOS>BOND
     1    50    51    1
     2    51    54    1
     3    51    52    1
     4    54    55    1
     5    53    52    2
     6    55    56    1
     7    56    57    1
     8    58    57    1
     9   127   126   ar
    10   126   128   ar
    11   126   125    1
    12   111   112    1
    13   111   108    1
    14   125   122    1
    15    46    47    1
    16    46    45    1
    17   110   109    2
    18   107   108    1
    19   107   100   am
    20    47    49   am
    21    47    48    2
    22   102    99    1
    23   102   103    1
    24   105   104   ar
    25    99   100    1
    26    99    98    1
    27   108   109    1
    28    43    44    2
    29    43    42    1
    30   109   113   am
    31    93    92    2
    32   100   101    2
    33   104   103    1
    34   104   106   ar
    35    59    60    1
    36    45    42    1
    37    98    92   am
    38   122   121    1
    39   122   123    1
    40   121   115   am
    41    92    91    1
    42    42    41    1
    43     8     7    2
    44   113   114    1
    45   123   124    2
    46   114   115    1
    47   114   117    1
    48    90    91    1
    49   115   116    2
    50    91    94    1
    51    60    61    1
    52    60    63    1
    53    62    61    2
    54   120   118    1
    55     7     9   am
    56     7     6    1
    57     5     6    1
    58     5     2    1
    59    16    15    1
    60   117   118    1
    61    17    15    1
    62   118   119    1
    63     1     2    1
    64    94    95    1
    65     2     3    1
    66    15    14    1
    67   129   130    1
    68    85    84    1
    69    85    86    2
    70     4     3    2
    71    95    96    1
    72    89    87    1
    73    84    87    1
    74    84    83    1
    75    14    11    1
    76    87    88    1
    77   130   131    1
    78   168   167    2
    79    64    65    1
    80   167   166    1
    81    96    97    1
    82    11    10    1
    83    11    12    1
    84    39    38    1
    85   132   131    2
    86   131   133   am
    87    36    37    2
    88    36    35    1
    89   169   166    1
    90   169   170    1
    91    67    66    2
    92   166   165    1
    93    82    80   ar
    94    82    81   ar
    95    65    66    1
    96    65    68    1
    97    76    75    2
    98    12    13    2
    99    12    18   am
   100   171   170    1
   101    38    35    1
   102    38    40    1
   103    80    78   ar
   104    35    34    1
   105   133   134    1
   106    81    79   ar
   107    68    69    1
   108   170   172    1
   109    75    74    1
   110   179   177    1
   111    78    79   ar
   112    78    77    1
   113    18    19    1
   114   145   144    2
   115   136   135    2
   116   144   143    1
   117   147   146    1
   118   134   135    1
   119   134   137    1
   120    77    74    1
   121    69    70    1
   122    74    73    1
   123   177   174    1
   124   177   178    1
   125   146   143    1
   126    19    20    1
   127   174   173    1
   128   174   175    1
   129    70    71    1
   130   143   142    1
   131   137   138    1
   132   138   139    1
   133    21    20    2
   134    20    22   am
   135   160   159    2
   136   180   175   am
   137   180   181    1
   138   175   176    2
   139    71    72    1
   140   139   141   ar
   141   139   140   ar
   142   159   158    1
   143    22    23    1
   144   151   150    2
   145   181   182    1
   146   181   184    1
   147   158   157    1
   148   158   161    1
   149    29    27    1
   150   150   157   am
   151   150   149    1
   152    23    24    1
   153    23    26    1
   154   182   183    2
   155   184   185    1
   156   161   162    1
   157    27    26    1
   158    27    28    1
   159    30    24   am
   160    30    31    1
   161    24    25    2
   162   163   162    2
   163   149   152    1
   164   149   148    1
   165    31    32    1
   166   185   186   ar
   167   185   187   ar
   168   162   164   am
   169   152   153    1
   170    32    33    2
   171   153   154    1
   172   154   155   ar
   173   154   156   ar
