@<TRIPOS>MOLECULE
tmp/3m49A00.pdb
 147 139 0 0 0
SMALL
GASTEIGER

@<TRIPOS>ATOM
      1  N         19.1330    3.0700  100.1710 N.3    27  HIS27      -0.1241
      2  CA        18.3870    3.2680  101.4060 C.3    27  HIS27       0.1621
      3  C         16.9090    2.9680  101.1900 C.2    27  HIS27       0.2264
      4  O         16.1600    3.8200  100.6990 O.2    27  HIS27      -0.2867
      5  CB        18.5490    4.7250  101.8540 C.3    27  HIS27       0.0745
      6  CG        19.9750    5.1200  102.0970 C.ar   27  HIS27       0.0817
      7  ND1       20.8630    5.3710  101.0710 N.ar   27  HIS27      -0.2268
      8  CD2       20.6640    5.3250  103.2490 C.ar   27  HIS27       0.1154
      9  CE1       22.0420    5.7010  101.5780 C.ar   27  HIS27       0.1986
     10  NE2       21.9470    5.6740  102.8980 N.ar   27  HIS27      -0.2212
     11  N         14.5020    1.9880  103.5390 N.3    29  GLY29      -0.1225
     12  CA        13.5570    2.1650  104.6420 C.3    29  GLY29       0.1811
     13  C         12.6590    3.3810  104.4390 C.2    29  GLY29       0.2280
     14  O         11.4370    3.3170  104.6100 O.2    29  GLY29      -0.2866
     15  N         15.6930   14.8550  102.8650 N.3    61  ALA61      -0.1245
     16  CA        16.2530   13.5630  103.2680 C.3    61  ALA61       0.1562
     17  C         16.7600   12.8530  102.0030 C.2    61  ALA61       0.2260
     18  O         16.1060   11.9310  101.4990 O.2    61  ALA61      -0.2867
     19  CB        15.1850   12.7270  103.9570 C.3    61  ALA61       0.0290
     20  N         18.9130   10.7010  101.1180 N.3    63  HIS63      -0.1241
     21  CA        19.1710    9.2690  101.0520 C.3    63  HIS63       0.1621
     22  C         17.9390    8.5070  100.5150 C.2    63  HIS63       0.2264
     23  O         18.0490    7.3940   99.9670 O.2    63  HIS63      -0.2867
     24  CB        19.6310    8.7360  102.4210 C.3    63  HIS63       0.0745
     25  CG        18.6340    8.9440  103.5120 C.ar   63  HIS63       0.0817
     26  ND1       18.6240   10.0690  104.3060 N.ar   63  HIS63      -0.2268
     27  CD2       17.6040    8.1710  103.9420 C.ar   63  HIS63       0.1154
     28  CE1       17.6400    9.9840  105.1830 C.ar   63  HIS63       0.1986
     29  NE2       17.0010    8.8440  104.9780 N.ar   63  HIS63      -0.2212
     30  N         22.4030   10.2350   95.7490 N.3    95  HIS95      -0.1241
     31  CA        21.6410   11.3470   96.3400 C.3    95  HIS95       0.1621
     32  C         21.2230   12.2910   95.1960 C.2    95  HIS95       0.2264
     33  O         21.9020   12.3560   94.1730 O.2    95  HIS95      -0.2867
     34  CB        22.4610   12.0830   97.4260 C.3    95  HIS95       0.0745
     35  CG        22.7450   11.2430   98.6270 C.ar   95  HIS95       0.0817
     36  ND1       23.8060   10.3550   98.6830 N.ar   95  HIS95      -0.2268
     37  CD2       22.0760   11.0950   99.7970 C.ar   95  HIS95       0.1154
     38  CE1       23.7790    9.7110   99.8350 C.ar   95  HIS95       0.1986
     39  NE2       22.7310   10.1320  100.5250 N.ar   95  HIS95      -0.2212
     40  N         21.4120   15.5910  100.4390 N.3   109  GLY109     -0.1210
     41  CA        22.3270   14.5500  100.8910 C.3   109  GLY109      0.1940
     42  C         22.9360   14.9770  102.2060 C.2   109  GLY109      0.2454
     43  O         22.8020   14.2590  103.1900 O.2   109  GLY109     -0.2732
     44  N         23.6040   16.1470  102.2320 N.am  110  PRO110     -0.2717
     45  CA        24.0580   16.6920  103.5280 C.3   110  PRO110      0.1535
     46  C         22.8410   17.1530  104.3040 C.2   110  PRO110      0.2598
     47  O         22.1030   18.0420  103.8490 O.2   110  PRO110     -0.2715
     48  CB        24.9320   17.8810  103.1190 C.3   110  PRO110      0.0310
     49  CG        25.3850   17.5370  101.6490 C.3   110  PRO110      0.0237
     50  CD        24.1170   16.9380  101.0910 C.3   110  PRO110      0.0939
     51  N         22.6020   16.5490  105.4650 N.am  111  LEU111     -0.1978
     52  CA        21.3200   16.7700  106.1530 C.3   111  LEU111      0.1596
     53  C         21.1070   18.1970  106.6390 C.2   111  LEU111      0.2287
     54  O         22.0640   18.9210  106.9300 O.2   111  LEU111     -0.2864
     55  CB        21.1840   15.8020  107.3270 C.3   111  LEU111      0.0297
     56  CG        20.9860   14.3710  106.8140 C.3   111  LEU111      0.0022
     57  CD1       21.0570   13.3350  107.9490 C.3   111  LEU111      0.0001
     58  CD2       19.6570   14.2490  106.0580 C.3   111  LEU111      0.0001
     59  N         13.4760   14.1680  107.2710 N.3   147  GLY147     -0.1210
     60  CA        13.3710   13.1230  108.2760 C.3   147  GLY147      0.1956
     61  C         13.8780   13.6410  109.6070 C.2   147  GLY147      0.2612
     62  O         14.0800   14.8460  109.7860 O.2   147  GLY147     -0.2717
     63  N         14.0610   12.7410  110.5660 N.am  148  ASP148     -0.1959
     64  CA        14.6030   13.1230  111.8740 C.3   148  ASP148      0.1840
     65  C         15.9930   13.7810  111.8340 C.2   148  ASP148      0.2623
     66  O         16.2580   14.7670  112.5540 O.2   148  ASP148     -0.2715
     67  CB        14.6260   11.8810  112.7830 C.3   148  ASP148      0.1450
     68  CG        13.2330   11.2930  112.9780 C.2   148  ASP148      0.3671
     69  OD1       12.3550   11.9700  113.5420 O.co2 148  ASP148     -0.2456
     70  OD2       13.0030   10.1490  112.5720 O.co2 148  ASP148     -0.2456
     71  N         16.8860   13.2320  111.0160 N.am  149  GLY149     -0.1940
     72  CA        18.2510   13.7530  110.9350 C.3   149  GLY149      0.2014
     73  C         18.2540   15.2190  110.5280 C.2   149  GLY149      0.2638
     74  O         18.9920   16.0410  111.0860 O.2   149  GLY149     -0.2714
     75  N         17.4280   15.5610  109.5480 N.am  150  ASP150     -0.1971
     76  CA        17.3100   16.9610  109.1230 C.3   150  ASP150      0.1709
     77  C         17.0130   17.8910  110.2900 C.2   150  ASP150      0.2293
     78  O         17.5370   19.0070  110.3640 O.2   150  ASP150     -0.2864
     79  CB        16.1620   17.1010  108.1220 C.3   150  ASP150      0.1436
     80  CG        16.5460   16.6060  106.7280 C.2   150  ASP150      0.3671
     81  OD1       17.5340   17.1210  106.1680 O.co2 150  ASP150     -0.2456
     82  OD2       15.8650   15.7010  106.2090 O.co2 150  ASP150     -0.2456
     83  N         19.8640   18.8230  112.7930 N.3   152  GLU152     -0.1245
     84  CA        20.9050   19.7390  112.3280 C.3   152  GLU152      0.1567
     85  C         20.5910   21.1960  112.6410 C.2   152  GLU152      0.2260
     86  O         19.4810   21.6660  112.4210 O.2   152  GLU152     -0.2867
     87  CB        21.1010   19.5910  110.8090 C.3   152  GLU152      0.0388
     88  CG        21.8200   18.2890  110.4310 C.3   152  GLU152      0.1160
     89  CD        23.3320   18.3060  110.7380 C.2   152  GLU152      0.3649
     90  OE1       23.9880   17.2580  110.4900 O.co2 152  GLU152     -0.2457
     91  OE2       23.8760   19.3420  111.2010 O.co2 152  GLU152     -0.2457
     92  N          8.8830   13.0260  107.7590 N.3   175  ASP175     -0.1239
     93  CA         8.7750   11.5890  107.8750 C.3   175  ASP175      0.1674
     94  C          9.3010   11.2060  109.2560 C.2   175  ASP175      0.2266
     95  O         10.4930   11.0850  109.4640 O.2   175  ASP175     -0.2867
     96  CB         9.5850   10.9170  106.7670 C.3   175  ASP175      0.1410
     97  CG         9.5220    9.4020  106.8340 C.2   175  ASP175      0.3668
     98  OD1        8.5220    8.8590  107.3190 O.co2 175  ASP175     -0.2456
     99  OD2       10.4890    8.7510  106.4090 O.co2 175  ASP175     -0.2456
    100  N          9.7070    8.7060  112.0550 N.3   177  ASN177     -0.1240
    101  CA         9.6830    7.2610  112.1600 C.3   177  ASN177      0.1653
    102  C         10.4890    6.7050  113.3460 C.2   177  ASN177      0.2266
    103  O         10.6900    5.5070  113.4280 O.2   177  ASN177     -0.2867
    104  CB        10.1150    6.6120  110.8220 C.3   177  ASN177      0.1155
    105  CG        11.5600    6.9440  110.4360 C.2   177  ASN177      0.2627
    106  OD1       12.3750    7.2980  111.2930 O.2   177  ASN177     -0.2716
    107  ND2       11.8790    6.8390  109.1360 N.am  177  ASN177     -0.0877
    108  N         13.5260    6.4540  114.1190 N.3   179  ILE179     -0.1231
    109  CA        14.7070    5.6540  113.8060 C.3   179  ILE179      0.1692
    110  C         15.8190    6.5330  113.2050 C.2   179  ILE179      0.2593
    111  O         15.5620    7.3880  112.3540 O.2   179  ILE179     -0.2718
    112  CB        14.3350    4.4850  112.8430 C.3   179  ILE179      0.0266
    113  CG1       13.5100    3.4330  113.5920 C.3   179  ILE179      0.0019
    114  CG2       15.6050    3.8590  112.2060 C.3   179  ILE179      0.0020
    115  CD1       14.3690    2.5990  114.6140 C.3   179  ILE179      0.0001
    116  N         17.0480    6.3380  113.6710 N.am  180  SER180     -0.1938
    117  CA        18.2000    7.0040  113.0580 C.3   180  SER180      0.2055
    118  C         19.0930    5.9440  112.4220 C.2   180  SER180      0.2642
    119  O         18.8030    4.7480  112.4920 O.2   180  SER180     -0.2714
    120  CB        18.9910    7.8090  114.1020 C.3   180  SER180      0.2130
    121  OG        18.1890    8.8330  114.6580 O.3   180  SER180     -0.2179
    122  N         20.1800    6.3740  111.7970 N.am  181  LEU181     -0.1977
    123  CA        21.1070    5.4260  111.1890 C.3   181  LEU181      0.1596
    124  C         21.6210    4.4140  112.2200 C.2   181  LEU181      0.2287
    125  O         21.6840    3.2200  111.9480 O.2   181  LEU181     -0.2864
    126  CB        22.2410    6.2070  110.5380 C.3   181  LEU181      0.0297
    127  CG        23.0340    5.5690  109.4080 C.3   181  LEU181      0.0022
    128  CD1       23.6490    6.6780  108.5760 C.3   181  LEU181      0.0001
    129  CD2       24.1030    4.6810  109.9930 C.3   181  LEU181      0.0001
    130  N          9.4690    2.9630  109.5110 N.3   239  ILE239     -0.1245
    131  CA        10.5520    2.8640  108.5390 C.3   239  ILE239      0.1561
    132  C         10.5370    1.4460  107.9730 C.2   239  ILE239      0.2260
    133  O         10.2840    0.5070  108.7050 O.2   239  ILE239     -0.2867
    134  CB        11.9200    3.1970  109.1460 C.3   239  ILE239      0.0252
    135  CG1       12.9750    3.3340  108.0360 C.3   239  ILE239      0.0019
    136  CG2       12.3330    2.1040  110.1800 C.3   239  ILE239      0.0019
    137  CD1       14.3340    4.0420  108.5340 C.3   239  ILE239      0.0001
    138  N         17.2670    1.1620  107.2990 N.3   253  HIS253     -0.1241
    139  CA        17.6520    2.4960  106.8540 C.3   253  HIS253      0.1621
    140  C         18.5730    2.5080  105.6360 C.2   253  HIS253      0.2264
    141  O         18.2800    3.1810  104.6530 O.2   253  HIS253     -0.2867
    142  CB        18.3050    3.3080  107.9820 C.3   253  HIS253      0.0745
    143  CG        18.9550    4.5670  107.5010 C.ar  253  HIS253      0.0817
    144  ND1       18.2890    5.7710  107.4360 N.ar  253  HIS253     -0.2268
    145  CD2       20.2110    4.8040  107.0390 C.ar  253  HIS253      0.1154
    146  CE1       19.0970    6.6940  106.9490 C.ar  253  HIS253      0.1986
    147  NE2       20.2710    6.1360  106.7010 N.ar  253  HIS253     -0.2212
@<TRIPOS>BOND
     1    33    32    2
     2    32    31    1
     3    30    31    1
     4    31    34    1
     5    34    35    1
     6    35    36   ar
     7    35    37   ar
     8    36    38   ar
     9    37    39   ar
    10    38    39   ar
    11    23    22    2
    12     1     2    1
    13    40    41    1
    14    22    21    1
    15     4     3    2
    16    41    42    1
    17    21    20    1
    18    21    24    1
    19     7     9   ar
    20     7     6   ar
    21    50    49    1
    22    50    44    1
    23     3     2    1
    24     2     5    1
    25    18    17    2
    26     9    10   ar
    27    49    48    1
    28     5     6    1
    29    17    16    1
    30     6     8   ar
    31    42    44   am
    32    42    43    2
    33    44    45    1
    34    24    25    1
    35    15    16    1
    36    10     8   ar
    37    48    45    1
    38    16    19    1
    39    25    27   ar
    40    25    26   ar
    41    45    46    1
    42    11    12    1
    43    47    46    2
    44    27    29   ar
    45    46    51   am
    46    26    28   ar
    47    13    14    2
    48    13    12    1
    49   141   140    2
    50    29    28   ar
    51    51    52    1
    52   140   139    1
    53    58    56    1
    54    52    53    1
    55    52    55    1
    56    81    80   ar
    57    82    80   ar
    58    99    97   ar
    59    53    54    2
    60   147   146   ar
    61   147   145   ar
    62    80    79    1
    63    96    97    1
    64    96    93    1
    65    56    55    1
    66    56    57    1
    67    97    98   ar
    68   139   138    1
    69   139   142    1
    70   146   144   ar
    71   145   143   ar
    72    59    60    1
    73   144   143   ar
    74   143   142    1
    75    92    93    1
    76    93    94    1
    77   132   131    1
    78   132   133    2
    79   135   137    1
    80   135   134    1
    81    79    76    1
    82    60    61    1
    83   131   134    1
    84   131   130    1
    85   128   127    1
    86    76    75    1
    87    76    77    1
    88   107   105   am
    89   134   136    1
    90    94    95    2
    91   127   129    1
    92   127   126    1
    93    75    73   am
    94    61    62    2
    95    61    63   am
    96    77    78    2
    97    88    89    1
    98    88    87    1
    99   105   104    1
   100   105   106    2
   101    90    89   ar
   102    73    72    1
   103    73    74    2
   104   126   123    1
   105    63    64    1
   106    89    91   ar
   107    87    84    1
   108   104   101    1
   109    72    71    1
   110    71    65   am
   111   123   122    1
   112   123   124    1
   113   122   118   am
   114    65    64    1
   115    65    66    2
   116    64    67    1
   117   125   124    2
   118   100   101    1
   119   101   102    1
   120   114   112    1
   121    84    85    1
   122    84    83    1
   123   111   110    2
   124    86    85    2
   125   118   119    2
   126   118   117    1
   127    70    68   ar
   128    67    68    1
   129   112   113    1
   130   112   109    1
   131    68    69   ar
   132   117   116    1
   133   117   120    1
   134   110   116   am
   135   110   109    1
   136   102   103    2
   137   113   115    1
   138   109   108    1
   139   120   121    1
