@<TRIPOS>MOLECULE
tmp/3m49A01.pdb
 82 80 0 0 0
SMALL
GASTEIGER

@<TRIPOS>ATOM
      1  N          9.9190   20.3570   83.1040 N.3    49  PRO49      -0.2102
      2  CA        10.3430   20.3630   84.5070 C.3    49  PRO49       0.1504
      3  C         10.9490   21.7080   84.9630 C.2    49  PRO49       0.2576
      4  O         11.1150   21.9020   86.1680 O.2    49  PRO49      -0.2718
      5  CB        11.3810   19.2140   84.5720 C.3    49  PRO49       0.0282
      6  CG        11.8700   19.0500   83.1340 C.3    49  PRO49       0.0208
      7  CD        10.6230   19.3260   82.3070 C.3    49  PRO49       0.0893
      8  N         11.2570   22.6240   84.0400 N.am   50  THR50      -0.1953
      9  CA        11.7930   23.9190   84.4630 C.3    50  THR50       0.1897
     10  C         10.7480   25.0420   84.3990 C.2    50  THR50       0.2313
     11  O         11.0960   26.2120   84.4670 O.2    50  THR50      -0.2863
     12  CB        13.0430   24.3410   83.6530 C.3    50  THR50       0.1794
     13  OG1       12.6650   24.6660   82.3080 O.3    50  THR50      -0.2208
     14  CG2       14.1010   23.2490   83.6620 C.3    50  THR50       0.0378
     15  N         21.6270    8.8460   85.3890 N.3    91  LYS91      -0.1245
     16  CA        20.7730    9.9670   85.7410 C.3    91  LYS91       0.1561
     17  C         20.1570    9.7780   87.0960 C.2    91  LYS91       0.2260
     18  O         19.3130   10.5680   87.5050 O.2    91  LYS91      -0.2867
     19  CB        19.6660   10.1140   84.6820 C.3    91  LYS91       0.0271
     20  CG        20.2190   10.7980   83.4330 C.3    91  LYS91       0.0035
     21  CD        19.4410   10.4690   82.2130 C.3    91  LYS91       0.0206
     22  CE        19.9500   11.3020   81.0340 C.3    91  LYS91       0.1093
     23  NZ        19.0490   11.1080   79.8710 N.3    91  LYS91      -0.1314
     24  N         20.7980   18.2810   91.4380 N.3    98  TYR98      -0.1227
     25  CA        20.2990   19.3250   90.5420 C.3    98  TYR98       0.1736
     26  C         21.2060   19.4170   89.3130 C.2    98  TYR98       0.2596
     27  O         22.4280   19.3780   89.4480 O.2    98  TYR98      -0.2718
     28  CB        20.3310   20.6570   91.2800 C.3    98  TYR98       0.0548
     29  CG        20.1120   21.8630   90.3930 C.ar   98  TYR98      -0.0200
     30  CD1       18.8550   22.1250   89.8630 C.ar   98  TYR98      -0.0009
     31  CD2       21.1580   22.7340   90.0930 C.ar   98  TYR98      -0.0009
     32  CE1       18.6320   23.2270   89.0450 C.ar   98  TYR98       0.0417
     33  CE2       20.9520   23.8500   89.2930 C.ar   98  TYR98       0.0417
     34  CZ        19.6820   24.0820   88.7700 C.ar   98  TYR98       0.1957
     35  OH        19.4410   25.1680   87.9700 O.3    98  TYR98      -0.2866
     36  N         20.6110   19.5160   88.1290 N.am   99  GLY99      -0.1942
     37  CA        21.3750   19.6100   86.8920 C.3    99  GLY99       0.2014
     38  C         21.7350   18.2740   86.2430 C.2    99  GLY99       0.2639
     39  O         22.1880   18.2490   85.1040 O.2    99  GLY99      -0.2714
     40  N         21.5390   17.1620   86.9490 N.am  100  HIS100     -0.1959
     41  CA        21.8880   15.8430   86.4020 C.3   100  HIS100      0.1787
     42  C         20.6660   14.9980   86.0890 C.2   100  HIS100      0.2621
     43  O         20.7660   13.9570   85.4410 O.2   100  HIS100     -0.2715
     44  CB        22.7810   15.0810   87.3830 C.3   100  HIS100      0.0785
     45  CG        24.1770   15.6130   87.4670 C.ar  100  HIS100      0.0821
     46  ND1       25.2580   14.9610   86.9180 N.ar  100  HIS100     -0.2267
     47  CD2       24.6690   16.7500   88.0250 C.ar  100  HIS100      0.1154
     48  CE1       26.3570   15.6660   87.1370 C.ar  100  HIS100      0.1986
     49  NE2       26.0240   16.7570   87.8040 N.ar  100  HIS100     -0.2212
     50  N         19.5080   15.4310   86.5780 N.am  101  THR101     -0.1937
     51  CA        18.3000   14.6000   86.5020 C.3   101  THR101      0.2028
     52  C         17.1210   15.5140   86.2730 C.2   101  THR101      0.2642
     53  O         16.9670   16.5280   86.9690 O.2   101  THR101     -0.2714
     54  CB        18.0800   13.8330   87.8170 C.3   101  THR101      0.1808
     55  OG1       19.2680   13.0860   88.1270 O.3   101  THR101     -0.2208
     56  CG2       16.8650   12.8690   87.7100 C.3   101  THR101      0.0379
     57  N         16.3050   15.1840   85.2770 N.am  102  ALA102     -0.1963
     58  CA        15.1380   16.0010   84.9740 C.3   102  ALA102      0.1728
     59  C         14.2050   16.0110   86.1840 C.2   102  ALA102      0.2616
     60  O         13.9250   14.9620   86.7700 O.2   102  ALA102     -0.2715
     61  CB        14.3970   15.4390   83.7380 C.3   102  ALA102      0.0334
     62  N         13.7050   17.1820   86.5480 N.am  103  GLY103     -0.1955
     63  CA        12.7830   17.2990   87.6650 C.3   103  GLY103      0.1869
     64  C         13.3950   17.4350   89.0530 C.2   103  GLY103      0.2309
     65  O         12.6650   17.5970   90.0290 O.2   103  GLY103     -0.2863
     66  N         28.9680   22.7240   93.8970 N.3   436  LEU436     -0.1245
     67  CA        28.5840   21.4790   93.2460 C.3   436  LEU436      0.1561
     68  C         27.4000   21.7180   92.3370 C.2   436  LEU436      0.2260
     69  O         27.3060   21.1240   91.2620 O.2   436  LEU436     -0.2867
     70  CB        28.2170   20.4100   94.2850 C.3   436  LEU436      0.0270
     71  CG        27.8180   19.0280   93.7800 C.3   436  LEU436      0.0019
     72  CD1       28.9610   18.3840   92.9700 C.3   436  LEU436      0.0001
     73  CD2       27.4120   18.1200   94.9560 C.3   436  LEU436      0.0001
     74  N         26.7110   24.4680   90.9030 N.3   437  GLN437     -0.1245
     75  CA        27.1370   25.5010   89.9390 C.3   437  GLN437      0.1566
     76  C         26.2800   26.7590   90.0230 C.2   437  GLN437      0.2260
     77  O         25.8290   27.2960   88.9980 O.2   437  GLN437     -0.2867
     78  CB        27.2090   24.9520   88.4990 C.3   437  GLN437      0.0367
     79  CG        28.1340   23.7150   88.3640 C.3   437  GLN437      0.0905
     80  CD        28.2390   23.2190   86.9180 C.2   437  GLN437      0.2608
     81  OE1       28.3240   24.0060   85.9980 O.2   437  GLN437     -0.2717
     82  NE2       28.2360   21.9040   86.7300 N.am  437  GLN437     -0.0878
@<TRIPOS>BOND
     1    23    22    1
     2    22    21    1
     3    21    20    1
     4     7     1    1
     5     7     6    1
     6    13    12    1
     7     1     2    1
     8     6     5    1
     9    20    19    1
    10    12    14    1
    11    12     9    1
    12    61    58    1
    13     8     9    1
    14     8     3   am
    15    10     9    1
    16    10    11    2
    17     2     5    1
    18     2     3    1
    19    19    16    1
    20     3     4    2
    21    58    57    1
    22    58    59    1
    23    39    38    2
    24    57    52   am
    25    15    16    1
    26    43    42    2
    27    16    17    1
    28    81    80    2
    29    42    41    1
    30    42    50   am
    31    59    62   am
    32    59    60    2
    33    38    37    1
    34    38    40   am
    35    52    51    1
    36    52    53    2
    37    41    40    1
    38    41    44    1
    39    51    50    1
    40    51    54    1
    41    62    63    1
    42    82    80   am
    43    37    36    1
    44    46    48   ar
    45    46    45   ar
    46    80    79    1
    47    17    18    2
    48    48    49   ar
    49    44    45    1
    50    45    47   ar
    51    63    64    1
    52    56    54    1
    53    49    47   ar
    54    54    55    1
    55    35    34    1
    56    36    26   am
    57    79    78    1
    58    78    75    1
    59    34    32   ar
    60    34    33   ar
    61    77    76    2
    62    32    30   ar
    63    64    65    2
    64    33    31   ar
    65    26    27    2
    66    26    25    1
    67    30    29   ar
    68    75    76    1
    69    75    74    1
    70    31    29   ar
    71    29    28    1
    72    25    28    1
    73    25    24    1
    74    69    68    2
    75    68    67    1
    76    72    71    1
    77    67    66    1
    78    67    70    1
    79    71    70    1
    80    71    73    1
