@<TRIPOS>MOLECULE
tmp/3m4cB01.pdb
 103 99 0 0 0
SMALL
GASTEIGER

@<TRIPOS>ATOM
      1  N        -83.8270   23.3390   17.5610 N.3    27  LYS27      -0.1245
      2  CA       -82.3690   23.4350   17.5840 C.3    27  LYS27       0.1561
      3  C        -81.8490   24.1860   18.8150 C.2    27  LYS27       0.2260
      4  O        -80.8970   23.7400   19.4600 O.2    27  LYS27      -0.2867
      5  CB       -81.8440   24.0830   16.3000 C.3    27  LYS27       0.0271
      6  CG       -80.3270   24.0340   16.1860 C.3    27  LYS27       0.0035
      7  CD       -79.8550   24.3600   14.7830 C.3    27  LYS27       0.0206
      8  CE       -79.5230   25.8290   14.6100 C.3    27  LYS27       0.1093
      9  NZ       -78.8340   26.0570   13.3020 N.3    27  LYS27      -0.1314
     10  N        -79.5650   22.5290   21.7630 N.3    31  THR31      -0.1218
     11  CA       -78.2820   23.1790   22.0450 C.3    31  THR31       0.1862
     12  C        -78.1470   23.4400   23.5470 C.2    31  THR31       0.2287
     13  O        -77.1120   23.1370   24.1550 O.2    31  THR31      -0.2866
     14  CB       -78.1450   24.4980   21.2430 C.3    31  THR31       0.1770
     15  OG1      -78.1310   24.1980   19.8400 O.3    31  THR31      -0.2211
     16  CG2      -76.8540   25.2450   21.6050 C.3    31  THR31       0.0375
     17  N        -77.5590   20.0530   25.3830 N.3    34  ALA34      -0.1231
     18  CA       -76.1790   19.5860   25.2470 C.3    34  ALA34       0.1694
     19  C        -75.2350   20.2940   26.2270 C.2    34  ALA34       0.2591
     20  O        -74.3730   19.6530   26.8310 O.2    34  ALA34      -0.2718
     21  CB       -75.7000   19.7570   23.8140 C.3    34  ALA34       0.0304
     22  N        -75.4180   21.6030   26.4000 N.am   35  ALA35      -0.1980
     23  CA       -74.6100   22.3800   27.3470 C.3    35  ALA35       0.1597
     24  C        -74.8550   21.9600   28.7990 C.2    35  ALA35       0.2287
     25  O        -73.9230   21.9330   29.6060 O.2    35  ALA35      -0.2864
     26  CB       -74.8680   23.8640   27.1760 C.3    35  ALA35       0.0319
     27  N        -73.2350   18.6060   29.2740 N.3    38  ALA38      -0.1245
     28  CA       -71.7870   18.8150   29.3300 C.3    38  ALA38       0.1562
     29  C        -71.3370   19.2090   30.7360 C.2    38  ALA38       0.2260
     30  O        -70.2610   18.8090   31.1830 O.2    38  ALA38      -0.2867
     31  CB       -71.3550   19.8750   28.3240 C.3    38  ALA38       0.0290
     32  N        -72.2280   15.9400   33.4370 N.3    41  TRP41      -0.1241
     33  CA       -71.5960   14.6240   33.3120 C.3    41  TRP41       0.1605
     34  C        -70.5180   14.3480   34.3680 C.2    41  TRP41       0.2264
     35  O        -70.2950   13.1960   34.7400 O.2    41  TRP41      -0.2867
     36  CB       -71.0930   14.3570   31.8780 C.3    41  TRP41       0.0550
     37  CG       -69.7560   14.9420   31.5190 C.ar   41  TRP41       0.0003
     38  CD1      -69.5210   16.1670   30.9650 C.ar   41  TRP41       0.0946
     39  CD2      -68.4730   14.3110   31.6520 C.ar   41  TRP41       0.0152
     40  NE1      -68.1720   16.3510   30.7630 N.ar   41  TRP41      -0.2442
     41  CE2      -67.5060   15.2270   31.1790 C.ar   41  TRP41       0.0810
     42  CE3      -68.0470   13.0660   32.1380 C.ar   41  TRP41       0.0012
     43  CZ2      -66.1360   14.9380   31.1750 C.ar   41  TRP41       0.0191
     44  CZ3      -66.6790   12.7790   32.1300 C.ar   41  TRP41       0.0001
     45  CH2      -65.7450   13.7110   31.6490 C.ar   41  TRP41       0.0015
     46  N        -73.1840   10.4870   28.5610 N.3    66  TRP66      -0.1241
     47  CA       -72.5500   10.3310   27.2560 C.3    66  TRP66       0.1605
     48  C        -73.5540    9.7770   26.2440 C.2    66  TRP66       0.2264
     49  O        -73.5980   10.2100   25.0870 O.2    66  TRP66      -0.2867
     50  CB       -71.3260    9.4240   27.3660 C.3    66  TRP66       0.0550
     51  CG       -70.3450    9.5970   26.2510 C.ar   66  TRP66       0.0003
     52  CD1      -69.8120    8.6110   25.4690 C.ar   66  TRP66       0.0946
     53  CD2      -69.7760   10.8300   25.7870 C.ar   66  TRP66       0.0152
     54  NE1      -68.9450    9.1530   24.5500 N.ar   66  TRP66      -0.2442
     55  CE2      -68.9060   10.5120   24.7210 C.ar   66  TRP66       0.0810
     56  CE3      -69.9200   12.1730   26.1660 C.ar   66  TRP66       0.0012
     57  CZ2      -68.1730   11.4870   24.0330 C.ar   66  TRP66       0.0191
     58  CZ3      -69.1940   13.1450   25.4800 C.ar   66  TRP66       0.0001
     59  CH2      -68.3280   12.7920   24.4280 C.ar   66  TRP66       0.0015
     60  N        -75.8660   12.7190   25.4680 N.3    69  ILE69      -0.1245
     61  CA       -75.1920   13.6540   24.5570 C.3    69  ILE69       0.1561
     62  C        -75.2040   13.1130   23.1230 C.2    69  ILE69       0.2260
     63  O        -75.4730   13.8570   22.1790 O.2    69  ILE69      -0.2867
     64  CB       -73.7580   14.0000   25.0430 C.3    69  ILE69       0.0252
     65  CG1      -73.8370   14.7960   26.3540 C.3    69  ILE69       0.0019
     66  CG2      -72.9840   14.8010   23.9820 C.3    69  ILE69       0.0019
     67  CD1      -72.5700   14.7570   27.2120 C.3    69  ILE69       0.0001
     68  N        -77.2250   14.7650   19.7800 N.3    73  HIS73      -0.1241
     69  CA       -76.5800   15.0020   18.4890 C.3    73  HIS73       0.1621
     70  C        -77.3760   14.4580   17.3150 C.2    73  HIS73       0.2264
     71  O        -77.4620   15.1050   16.2710 O.2    73  HIS73      -0.2867
     72  CB       -75.1580   14.4570   18.4820 C.3    73  HIS73       0.0745
     73  CG       -74.1800   15.3850   19.1130 C.ar   73  HIS73       0.0817
     74  ND1      -74.0400   15.4960   20.4800 N.ar   73  HIS73      -0.2268
     75  CD2      -73.3270   16.2810   18.5700 C.ar   73  HIS73       0.1154
     76  CE1      -73.1260   16.4090   20.7500 C.ar   73  HIS73       0.1986
     77  NE2      -72.6790   16.9010   19.6090 N.ar   73  HIS73      -0.2212
     78  N        -80.1720   16.8530   16.9280 N.3    76  LEU76      -0.1231
     79  CA       -79.6470   18.0920   16.3380 C.3    76  LEU76       0.1693
     80  C        -79.4320   17.9470   14.8370 C.2    76  LEU76       0.2592
     81  O        -79.7410   18.8600   14.0640 O.2    76  LEU76      -0.2718
     82  CB       -78.3210   18.4890   16.9930 C.3    76  LEU76       0.0284
     83  CG       -78.3640   19.2570   18.3160 C.3    76  LEU76       0.0019
     84  CD1      -77.0090   19.1570   19.0220 C.3    76  LEU76       0.0001
     85  CD2      -78.7550   20.7240   18.0760 C.3    76  LEU76       0.0001
     86  N        -78.8980   16.7960   14.4310 N.am   77  HIS77      -0.1976
     87  CA       -78.6470   16.5260   13.0230 C.3    77  HIS77       0.1656
     88  C        -79.9460   16.6600   12.2190 C.2    77  HIS77       0.2291
     89  O        -79.9520   17.2590   11.1410 O.2    77  HIS77      -0.2864
     90  CB       -78.0230   15.1390   12.8550 C.3    77  HIS77       0.0771
     91  CG       -77.3560   14.9310   11.5320 C.ar   77  HIS77       0.0820
     92  ND1      -78.0410   14.5160   10.4110 N.ar   77  HIS77      -0.2267
     93  CD2      -76.0650   15.0760   11.1510 C.ar   77  HIS77       0.1154
     94  CE1      -77.2010   14.4170    9.3950 C.ar   77  HIS77       0.1986
     95  NE2      -75.9960   14.7510    9.8180 N.ar   77  HIS77      -0.2212
     96  N        -81.2630   20.3670   12.1740 N.3    80  ASN80      -0.1240
     97  CA       -80.4410   21.1280   11.2240 C.3    80  ASN80       0.1653
     98  C        -80.8750   20.9220    9.7700 C.2    80  ASN80       0.2266
     99  O        -80.6040   21.7650    8.9040 O.2    80  ASN80      -0.2867
    100  CB       -78.9450   20.8190   11.4090 C.3    80  ASN80       0.1155
    101  CG       -78.2690   21.7520   12.4210 C.2    80  ASN80       0.2627
    102  OD1      -78.5040   22.9630   12.4140 O.2    80  ASN80      -0.2716
    103  ND2      -77.4130   21.1950   13.2760 N.am   80  ASN80      -0.0877
@<TRIPOS>BOND
     1    99    98    2
     2    94    95   ar
     3    94    92   ar
     4    98    97    1
     5    95    93   ar
     6    92    91   ar
     7    89    88    2
     8    93    91   ar
     9    97   100    1
    10    97    96    1
    11   100   101    1
    12    91    90    1
    13    88    87    1
    14   102   101    2
    15   101   103   am
    16    90    87    1
    17    87    86    1
    18     9     8    1
    19    81    80    2
    20    86    80   am
    21     8     7    1
    22     7     6    1
    23    80    79    1
    24     6     5    1
    25    71    70    2
    26     5     2    1
    27    79    78    1
    28    79    82    1
    29    82    83    1
    30    70    69    1
    31     1     2    1
    32     2     3    1
    33    85    83    1
    34    83    84    1
    35    72    69    1
    36    72    73    1
    37    69    68    1
    38    75    73   ar
    39    75    77   ar
    40     3     4    2
    41    73    74   ar
    42    77    76   ar
    43    15    14    1
    44    74    76   ar
    45    14    16    1
    46    14    11    1
    47    10    11    1
    48    11    12    1
    49    63    62    2
    50    62    61    1
    51    12    13    2
    52    21    18    1
    53    66    64    1
    54    57    59   ar
    55    57    55   ar
    56    59    58   ar
    57    54    55   ar
    58    54    52   ar
    59    61    64    1
    60    61    60    1
    61    55    53   ar
    62    64    65    1
    63    49    48    2
    64    18    17    1
    65    18    19    1
    66    52    51   ar
    67    58    56   ar
    68    53    56   ar
    69    53    51   ar
    70    19    22   am
    71    19    20    2
    72    48    47    1
    73    51    50    1
    74    65    67    1
    75    22    23    1
    76    26    23    1
    77    47    50    1
    78    47    46    1
    79    23    24    1
    80    31    28    1
    81    24    25    2
    82    27    28    1
    83    28    29    1
    84    29    30    2
    85    40    38   ar
    86    40    41   ar
    87    38    37   ar
    88    43    41   ar
    89    43    45   ar
    90    41    39   ar
    91    37    39   ar
    92    37    36    1
    93    45    44   ar
    94    39    42   ar
    95    36    33    1
    96    44    42   ar
    97    33    32    1
    98    33    34    1
    99    34    35    2
