@<TRIPOS>MOLECULE
tmp/3m4fB01.pdb
 123 119 0 0 0
SMALL
GASTEIGER

@<TRIPOS>ATOM
      1  N        -19.5420   33.5720   12.4590 N.3     9  GLN9       -0.1245
      2  CA       -19.8880   34.1300   11.1500 C.3     9  GLN9        0.1566
      3  C        -19.3900   35.5780   11.0940 C.2     9  GLN9        0.2260
      4  O        -19.7470   36.3920   11.9710 O.2     9  GLN9       -0.2867
      5  CB       -21.4160   34.1070   10.9340 C.3     9  GLN9        0.0367
      6  CG       -21.9170   34.8790    9.6670 C.3     9  GLN9        0.0905
      7  CD       -21.2150   34.4910    8.3780 C.2     9  GLN9        0.2608
      8  OE1      -20.9770   35.3410    7.4730 O.2     9  GLN9       -0.2717
      9  NE2      -20.8810   33.2310    8.2650 N.am    9  GLN9       -0.0878
     10  N        -18.8440   38.1220    7.9260 N.3    11  TYR11      -0.1241
     11  CA       -18.7160   38.6960    6.6040 C.3    11  TYR11       0.1605
     12  C        -18.7770   40.2000    6.7540 C.2    11  TYR11       0.2264
     13  O        -19.8270   40.7440    7.1270 O.2    11  TYR11      -0.2867
     14  CB       -19.8360   38.2130    5.6800 C.3    11  TYR11       0.0534
     15  CG       -19.8250   38.9230    4.3620 C.ar   11  TYR11      -0.0201
     16  CD1      -18.7440   38.7820    3.4830 C.ar   11  TYR11      -0.0009
     17  CD2      -20.8510   39.7790    4.0090 C.ar   11  TYR11      -0.0009
     18  CE1      -18.7200   39.4660    2.2500 C.ar   11  TYR11       0.0417
     19  CE2      -20.8340   40.4680    2.7820 C.ar   11  TYR11       0.0417
     20  CZ       -19.7550   40.3070    1.9300 C.ar   11  TYR11       0.1957
     21  OH       -19.7400   40.9720    0.7180 O.3    11  TYR11      -0.2866
     22  N        -22.9050   45.8770    2.9970 N.3    36  ASP36      -0.1239
     23  CA       -23.5260   44.6890    3.5840 C.3    36  ASP36       0.1674
     24  C        -22.5560   43.9470    4.5350 C.2    36  ASP36       0.2266
     25  O        -21.3910   43.7600    4.2160 O.2    36  ASP36      -0.2867
     26  CB       -24.0070   43.7430    2.4650 C.3    36  ASP36       0.1410
     27  CG       -24.7740   42.5620    3.0050 C.2    36  ASP36       0.3668
     28  OD1      -25.8820   42.7510    3.5380 O.co2  36  ASP36      -0.2456
     29  OD2      -24.2480   41.4330    2.9190 O.co2  36  ASP36      -0.2456
     30  N        -22.7080   40.3940    7.4380 N.3    38  VAL38      -0.1245
     31  CA       -23.4980   39.3580    8.1060 C.3    38  VAL38       0.1561
     32  C        -22.5940   38.7370    9.1450 C.2    38  VAL38       0.2260
     33  O        -21.5270   38.1980    8.7890 O.2    38  VAL38      -0.2867
     34  CB       -23.9730   38.2210    7.1520 C.3    38  VAL38       0.0252
     35  CG1      -24.7980   37.1880    7.9570 C.3    38  VAL38       0.0019
     36  CG2      -24.7750   38.7680    5.9450 C.3    38  VAL38       0.0019
     37  N        -29.5320   32.1110    9.7170 N.3    69  TYR69      -0.1241
     38  CA       -28.9190   32.3130    8.4030 C.3    69  TYR69       0.1605
     39  C        -27.9750   31.1510    8.0820 C.2    69  TYR69       0.2264
     40  O        -27.1710   30.7250    8.9250 O.2    69  TYR69      -0.2867
     41  CB       -28.1280   33.6530    8.3800 C.3    69  TYR69       0.0534
     42  CG       -27.3280   33.8410    7.1010 C.ar   69  TYR69      -0.0201
     43  CD1      -27.9600   34.2250    5.9020 C.ar   69  TYR69      -0.0009
     44  CD2      -25.9440   33.6380    7.0860 C.ar   69  TYR69      -0.0009
     45  CE1      -27.1990   34.3770    4.6990 C.ar   69  TYR69       0.0417
     46  CE2      -25.1860   33.8120    5.9080 C.ar   69  TYR69       0.0417
     47  CZ       -25.8320   34.1870    4.7230 C.ar   69  TYR69       0.1957
     48  OH       -25.0670   34.3440    3.5850 O.3    69  TYR69      -0.2866
     49  N        -26.4950   28.1210    4.7220 N.3    71  TRP71      -0.1241
     50  CA       -26.4620   27.6010    3.3600 C.3    71  TRP71       0.1605
     51  C        -26.6510   26.0830    3.2590 C.2    71  TRP71       0.2264
     52  O        -26.3690   25.3320    4.2160 O.2    71  TRP71      -0.2867
     53  CB       -25.1240   27.9590    2.7060 C.3    71  TRP71       0.0550
     54  CG       -24.9480   29.4310    2.3600 C.ar   71  TRP71       0.0003
     55  CD1      -24.7450   30.4720    3.2470 C.ar   71  TRP71       0.0946
     56  CD2      -24.9230   30.0090    1.0460 C.ar   71  TRP71       0.0152
     57  NE1      -24.6140   31.6540    2.5530 N.ar   71  TRP71      -0.2442
     58  CE2      -24.7130   31.4070    1.2070 C.ar   71  TRP71       0.0810
     59  CE3      -25.0530   29.4840   -0.2560 C.ar   71  TRP71       0.0012
     60  CZ2      -24.6300   32.3030    0.1050 C.ar   71  TRP71       0.0191
     61  CZ3      -24.9900   30.3800   -1.3600 C.ar   71  TRP71       0.0001
     62  CH2      -24.7580   31.7660   -1.1620 C.ar   71  TRP71       0.0015
     63  N        -29.1760   29.6260   -0.1490 N.3    78  GLU78      -0.1245
     64  CA       -28.8890   30.5330    0.9660 C.3    78  GLU78       0.1567
     65  C        -30.2560   30.7550    1.6450 C.2    78  GLU78       0.2260
     66  O        -31.2560   31.0180    0.9720 O.2    78  GLU78      -0.2867
     67  CB       -28.3300   31.8480    0.3990 C.3    78  GLU78       0.0388
     68  CG       -27.8630   32.8250    1.4810 C.3    78  GLU78       0.1160
     69  CD       -27.4570   34.1550    0.9200 C.2    78  GLU78       0.3649
     70  OE1      -28.0850   34.6100   -0.0630 O.co2  78  GLU78      -0.2457
     71  OE2      -26.5400   34.7590    1.4970 O.co2  78  GLU78      -0.2457
     72  N        -30.5220   33.9460   -7.3450 N.3   114  ARG114     -0.1245
     73  CA       -29.3850   34.8240   -7.5300 C.3   114  ARG114      0.1563
     74  C        -28.5000   34.1850   -8.5870 C.2   114  ARG114      0.2260
     75  O        -27.9810   33.0850   -8.3840 O.2   114  ARG114     -0.2867
     76  CB       -28.6200   35.0090   -6.1990 C.3   114  ARG114      0.0307
     77  CG       -29.4410   35.6950   -5.0840 C.3   114  ARG114      0.0489
     78  CD       -29.1490   37.2060   -4.9910 C.3   114  ARG114      0.2205
     79  NE       -27.8130   37.5230   -4.4470 N.pl3 114  ARG114     -0.0865
     80  CZ       -27.1460   38.6560   -4.6870 C.cat 114  ARG114      0.5346
     81  NH1      -27.6700   39.5800   -5.4860 N.pl3 114  ARG114      0.1354
     82  NH2      -25.9460   38.8660   -4.1490 N.pl3 114  ARG114      0.1354
     83  N        -23.8580   35.3160   -8.5720 N.3   117  GLU117     -0.1231
     84  CA       -23.6350   36.2810   -7.5010 C.3   117  GLU117      0.1684
     85  C        -22.5820   35.7680   -6.4980 C.2   117  GLU117      0.2434
     86  O        -22.3300   34.5550   -6.4400 O.2   117  GLU117     -0.2733
     87  CB       -24.9690   36.5850   -6.8060 C.3   117  GLU117      0.0402
     88  CG       -26.0040   37.2900   -7.6950 C.3   117  GLU117      0.1161
     89  CD       -25.6670   38.7460   -7.9670 C.2   117  GLU117      0.3649
     90  OE1      -24.6510   39.2340   -7.4470 O.co2 117  GLU117     -0.2457
     91  OE2      -26.4270   39.4070   -8.6970 O.co2 117  GLU117     -0.2457
     92  N        -21.9340   36.6840   -5.7310 N.am  118  PRO118     -0.2718
     93  CA       -20.9870   36.2240   -4.6940 C.3   118  PRO118      0.1535
     94  C        -21.6340   35.1770   -3.7880 C.2   118  PRO118      0.2599
     95  O        -22.7770   35.3540   -3.3440 O.2   118  PRO118     -0.2715
     96  CB       -20.6100   37.5250   -3.9320 C.3   118  PRO118      0.0310
     97  CG       -20.8420   38.6350   -4.9390 C.3   118  PRO118      0.0237
     98  CD       -22.0190   38.1640   -5.7950 C.3   118  PRO118      0.0939
     99  N        -20.9320   34.0690   -3.5630 N.am  119  SER119     -0.1936
    100  CA       -21.4950   32.9250   -2.8360 C.3   119  SER119      0.2055
    101  C        -20.4280   32.1900   -2.0340 C.2   119  SER119      0.2642
    102  O        -19.2900   32.6230   -1.9790 O.2   119  SER119     -0.2714
    103  CB       -22.1490   31.9430   -3.8080 C.3   119  SER119      0.2130
    104  OG       -21.1410   31.2310   -4.5090 O.3   119  SER119     -0.2179
    105  N        -20.8120   31.0610   -1.4400 N.am  120  ILE120     -0.1977
    106  CA       -19.8750   30.1870   -0.7090 C.3   120  ILE120      0.1596
    107  C        -18.9160   29.3890   -1.6360 C.2   120  ILE120      0.2287
    108  O        -18.0000   28.6970   -1.1630 O.2   120  ILE120     -0.2864
    109  CB       -20.6400   29.2350    0.2690 C.3   120  ILE120      0.0276
    110  CG1      -21.6240   28.3470   -0.4970 C.3   120  ILE120      0.0022
    111  CG2      -21.3400   30.0620    1.3680 C.3   120  ILE120      0.0022
    112  CD1      -22.2130   27.1740    0.2790 C.3   120  ILE120      0.0001
    113  N        -22.6490   25.9170    6.7660 N.3   162  PHE162     -0.1241
    114  CA       -22.7950   26.5640    8.0670 C.3   162  PHE162      0.1605
    115  C        -24.2090   27.1200    8.3970 C.2   162  PHE162      0.2264
    116  O        -25.0840   27.2670    7.5310 O.2   162  PHE162     -0.2867
    117  CB       -21.7090   27.6300    8.2620 C.3   162  PHE162      0.0534
    118  CG       -21.8910   28.8460    7.3920 C.ar  162  PHE162     -0.0203
    119  CD1      -22.8420   29.8250    7.7200 C.ar  162  PHE162     -0.0042
    120  CD2      -21.1160   29.0120    6.2460 C.ar  162  PHE162     -0.0042
    121  CE1      -23.0340   30.9560    6.9180 C.ar  162  PHE162     -0.0003
    122  CE2      -21.2900   30.1650    5.4210 C.ar  162  PHE162     -0.0003
    123  CZ       -22.2470   31.1370    5.7750 C.ar  162  PHE162     -0.0000
@<TRIPOS>BOND
     1    91    89   ar
     2    74    75    2
     3    74    73    1
     4    83    84    1
     5    89    88    1
     6    89    90   ar
     7    88    87    1
     8    73    72    1
     9    73    76    1
    10    84    87    1
    11    84    85    1
    12    85    86    2
    13    85    92   am
    14    76    77    1
    15    98    92    1
    16    98    97    1
    17    92    93    1
    18    81    80    1
    19    77    78    1
    20    78    79    1
    21    97    96    1
    22    93    96    1
    23    93    94    1
    24    80    79    2
    25    80    82    1
    26   104   103    1
    27   103   100    1
    28    94    99   am
    29    94    95    2
    30    99   100    1
    31   100   101    1
    32   101   102    2
    33   101   105   am
    34   107   108    2
    35   107   106    1
    36   105   106    1
    37    61    62   ar
    38    61    59   ar
    39    62    60   ar
    40   106   109    1
    41   110   109    1
    42   110   112    1
    43    59    56   ar
    44    63    64    1
    45    70    69   ar
    46    60    58   ar
    47   109   111    1
    48    67    64    1
    49    67    68    1
    50    21    20    1
    51    69    68    1
    52    69    71   ar
    53    64    65    1
    54    66    65    2
    55    56    58   ar
    56    56    54   ar
    57    58    57   ar
    58    20    18   ar
    59    20    19   ar
    60    18    16   ar
    61    54    53    1
    62    54    55   ar
    63    26    27    1
    64    26    23    1
    65    57    55   ar
    66    53    50    1
    67    19    17   ar
    68    29    27   ar
    69    22    23    1
    70    27    28   ar
    71    51    50    1
    72    51    52    2
    73    50    49    1
    74    16    15   ar
    75    23    24    1
    76    48    47    1
    77    17    15   ar
    78    25    24    2
    79    15    14    1
    80    45    47   ar
    81    45    43   ar
    82    47    46   ar
    83   122   123   ar
    84   122   120   ar
    85    14    11    1
    86   123   121   ar
    87    43    42   ar
    88    46    44   ar
    89    36    34    1
    90   120   118   ar
    91    11    12    1
    92    11    10    1
    93    12    13    2
    94   113   114    1
    95   121   119   ar
    96    44    42   ar
    97    42    41    1
    98    34    35    1
    99    34    31    1
   100   118   119   ar
   101   118   117    1
   102    30    31    1
   103     8     7    2
   104   116   115    2
   105   114   117    1
   106   114   115    1
   107    39    38    1
   108    39    40    2
   109    31    32    1
   110     9     7   am
   111     7     6    1
   112    41    38    1
   113    38    37    1
   114    33    32    2
   115     6     5    1
   116     5     2    1
   117     3     2    1
   118     3     4    2
   119     2     1    1
