@<TRIPOS>MOLECULE
tmp/3m50A00.pdb
 74 68 0 0 0
SMALL
GASTEIGER

@<TRIPOS>ATOM
      1  N         -4.3580  -43.5040   -0.1580 N.3    16  TYR16      -0.1241
      2  CA        -3.9600  -42.1120   -0.2040 C.3    16  TYR16       0.1605
      3  C         -3.6210  -41.6010   -1.5930 C.2    16  TYR16       0.2264
      4  O         -4.0010  -40.4850   -1.9450 O.2    16  TYR16      -0.2867
      5  CB        -2.8780  -41.8510    0.8230 C.3    16  TYR16       0.0534
      6  CG        -3.4360  -41.9530    2.2320 C.ar   16  TYR16      -0.0201
      7  CD1       -4.2500  -40.9510    2.7100 C.ar   16  TYR16      -0.0009
      8  CD2       -3.1650  -43.0790    3.0900 C.ar   16  TYR16      -0.0009
      9  CE1       -4.7930  -40.9940    3.9810 C.ar   16  TYR16       0.0417
     10  CE2       -3.7050  -43.1210    4.3990 C.ar   16  TYR16       0.0417
     11  CZ        -4.5310  -42.0500    4.8160 C.ar   16  TYR16       0.1957
     12  OH        -5.1170  -41.9490    6.0750 O.3    16  TYR16      -0.2866
     13  N         -2.9750  -33.4860    3.6630 N.3    43  VAL43      -0.1245
     14  CA        -2.9740  -34.7910    4.3120 C.3    43  VAL43       0.1561
     15  C         -2.6730  -35.8720    3.2840 C.2    43  VAL43       0.2260
     16  O         -1.8250  -36.7620    3.5130 O.2    43  VAL43      -0.2867
     17  CB        -4.3330  -35.0670    5.0000 C.3    43  VAL43       0.0252
     18  CG1       -4.4990  -36.5260    5.3670 C.3    43  VAL43       0.0019
     19  CG2       -4.5140  -34.1600    6.2400 C.3    43  VAL43       0.0019
     20  N          0.8500  -35.5860    2.2040 N.3    46  LYS46      -0.1231
     21  CA         1.5780  -35.8940    3.4200 C.3    46  LYS46       0.1693
     22  C          1.7820  -37.4030    3.5460 C.2    46  LYS46       0.2592
     23  O          2.9140  -37.8590    3.7440 O.2    46  LYS46      -0.2718
     24  CB         0.8070  -35.3380    4.6240 C.3    46  LYS46       0.0285
     25  CG         1.6310  -35.0390    5.8650 C.3    46  LYS46       0.0035
     26  CD         0.9210  -34.0170    6.7720 C.3    46  LYS46       0.0206
     27  CE         0.7400  -32.6860    6.0350 C.3    46  LYS46       0.1093
     28  NZ        -0.2000  -31.7070    6.6490 N.3    46  LYS46      -0.1314
     29  N          0.6910  -38.1700    3.4050 N.am   47  ASN47      -0.1974
     30  CA         0.7140  -39.6280    3.5040 C.3    47  ASN47       0.1688
     31  C          1.3980  -40.3630    2.3190 C.2    47  ASN47       0.2292
     32  O          2.1850  -41.3170    2.5080 O.2    47  ASN47      -0.2864
     33  CB        -0.6950  -40.1690    3.6730 C.3    47  ASN47       0.1181
     34  CG        -1.2600  -39.9830    5.0930 C.2    47  ASN47       0.2629
     35  OD1       -1.1230  -40.8510    5.9250 O.2    47  ASN47      -0.2716
     36  ND2       -1.9960  -38.9000    5.3180 N.am   47  ASN47      -0.0877
     37  N          4.9250  -39.4220    2.6060 N.3    50  GLY50      -0.1210
     38  CA         5.3430  -40.0310    3.8940 C.3    50  GLY50       0.1956
     39  C          5.7230  -41.4970    3.8120 C.2    50  GLY50       0.2611
     40  O          6.7570  -41.9470    4.3640 O.2    50  GLY50      -0.2717
     41  N          4.8940  -42.2730    3.1220 N.am   51  ALA51      -0.1979
     42  CA         5.1750  -43.6820    2.9690 C.3    51  ALA51       0.1597
     43  C          6.4710  -43.8110    2.1820 C.2    51  ALA51       0.2287
     44  O          7.3520  -44.5480    2.5620 O.2    51  ALA51      -0.2864
     45  CB         3.9520  -44.4330    2.2460 C.3    51  ALA51       0.0319
     46  N          9.4760  -43.0010    4.3670 N.3    54  ALA54      -0.1245
     47  CA         9.7580  -44.0150    5.3460 C.3    54  ALA54       0.1562
     48  C         10.4740  -45.1120    4.6350 C.2    54  ALA54       0.2260
     49  O         11.4410  -45.6690    5.1490 O.2    54  ALA54      -0.2867
     50  CB         8.5130  -44.5400    5.9890 C.3    54  ALA54       0.0290
     51  N         -2.5030  -28.2710   18.3980 N.3   200  ASP200     -0.1239
     52  CA        -1.7570  -28.6470   17.2100 C.3   200  ASP200      0.1674
     53  C         -0.5190  -27.8450   17.6000 C.2   200  ASP200      0.2266
     54  O          0.6050  -28.2280   17.2990 O.2   200  ASP200     -0.2867
     55  CB        -2.2910  -28.1020   15.9000 C.3   200  ASP200      0.1410
     56  CG        -3.3210  -29.0300   15.2330 C.2   200  ASP200      0.3668
     57  OD1       -3.4780  -30.2030   15.6510 O.co2 200  ASP200     -0.2456
     58  OD2       -3.9660  -28.5630   14.2740 O.co2 200  ASP200     -0.2456
     59  N          1.3990  -29.7640   20.5160 N.3   203  LEU203     -0.1231
     60  CA         2.2900  -30.8190   20.0330 C.3   203  LEU203      0.1693
     61  C          3.5650  -30.1800   19.5060 C.2   203  LEU203      0.2591
     62  O          4.6880  -30.5370   19.9560 O.2   203  LEU203     -0.2718
     63  CB         1.6310  -31.6320   18.9320 C.3   203  LEU203      0.0284
     64  CG         2.1290  -33.0040   18.4710 C.3   203  LEU203      0.0019
     65  CD1        2.4460  -33.0480   16.9560 C.3   203  LEU203      0.0001
     66  CD2        3.2540  -33.6720   19.3220 C.3   203  LEU203      0.0001
     67  N          3.3940  -29.2080   18.5860 N.am  204  ILE204     -0.1980
     68  CA         4.5430  -28.7050   17.8230 C.3   204  ILE204      0.1595
     69  C          5.5960  -28.1240   18.7630 C.2   204  ILE204      0.2287
     70  O          6.7440  -28.4810   18.6790 O.2   204  ILE204     -0.2864
     71  CB         4.1280  -27.7370   16.6380 C.3   204  ILE204      0.0276
     72  CG1        3.3530  -28.5050   15.5720 C.3   204  ILE204      0.0022
     73  CG2        5.3400  -27.1190   16.0080 C.3   204  ILE204      0.0022
     74  CD1        2.6290  -27.6370   14.5900 C.3   204  ILE204      0.0001
@<TRIPOS>BOND
     1     4     3    2
     2     3     2    1
     3     2     1    1
     4     2     5    1
     5     5     6    1
     6    43    44    2
     7    43    42    1
     8    20    21    1
     9     6     7   ar
    10     6     8   ar
    11    45    42    1
    12    31    32    2
    13    31    30    1
    14    37    38    1
    15     7     9   ar
    16    42    41    1
    17     8    10   ar
    18    41    39   am
    19    15    16    2
    20    15    14    1
    21    29    30    1
    22    29    22   am
    23    21    22    1
    24    21    24    1
    25    30    33    1
    26    22    23    2
    27    13    14    1
    28    33    34    1
    29    39    38    1
    30    39    40    2
    31     9    11   ar
    32    14    17    1
    33    46    47    1
    34    10    11   ar
    35    24    25    1
    36    48    49    2
    37    48    47    1
    38    11    12    1
    39    17    18    1
    40    17    19    1
    41    34    36   am
    42    34    35    2
    43    47    50    1
    44    25    26    1
    45    27    28    1
    46    27    26    1
    47    58    56   ar
    48    74    72    1
    49    56    57   ar
    50    56    55    1
    51    72    71    1
    52    55    52    1
    53    73    71    1
    54    71    68    1
    55    65    64    1
    56    52    53    1
    57    52    51    1
    58    54    53    2
    59    68    67    1
    60    68    69    1
    61    64    63    1
    62    64    66    1
    63    67    61   am
    64    70    69    2
    65    63    60    1
    66    61    62    2
    67    61    60    1
    68    60    59    1
