@<TRIPOS>MOLECULE
tmp/3m51A00.pdb
 137 128 0 0 0
SMALL
GASTEIGER

@<TRIPOS>ATOM
      1  N        -10.5580  -23.9280    3.0630 N.3    36  VAL36      -0.1245
      2  CA        -9.7460  -24.5240    4.1150 C.3    36  VAL36       0.1561
      3  C         -9.7650  -26.0430    4.0060 C.2    36  VAL36       0.2260
      4  O         -8.7190  -26.6820    3.8860 O.2    36  VAL36      -0.2867
      5  CB       -10.2510  -24.1210    5.5130 C.3    36  VAL36       0.0252
      6  CG1       -9.3310  -24.6760    6.5880 C.3    36  VAL36       0.0019
      7  CG2      -10.3580  -22.6100    5.6240 C.3    36  VAL36       0.0019
      8  N         -8.1350  -27.4240    0.8480 N.3    39  ARG39      -0.1231
      9  CA        -6.7250  -27.1360    1.0550 C.3    39  ARG39       0.1694
     10  C         -6.0970  -28.2280    1.9120 C.2    39  ARG39       0.2592
     11  O         -5.1200  -28.8610    1.5160 O.2    39  ARG39      -0.2718
     12  CB        -6.5690  -25.7810    1.7430 C.3    39  ARG39       0.0321
     13  CG        -5.1330  -25.3470    1.9720 C.3    39  ARG39       0.0489
     14  CD        -5.0770  -24.2110    2.9780 C.3    39  ARG39       0.2205
     15  NE        -5.9730  -23.1170    2.6150 N.pl3  39  ARG39      -0.0865
     16  CZ        -6.3740  -22.1690    3.4560 C.cat  39  ARG39       0.5346
     17  NH1       -5.9670  -22.1810    4.7190 N.pl3  39  ARG39       0.1354
     18  NH2       -7.1890  -21.2110    3.0380 N.pl3  39  ARG39       0.1354
     19  N         -6.6800  -28.4470    3.0860 N.am   40  ASN40      -0.1974
     20  CA        -6.1520  -29.4080    4.0490 C.3    40  ASN40       0.1688
     21  C         -6.3540  -30.8630    3.6390 C.2    40  ASN40       0.2292
     22  O         -5.7970  -31.7720    4.2560 O.2    40  ASN40      -0.2864
     23  CB        -6.7540  -29.1560    5.4320 C.3    40  ASN40       0.1181
     24  CG        -6.2210  -27.8900    6.0740 C.2    40  ASN40       0.2629
     25  OD1       -5.0150  -27.7430    6.2700 O.2    40  ASN40      -0.2716
     26  ND2       -7.1200  -26.9690    6.4060 N.am   40  ASN40      -0.0877
     27  N         -3.3830  -31.4490    0.8590 N.3    43  SER43      -0.1202
     28  CA        -2.1580  -31.6580    1.6210 C.3    43  SER43       0.2020
     29  C         -2.0690  -33.0850    2.1450 C.2    43  SER43       0.2618
     30  O         -1.2010  -33.8560    1.7360 O.2    43  SER43      -0.2717
     31  CB        -2.0860  -30.6770    2.7910 C.3    43  SER43       0.2103
     32  OG        -1.1300  -31.0980    3.7480 O.3    43  SER43      -0.2182
     33  N         -2.9730  -33.4260    3.0570 N.am   44  VAL44      -0.1979
     34  CA        -3.0020  -34.7570    3.6490 C.3    44  VAL44       0.1595
     35  C         -2.8280  -35.8310    2.5820 C.2    44  VAL44       0.2287
     36  O         -2.1310  -36.8240    2.7930 O.2    44  VAL44      -0.2864
     37  CB        -4.3160  -35.0050    4.4030 C.3    44  VAL44       0.0276
     38  CG1       -4.3190  -36.3970    5.0020 C.3    44  VAL44       0.0022
     39  CG2       -4.5110  -33.9550    5.4830 C.3    44  VAL44       0.0022
     40  N          0.6690  -35.4130    1.5670 N.3    47  LYS47      -0.1245
     41  CA         1.4280  -35.7290    2.7680 C.3    47  LYS47       0.1561
     42  C          1.6560  -37.2290    2.8720 C.2    47  LYS47       0.2260
     43  O          2.7830  -37.6870    3.0640 O.2    47  LYS47      -0.2867
     44  CB         0.6980  -35.2260    4.0160 C.3    47  LYS47       0.0271
     45  CG         1.3700  -35.6220    5.3260 C.3    47  LYS47       0.0035
     46  CD         0.7970  -34.8530    6.5130 C.3    47  LYS47       0.0206
     47  CE         1.6850  -34.9960    7.7460 C.3    47  LYS47       0.1093
     48  NZ         1.2350  -34.1360    8.8810 N.3    47  LYS47      -0.1314
     49  N         -2.5350  -17.1080    6.3670 N.3   107  ASP107     -0.1239
     50  CA        -2.5520  -18.5650    6.4250 C.3   107  ASP107      0.1674
     51  C         -2.3470  -19.1400    5.0330 C.2   107  ASP107      0.2266
     52  O         -1.3260  -19.7640    4.7450 O.2   107  ASP107     -0.2867
     53  CB        -3.8880  -19.0660    6.9760 C.3   107  ASP107      0.1410
     54  CG        -4.7180  -17.9550    7.5850 C.2   107  ASP107      0.3668
     55  OD1       -4.5610  -16.7930    7.1540 O.co2 107  ASP107     -0.2456
     56  OD2       -5.5360  -18.2460    8.4840 O.co2 107  ASP107     -0.2456
     57  N          0.5820  -20.7180    4.3890 N.3   111  PHE111     -0.1241
     58  CA         0.2910  -22.1350    4.2260 C.3   111  PHE111      0.1605
     59  C          1.0030  -22.6960    3.0020 C.2   111  PHE111      0.2264
     60  O          1.9160  -23.5150    3.1240 O.2   111  PHE111     -0.2867
     61  CB        -1.2180  -22.3500    4.0990 C.3   111  PHE111      0.0534
     62  CG        -1.6210  -23.7940    3.9870 C.ar  111  PHE111     -0.0203
     63  CD1       -2.2240  -24.4430    5.0530 C.ar  111  PHE111     -0.0042
     64  CD2       -1.4000  -24.5020    2.8170 C.ar  111  PHE111     -0.0042
     65  CE1       -2.5970  -25.7690    4.9530 C.ar  111  PHE111     -0.0003
     66  CE2       -1.7710  -25.8300    2.7110 C.ar  111  PHE111     -0.0003
     67  CZ        -2.3700  -26.4640    3.7820 C.ar  111  PHE111     -0.0000
     68  N          4.6380  -22.4110    2.6110 N.3   114  LYS114     -0.1245
     69  CA         5.1270  -23.4860    3.4580 C.3   114  LYS114      0.1561
     70  C          5.1840  -24.8040    2.6950 C.2   114  LYS114      0.2260
     71  O          6.2240  -25.4610    2.6580 O.2   114  LYS114     -0.2867
     72  CB         4.2450  -23.6370    4.6950 C.3   114  LYS114      0.0271
     73  CG         4.7020  -24.7400    5.6270 C.3   114  LYS114      0.0035
     74  CD         3.8040  -24.8500    6.8410 C.3   114  LYS114      0.0206
     75  CE         4.2240  -26.0200    7.7060 C.3   114  LYS114      0.1093
     76  NZ         4.3020  -27.2690    6.9010 N.3   114  LYS114     -0.1314
     77  N         -0.0780  -19.4290   16.5310 N.3   158  HIS158     -0.1227
     78  CA        -0.8010  -19.9660   15.3850 C.3   158  HIS158      0.1737
     79  C         -0.0960  -21.2000   14.8370 C.2   158  HIS158      0.2438
     80  O          1.1140  -21.1790   14.6080 O.2   158  HIS158     -0.2733
     81  CB        -0.9280  -18.9030   14.2920 C.3   158  HIS158      0.0758
     82  CG        -1.8110  -19.3050   13.1520 C.ar  158  HIS158      0.0818
     83  ND1       -1.5410  -20.3920   12.3490 N.ar  158  HIS158     -0.2268
     84  CD2       -2.9520  -18.7560   12.6710 C.ar  158  HIS158      0.1154
     85  CE1       -2.4830  -20.5010   11.4280 C.ar  158  HIS158      0.1986
     86  NE2       -3.3500  -19.5200   11.6010 N.ar  158  HIS158     -0.2212
     87  N         -0.8550  -22.2850   14.6270 N.am  159  PRO159     -0.2718
     88  CA        -0.2930  -23.5320   14.1270 C.3   159  PRO159      0.1535
     89  C          0.6840  -23.2890   12.9840 C.2   159  PRO159      0.2598
     90  O          1.8620  -23.6310   13.0920 O.2   159  PRO159     -0.2715
     91  CB        -1.5240  -24.2820   13.6200 C.3   159  PRO159      0.0310
     92  CG        -2.6250  -23.8120   14.4980 C.3   159  PRO159      0.0237
     93  CD        -2.3080  -22.3810   14.8520 C.3   159  PRO159      0.0939
     94  N          0.1940  -22.6990   11.8990 N.am  160  ILE160     -0.1978
     95  CA         1.0260  -22.4410   10.7320 C.3   160  ILE160      0.1596
     96  C          2.3360  -21.7740   11.1370 C.2   160  ILE160      0.2287
     97  O          3.4170  -22.2980   10.8730 O.2   160  ILE160     -0.2864
     98  CB         0.2960  -21.5660    9.6970 C.3   160  ILE160      0.0276
     99  CG1       -1.1000  -22.1270    9.4160 C.3   160  ILE160      0.0022
    100  CG2        1.1050  -21.4790    8.4110 C.3   160  ILE160      0.0022
    101  CD1       -1.0890  -23.5270    8.8350 C.3   160  ILE160      0.0001
    102  N          4.0510  -24.5020   12.5630 N.3   163  GLY163     -0.1225
    103  CA         4.3160  -25.5240   11.5560 C.3   163  GLY163      0.1811
    104  C          5.4990  -25.1550   10.6840 C.2   163  GLY163      0.2280
    105  O          6.4400  -25.9350   10.5240 O.2   163  GLY163     -0.2866
    106  N          9.4600  -27.1870   10.4800 N.3   167  ASN167     -0.1240
    107  CA        10.0590  -27.6970    9.2570 C.3   167  ASN167      0.1653
    108  C         11.2560  -26.8660    8.8230 C.2   167  ASN167      0.2266
    109  O         12.3510  -27.3940    8.6350 O.2   167  ASN167     -0.2867
    110  CB         9.0190  -27.7760    8.1410 C.3   167  ASN167      0.1155
    111  CG         8.0050  -28.8750    8.3730 C.2   167  ASN167      0.2627
    112  OD1        8.2680  -29.8360    9.0950 O.2   167  ASN167     -0.2716
    113  ND2        6.8390  -28.7420    7.7590 N.am  167  ASN167     -0.0877
    114  N         -3.5890  -28.3360   18.1710 N.3   201  ASP201     -0.1239
    115  CA        -2.7550  -28.3260   16.9770 C.3   201  ASP201      0.1674
    116  C         -1.4400  -27.6090   17.2470 C.2   201  ASP201      0.2266
    117  O         -0.3710  -28.1060   16.8990 O.2   201  ASP201     -0.2867
    118  CB        -3.4930  -27.6670   15.8110 C.3   201  ASP201      0.1410
    119  CG        -4.7000  -28.4680   15.3590 C.2   201  ASP201      0.3668
    120  OD1       -5.0280  -29.4730   16.0250 O.co2 201  ASP201     -0.2456
    121  OD2       -5.3200  -28.0970   14.3400 O.co2 201  ASP201     -0.2456
    122  N          0.7680  -29.3250   20.1430 N.3   204  LEU204     -0.1231
    123  CA         1.4460  -30.5340   19.6850 C.3   204  LEU204      0.1693
    124  C          2.6850  -30.2210   18.8490 C.2   204  LEU204      0.2591
    125  O          3.5810  -31.0550   18.7190 O.2   204  LEU204     -0.2718
    126  CB         0.4800  -31.4320   18.9060 C.3   204  LEU204      0.0284
    127  CG         1.0590  -32.6850   18.2420 C.3   204  LEU204      0.0019
    128  CD1        1.4950  -32.3990   16.8120 C.3   204  LEU204      0.0001
    129  CD2        2.2080  -33.2590   19.0620 C.3   204  LEU204      0.0001
    130  N          2.7320  -29.0170   18.2870 N.am  205  ILE205     -0.1980
    131  CA         3.8740  -28.5960   17.4810 C.3   205  ILE205      0.1595
    132  C          4.9990  -28.0840   18.3690 C.2   205  ILE205      0.2287
    133  O          6.1680  -28.4030   18.1560 O.2   205  ILE205     -0.2864
    134  CB         3.4920  -27.4810   16.4960 C.3   205  ILE205      0.0276
    135  CG1        2.2450  -27.8700   15.6980 C.3   205  ILE205      0.0022
    136  CG2        4.6600  -27.1700   15.5690 C.3   205  ILE205      0.0022
    137  CD1        1.6830  -26.7390   14.8590 C.3   205  ILE205      0.0001
@<TRIPOS>BOND
     1     8     9    1
     2    27    28    1
     3     9    12    1
     4     9    10    1
     5    11    10    2
     6    40    41    1
     7    28    29    1
     8    28    31    1
     9    30    29    2
    10    12    13    1
    11    10    19   am
    12    13    14    1
    13    29    33   am
    14    35    36    2
    15    35    34    1
    16    68    69    1
    17    15    14    1
    18    15    16    2
    19    71    70    2
    20    70    69    1
    21    66    64   ar
    22    66    67   ar
    23    41    42    1
    24    41    44    1
    25    31    32    1
    26    64    62   ar
    27    42    43    2
    28    59    60    2
    29    59    58    1
    30    18    16    1
    31    33    34    1
    32     1     2    1
    33    19    20    1
    34    16    17    1
    35    69    72    1
    36    21    20    1
    37    21    22    2
    38    34    37    1
    39    67    65   ar
    40     4     3    2
    41    62    61    1
    42    62    63   ar
    43     3     2    1
    44    44    45    1
    45    20    23    1
    46    61    58    1
    47     2     5    1
    48    58    57    1
    49    37    38    1
    50    37    39    1
    51    72    73    1
    52    52    51    2
    53    65    63   ar
    54    51    50    1
    55    45    46    1
    56    23    24    1
    57     5     7    1
    58     5     6    1
    59    73    74    1
    60    24    25    2
    61    24    26   am
    62    49    50    1
    63    50    53    1
    64    46    47    1
    65    74    75    1
    66    76    75    1
    67    53    54    1
    68    55    54   ar
    69    54    56   ar
    70    47    48    1
    71   113   111   am
    72   110   111    1
    73   110   107    1
    74   111   112    2
    75   100    98    1
    76   109   108    2
    77   108   107    1
    78   101    99    1
    79   107   106    1
    80    99    98    1
    81    98    95    1
    82   105   104    2
    83   104   103    1
    84    95    96    1
    85    95    94    1
    86    97    96    2
    87    85    86   ar
    88    85    83   ar
    89   103   102    1
    90    86    84   ar
    91    94    89   am
    92    83    82   ar
    93    84    82   ar
    94    89    90    2
    95    89    88    1
    96    82    81    1
    97    91    88    1
    98    91    92    1
    99    88    87    1
   100    81    78    1
   101   121   119   ar
   102    92    93    1
   103    80    79    2
   104    87    79   am
   105    87    93    1
   106    79    78    1
   107   137   135    1
   108   119   118    1
   109   119   120   ar
   110    78    77    1
   111   136   134    1
   112   135   134    1
   113   118   115    1
   114   134   131    1
   115   128   127    1
   116   117   116    2
   117   115   116    1
   118   115   114    1
   119   131   130    1
   120   131   132    1
   121   133   132    2
   122   127   126    1
   123   127   129    1
   124   130   124   am
   125   125   124    2
   126   124   123    1
   127   126   123    1
   128   123   122    1
