@<TRIPOS>MOLECULE
tmp/3m5cA00.pdb
 168 161 0 0 0
SMALL
GASTEIGER

@<TRIPOS>ATOM
      1  N        105.0010   35.5600   85.1990 N.3    46  PRO46      -0.2102
      2  CA       105.4280   35.9000   86.5650 C.3    46  PRO46       0.1504
      3  C        105.1340   37.3350   86.9910 C.2    46  PRO46       0.2576
      4  O        104.9280   38.2090   86.1540 O.2    46  PRO46      -0.2718
      5  CB       106.9340   35.6260   86.5420 C.3    46  PRO46       0.0282
      6  CG       107.0900   34.5870   85.4790 C.3    46  PRO46       0.0208
      7  CD       106.1470   35.0770   84.4040 C.3    46  PRO46       0.0893
      8  N        105.1190   37.5610   88.3030 N.am   47  SER47      -0.1938
      9  CA       104.8880   38.8880   88.8670 C.3    47  SER47       0.2055
     10  C        105.0790   38.9140   90.3790 C.2    47  SER47       0.2643
     11  O        104.7370   37.9580   91.0710 O.2    47  SER47      -0.2714
     12  CB       103.4710   39.3710   88.5590 C.3    47  SER47       0.2130
     13  OG       103.1690   40.5330   89.3200 O.3    47  SER47      -0.2179
     14  N        105.6340   40.0100   90.8850 N.am   48  MET48      -0.1962
     15  CA       105.8090   40.1710   92.3220 C.3    48  MET48       0.1736
     16  C        105.0580   41.4260   92.7400 C.2    48  MET48       0.2616
     17  O        104.1570   41.3640   93.5760 O.2    48  MET48      -0.2715
     18  CB       107.2900   40.3040   92.7010 C.3    48  MET48       0.0427
     19  CG       107.5390   40.3490   94.2130 C.3    48  MET48       0.0599
     20  SD       107.1710   41.9370   95.0230 S.3    48  MET48      -0.1393
     21  CE       108.8540   42.6410   95.0980 C.3    48  MET48       0.0692
     22  N        105.4190   42.5580   92.1390 N.am   49  ARG49      -0.1963
     23  CA       104.7860   43.8330   92.4560 C.3    49  ARG49       0.1729
     24  C        103.3240   43.8900   92.0290 C.2    49  ARG49       0.2616
     25  O        102.4680   44.3020   92.7980 O.2    49  ARG49      -0.2715
     26  CB       105.5390   44.9950   91.7940 C.3    49  ARG49       0.0348
     27  CG       106.8340   45.4230   92.4920 C.3    49  ARG49       0.0492
     28  CD       107.8920   45.7810   91.4530 C.3    49  ARG49       0.2205
     29  NE       108.3780   44.5590   90.8200 N.pl3  49  ARG49      -0.0865
     30  CZ       109.4350   43.8700   91.2340 C.cat  49  ARG49       0.5346
     31  NH1      110.1460   44.2960   92.2740 N.pl3  49  ARG49       0.1354
     32  NH2      109.7370   42.7160   90.6540 N.pl3  49  ARG49       0.1354
     33  N        103.0400   43.4890   90.7960 N.am   50  THR50      -0.1951
     34  CA       101.6700   43.5500   90.3110 C.3    50  THR50       0.1897
     35  C        100.7270   42.6960   91.1530 C.2    50  THR50       0.2313
     36  O         99.6870   43.1800   91.5890 O.2    50  THR50      -0.2863
     37  CB       101.5910   43.1420   88.8340 C.3    50  THR50       0.1794
     38  OG1      102.5310   43.9260   88.0820 O.3    50  THR50      -0.2208
     39  CG2      100.1960   43.4120   88.2830 C.3    50  THR50       0.0378
     40  N         97.2600   39.6710   82.9390 N.3   110  ARG110     -0.1245
     41  CA        98.6680   39.8180   82.5900 C.3   110  ARG110      0.1563
     42  C         99.0020   38.7280   81.5870 C.2   110  ARG110      0.2260
     43  O         98.8780   37.5380   81.8940 O.2   110  ARG110     -0.2867
     44  CB        99.5490   39.6220   83.8150 C.3   110  ARG110      0.0307
     45  CG       101.0140   39.6540   83.4930 C.3   110  ARG110      0.0489
     46  CD       101.6070   40.9450   83.9850 C.3   110  ARG110      0.2205
     47  NE       102.8610   40.6680   84.6350 N.pl3 110  ARG110     -0.0865
     48  CZ       103.6350   41.5680   85.2220 C.cat 110  ARG110      0.5346
     49  NH1      103.3000   42.8560   85.2670 N.pl3 110  ARG110      0.1354
     50  NH2      104.7680   41.1570   85.7500 N.pl3 110  ARG110      0.1354
     51  N        102.0550   38.3020   78.5590 N.3   112  PHE112     -0.1241
     52  CA       103.1540   38.7750   77.7160 C.3   112  PHE112      0.1605
     53  C        103.0900   38.1700   76.3210 C.2   112  PHE112      0.2264
     54  O        102.4220   37.1590   76.0940 O.2   112  PHE112     -0.2867
     55  CB       104.5110   38.3700   78.2950 C.3   112  PHE112      0.0534
     56  CG       104.8460   38.9940   79.6160 C.ar  112  PHE112     -0.0203
     57  CD1      104.0250   39.9620   80.1940 C.ar  112  PHE112     -0.0042
     58  CD2      106.0080   38.6130   80.2810 C.ar  112  PHE112     -0.0042
     59  CE1      104.3630   40.5410   81.4180 C.ar  112  PHE112     -0.0003
     60  CE2      106.3530   39.1850   81.5050 C.ar  112  PHE112     -0.0003
     61  CZ       105.5310   40.1500   82.0730 C.ar  112  PHE112     -0.0000
     62  N         99.4960   44.2280   82.2840 N.3   142  GLU142     -0.1245
     63  CA       100.6140   44.1570   81.3450 C.3   142  GLU142      0.1567
     64  C        100.5000   43.0840   80.2650 C.2   142  GLU142      0.2260
     65  O        100.5060   41.8870   80.5530 O.2   142  GLU142     -0.2867
     66  CB       101.9830   43.9860   82.0200 C.3   142  GLU142      0.0388
     67  CG       103.0810   44.1570   80.9710 C.3   142  GLU142      0.1160
     68  CD       104.4920   43.9430   81.4560 C.2   142  GLU142      0.3649
     69  OE1      105.4070   44.0710   80.6080 O.co2 142  GLU142     -0.2457
     70  OE2      104.6980   43.6530   82.6520 O.co2 142  GLU142     -0.2457
     71  N        101.6980   48.6270   79.3580 N.3   146  HIS146     -0.1241
     72  CA       101.6370   48.4960   80.8160 C.3   146  HIS146      0.1621
     73  C        101.1230   49.8280   81.3730 C.2   146  HIS146      0.2264
     74  O        101.8610   50.5620   82.0320 O.2   146  HIS146     -0.2867
     75  CB       103.0530   48.2060   81.3340 C.3   146  HIS146      0.0745
     76  CG       103.1070   47.4860   82.6470 C.ar  146  HIS146      0.0817
     77  ND1      102.0450   47.4430   83.5240 N.ar  146  HIS146     -0.2268
     78  CD2      104.1260   46.8340   83.2580 C.ar  146  HIS146      0.1154
     79  CE1      102.4070   46.8000   84.6210 C.ar  146  HIS146      0.1986
     80  NE2      103.6660   46.4210   84.4880 N.ar  146  HIS146     -0.2212
     81  N        101.7090   50.8360   84.9830 N.3   149  GLN149     -0.1245
     82  CA       103.0740   51.2970   85.2120 C.3   149  GLN149      0.1566
     83  C        103.1860   52.7620   84.7900 C.2   149  GLN149      0.2260
     84  O        103.8570   53.5610   85.4470 O.2   149  GLN149     -0.2867
     85  CB       104.0680   50.4550   84.4070 C.3   149  GLN149      0.0367
     86  CG       105.5090   50.6240   84.8550 C.3   149  GLN149      0.0905
     87  CD       105.7490   49.9940   86.2100 C.2   149  GLN149      0.2608
     88  OE1      105.4430   48.8150   86.4170 O.2   149  GLN149     -0.2717
     89  NE2      106.2990   50.7670   87.1400 N.am  149  GLN149     -0.0878
     90  N        120.4460   43.3510   78.4840 N.3   178  HIS178     -0.1241
     91  CA       119.8440   42.2240   79.1920 C.3   178  HIS178      0.1621
     92  C        120.2180   40.9860   78.3780 C.2   178  HIS178      0.2264
     93  O        120.1750   41.0130   77.1470 O.2   178  HIS178     -0.2867
     94  CB       118.3190   42.3810   79.2620 C.3   178  HIS178      0.0745
     95  CG       117.6460   41.3960   80.1680 C.ar  178  HIS178      0.0817
     96  ND1      117.5840   40.0470   79.8910 N.ar  178  HIS178     -0.2268
     97  CD2      116.9960   41.5680   81.3450 C.ar  178  HIS178      0.1154
     98  CE1      116.9210   39.4300   80.8530 C.ar  178  HIS178      0.1986
     99  NE2      116.5530   40.3310   81.7480 N.ar  178  HIS178     -0.2212
    100  N        113.4370   40.8730   75.6980 N.3   182  LEU182     -0.1231
    101  CA       112.2130   41.0490   76.4680 C.3   182  LEU182      0.1693
    102  C        111.0880   41.8260   75.7940 C.2   182  LEU182      0.2592
    103  O        111.2330   42.3590   74.6960 O.2   182  LEU182     -0.2718
    104  CB       112.5450   41.7150   77.8080 C.3   182  LEU182      0.0284
    105  CG       113.5670   40.9910   78.6880 C.3   182  LEU182      0.0019
    106  CD1      113.7990   41.7890   79.9680 C.3   182  LEU182      0.0001
    107  CD2      113.0580   39.5840   79.0130 C.3   182  LEU182      0.0001
    108  N        109.9640   41.8770   76.5010 N.am  183  ASN183     -0.1974
    109  CA       108.7430   42.5610   76.0870 C.3   183  ASN183      0.1688
    110  C        108.9900   44.0630   75.8770 C.2   183  ASN183      0.2292
    111  O        109.7550   44.6700   76.6240 O.2   183  ASN183     -0.2864
    112  CB       107.7090   42.3590   77.1990 C.3   183  ASN183      0.1181
    113  CG       106.3020   42.6810   76.7710 C.2   183  ASN183      0.2629
    114  OD1      106.0670   43.1930   75.6820 O.2   183  ASN183     -0.2716
    115  ND2      105.3460   42.3790   77.6450 N.am  183  ASN183     -0.0877
    116  N        106.5060   46.1620   76.0050 N.3   185  ALA185     -0.1231
    117  CA       105.4010   46.7750   76.7430 C.3   185  ALA185      0.1694
    118  C        105.7360   48.0160   77.5760 C.2   185  ALA185      0.2591
    119  O        105.1510   49.0820   77.3670 O.2   185  ALA185     -0.2718
    120  CB       104.7220   45.7180   77.6280 C.3   185  ALA185      0.0304
    121  N        106.6590   47.8840   78.5260 N.am  186  VAL186     -0.1980
    122  CA       107.0220   49.0150   79.3680 C.3   186  VAL186      0.1595
    123  C        107.5520   50.1890   78.5440 C.2   186  VAL186      0.2287
    124  O        107.2280   51.3390   78.8240 O.2   186  VAL186     -0.2864
    125  CB       108.0550   48.5920   80.4450 C.3   186  VAL186      0.0276
    126  CG1      108.6260   49.8110   81.1510 C.3   186  VAL186      0.0022
    127  CG2      107.3720   47.6800   81.4590 C.3   186  VAL186      0.0022
    128  N        114.8550   50.4530   80.0860 N.3   250  LYS250     -0.1245
    129  CA       114.1610   49.1830   79.9360 C.3   250  LYS250      0.1561
    130  C        114.8150   48.4340   78.7870 C.2   250  LYS250      0.2260
    131  O        115.2390   49.0450   77.8030 O.2   250  LYS250     -0.2867
    132  CB       112.6770   49.3990   79.6240 C.3   250  LYS250      0.0271
    133  CG       111.8750   48.0950   79.5100 C.3   250  LYS250      0.0035
    134  CD       111.8380   47.3510   80.8450 C.3   250  LYS250      0.0206
    135  CE       111.0450   46.0520   80.7450 C.3   250  LYS250      0.1093
    136  NZ       111.8700   44.9350   80.1940 N.3   250  LYS250     -0.1314
    137  N        111.0950   50.0440   85.8190 N.3   292  CYS292     -0.1221
    138  CA       109.8760   49.3720   86.2700 C.3   292  CYS292      0.1808
    139  C        110.1210   48.1840   87.2020 C.2   292  CYS292      0.2601
    140  O        109.2470   47.8280   87.9910 O.2   292  CYS292     -0.2717
    141  CB       109.0790   48.8820   85.0620 C.3   292  CYS292      0.0970
    142  SG       109.9570   47.6540   84.0510 S.3   292  CYS292     -0.0800
    143  N        111.3050   47.5860   87.1070 N.am  293  LEU293     -0.1966
    144  CA       111.6670   46.4070   87.8980 C.3   293  LEU293      0.1713
    145  C        110.8500   45.2220   87.3590 C.2   293  LEU293      0.2458
    146  O        109.8110   45.4180   86.7380 O.2   293  LEU293     -0.2730
    147  CB       111.3600   46.6240   89.3880 C.3   293  LEU293      0.0310
    148  CG       111.8710   47.9050   90.0590 C.3   293  LEU293      0.0022
    149  CD1      111.5470   47.8620   91.5550 C.3   293  LEU293      0.0001
    150  CD2      113.3760   48.0370   89.8560 C.3   293  LEU293      0.0001
    151  N        111.3330   43.9800   87.5460 N.am  294  PRO294     -0.2727
    152  CA       112.5830   43.6050   88.2180 C.3   294  PRO294      0.1402
    153  C        113.7940   44.0960   87.4290 C.2   294  PRO294      0.2269
    154  O        113.7610   44.1440   86.1980 O.2   294  PRO294     -0.2865
    155  CB       112.5030   42.0830   88.2650 C.3   294  PRO294      0.0296
    156  CG       111.7430   41.7530   86.9950 C.3   294  PRO294      0.0237
    157  CD       110.6280   42.7810   87.0540 C.3   294  PRO294      0.0939
    158  N        102.5420   51.8470   92.2790 N.3   320  ARG320     -0.1245
    159  CA       101.7230   50.8800   91.5520 C.3   320  ARG320      0.1563
    160  C        100.4830   50.5930   92.4140 C.2   320  ARG320      0.2260
    161  O         99.3660   50.4670   91.9110 O.2   320  ARG320     -0.2867
    162  CB       102.5090   49.5820   91.3120 C.3   320  ARG320      0.0307
    163  CG       103.6440   49.7050   90.2780 C.3   320  ARG320      0.0489
    164  CD       103.0870   49.8410   88.8550 C.3   320  ARG320      0.2205
    165  NE       102.1550   48.7540   88.5740 N.pl3 320  ARG320     -0.0865
    166  CZ       102.5100   47.5390   88.1680 C.cat 320  ARG320      0.5346
    167  NH1      103.7870   47.2390   87.9610 N.pl3 320  ARG320      0.1354
    168  NH2      101.5840   46.5970   88.0350 N.pl3 320  ARG320      0.1354
@<TRIPOS>BOND
     1   103   102    2
     2   114   113    2
     3   100   101    1
     4   102   101    1
     5   102   108   am
     6   110   109    1
     7   110   111    2
     8   116   117    1
     9   109   108    1
    10   109   112    1
    11    54    53    2
    12    53    52    1
    13   101   104    1
    14   117   118    1
    15   117   120    1
    16   113   112    1
    17   113   115   am
    18    93    92    2
    19   119   118    2
    20   118   121   am
    21    52    55    1
    22    52    51    1
    23   131   130    2
    24   104   105    1
    25    55    56    1
    26    92    91    1
    27    90    91    1
    28   121   122    1
    29   123   124    2
    30   123   122    1
    31   105   107    1
    32   105   106    1
    33   130   129    1
    34    91    94    1
    35    94    95    1
    36    71    72    1
    37   122   125    1
    38   133   132    1
    39   133   134    1
    40    56    57   ar
    41    56    58   ar
    42   132   129    1
    43    96    95   ar
    44    96    98   ar
    45   129   128    1
    46    95    97   ar
    47    57    59   ar
    48   136   135    1
    49    64    65    2
    50    64    63    1
    51    58    60   ar
    52   125   126    1
    53   125   127    1
    54    69    68   ar
    55   135   134    1
    56    72    75    1
    57    72    73    1
    58    98    99   ar
    59    67    68    1
    60    67    66    1
    61    75    76    1
    62    97    99   ar
    63    63    66    1
    64    63    62    1
    65    73    74    2
    66    59    61   ar
    67    68    70   ar
    68    60    61   ar
    69    42    43    2
    70    42    41    1
    71    41    40    1
    72    41    44    1
    73    76    78   ar
    74    76    77   ar
    75    78    80   ar
    76    45    44    1
    77    45    46    1
    78    77    79   ar
    79    46    47    1
    80   142   141    1
    81     7     1    1
    82     7     6    1
    83    85    86    1
    84    85    82    1
    85    80    79   ar
    86    47    48    2
    87    83    82    1
    88    83    84    2
    89    86    87    1
    90    81    82    1
    91   141   138    1
    92     1     2    1
    93    48    49    1
    94    48    50    1
    95     6     5    1
    96   137   138    1
    97     4     3    2
    98   154   153    2
    99    87    88    2
   100    87    89   am
   101   138   139    1
   102     5     2    1
   103     2     3    1
   104   146   145    2
   105     3     8   am
   106   156   157    1
   107   156   155    1
   108   157   151    1
   109   143   139   am
   110   143   144    1
   111   139   140    2
   112   145   151   am
   113   145   144    1
   114   153   152    1
   115   151   152    1
   116   144   147    1
   117   167   166    1
   118   168   166    1
   119    38    37    1
   120   166   165    2
   121   152   155    1
   122    39    37    1
   123     8     9    1
   124    12     9    1
   125    12    13    1
   126   165   164    1
   127    37    34    1
   128   164   163    1
   129     9    10    1
   130   147   148    1
   131   150   148    1
   132   148   149    1
   133   163   162    1
   134    34    33    1
   135    34    35    1
   136    10    14   am
   137    10    11    2
   138    32    30    1
   139    33    24   am
   140    29    30    2
   141    29    28    1
   142    14    15    1
   143    35    36    2
   144    30    31    1
   145   162   159    1
   146    28    27    1
   147   159   158    1
   148   159   160    1
   149    26    23    1
   150    26    27    1
   151   161   160    2
   152    24    23    1
   153    24    25    2
   154    22    23    1
   155    22    16   am
   156    15    18    1
   157    15    16    1
   158    18    19    1
   159    16    17    2
   160    19    20    1
   161    20    21    1
