@<TRIPOS>MOLECULE
tmp/3m5eA00.pdb
 156 151 0 0 0
SMALL
GASTEIGER

@<TRIPOS>ATOM
      1  N         -8.4540    0.3320    5.8270 N.3    65  ASN65      -0.1240
      2  CA        -9.2910    1.2660    6.5680 C.3    65  ASN65       0.1653
      3  C        -10.4890    1.6680    5.7400 C.2    65  ASN65       0.2266
      4  O        -10.3290    2.0910    4.5770 O.2    65  ASN65      -0.2867
      5  CB        -8.5090    2.5500    6.8970 C.3    65  ASN65       0.1155
      6  CG        -7.4010    2.3350    7.9060 C.2    65  ASN65       0.2627
      7  OD1       -7.2930    1.2760    8.5230 O.2    65  ASN65      -0.2716
      8  ND2       -6.5450    3.3510    8.0650 N.am   65  ASN65      -0.0877
      9  N        -14.1210    8.1470   12.6490 N.3    89  ILE89      -0.1231
     10  CA       -13.2210    8.5310   11.5310 C.3    89  ILE89       0.1692
     11  C        -12.8910    7.3680   10.5840 C.2    89  ILE89       0.2591
     12  O        -12.7700    7.5610    9.3710 O.2    89  ILE89      -0.2718
     13  CB       -11.9340    9.2560   12.0350 C.3    89  ILE89       0.0266
     14  CG1      -10.9960    9.5980   10.8600 C.3    89  ILE89       0.0019
     15  CG2      -11.2080    8.4200   13.0950 C.3    89  ILE89       0.0020
     16  CD1       -9.8550   10.5380   11.2410 C.3    89  ILE89       0.0001
     17  N        -12.7450    6.1570   11.1330 N.am   90  GLN90      -0.1979
     18  CA       -12.4460    4.9960   10.2880 C.3    90  GLN90       0.1601
     19  C        -12.7160    3.7400   11.0830 C.2    90  GLN90       0.2287
     20  O        -12.7440    3.7810   12.3110 O.2    90  GLN90      -0.2864
     21  CB       -10.9750    5.0010    9.7950 C.3    90  GLN90       0.0394
     22  CG        -9.9050    5.1300   10.9120 C.3    90  GLN90       0.0908
     23  CD        -9.1750    3.8210   11.2230 C.2    90  GLN90       0.2608
     24  OE1       -9.7420    2.7450   11.1170 O.2    90  GLN90      -0.2717
     25  NE2       -7.9020    3.9270   11.5990 N.am   90  GLN90      -0.0878
     26  N        -11.2680   -0.5790   10.8860 N.3    92  HIS92      -0.1241
     27  CA       -10.4010   -1.5620   10.2760 C.3    92  HIS92       0.1621
     28  C        -10.4740   -2.8390   11.1080 C.2    92  HIS92       0.2264
     29  O        -11.1070   -2.8680   12.1740 O.2    92  HIS92      -0.2867
     30  CB        -8.9510   -1.0710   10.2680 C.3    92  HIS92       0.0745
     31  CG        -8.4380   -0.7740   11.6390 C.ar   92  HIS92       0.0817
     32  ND1       -8.6270    0.4480   12.2450 N.ar   92  HIS92      -0.2268
     33  CD2       -7.7860   -1.5480   12.5370 C.ar   92  HIS92       0.1154
     34  CE1       -8.0980    0.4180   13.4580 C.ar   92  HIS92       0.1986
     35  NE2       -7.6050   -0.7900   13.6680 N.ar   92  HIS92      -0.2212
     36  N         -8.1270   -6.5680   12.4710 N.3    94  HIS94      -0.1241
     37  CA        -6.8990   -7.3460   12.6600 C.3    94  HIS94       0.1621
     38  C         -7.3190   -8.8000   12.5550 C.2    94  HIS94       0.2264
     39  O         -8.3760   -9.1810   13.0840 O.2    94  HIS94      -0.2867
     40  CB        -6.2960   -7.0820   14.0320 C.3    94  HIS94       0.0745
     41  CG        -6.0110   -5.6360   14.2880 C.ar   94  HIS94       0.0817
     42  ND1       -4.7570   -5.0890   14.1180 N.ar   94  HIS94      -0.2268
     43  CD2       -6.8230   -4.6220   14.6820 C.ar   94  HIS94       0.1154
     44  CE1       -4.8040   -3.7980   14.4270 C.ar   94  HIS94       0.1986
     45  NE2       -6.0470   -3.4880   14.7500 N.ar   94  HIS94      -0.2212
     46  N        -12.1090   -2.7070   14.8030 N.3   117  HIS117     -0.1241
     47  CA       -11.8530   -1.5040   15.5700 C.3   117  HIS117      0.1621
     48  C        -12.5480   -0.3290   14.9120 C.2   117  HIS117      0.2264
     49  O        -12.1800    0.0320   13.7970 O.2   117  HIS117     -0.2867
     50  CB       -10.3330   -1.2680   15.6590 C.3   117  HIS117      0.0745
     51  CG        -9.6500   -2.2280   16.5860 C.ar  117  HIS117      0.0817
     52  ND1       -8.2860   -2.4370   16.5920 N.ar  117  HIS117     -0.2268
     53  CD2      -10.1600   -3.0320   17.5500 C.ar  117  HIS117      0.1154
     54  CE1       -7.9840   -3.3300   17.5190 C.ar  117  HIS117      0.1986
     55  NE2       -9.1020   -3.7110   18.1140 N.ar  117  HIS117     -0.2212
     56  N        -12.9090    3.4610   15.1610 N.3   119  VAL119     -0.1245
     57  CA       -12.0530    4.4840   15.7710 C.3   119  VAL119      0.1561
     58  C        -12.7610    5.8430   15.8150 C.2   119  VAL119      0.2260
     59  O        -13.2010    6.3300   14.7710 O.2   119  VAL119     -0.2867
     60  CB       -10.7460    4.6180   14.9510 C.3   119  VAL119      0.0252
     61  CG1       -9.7760    5.6170   15.6050 C.3   119  VAL119      0.0019
     62  CG2      -10.0810    3.2450   14.7470 C.3   119  VAL119      0.0019
     63  N         -8.3190   14.9420   14.8070 N.3   128  PHE128     -0.1227
     64  CA        -7.6700   13.6990   15.1970 C.3   128  PHE128      0.1736
     65  C         -6.2190   13.8770   15.6610 C.2   128  PHE128      0.2596
     66  O         -5.8120   13.2830   16.6680 O.2   128  PHE128     -0.2718
     67  CB        -7.7380   12.6770   14.0590 C.3   128  PHE128      0.0547
     68  CG        -7.2830   11.3130   14.4530 C.ar  128  PHE128     -0.0202
     69  CD1       -5.9360   10.9950   14.4840 C.ar  128  PHE128     -0.0042
     70  CD2       -8.2050   10.3530   14.8430 C.ar  128  PHE128     -0.0042
     71  CE1       -5.5170    9.7400   14.8730 C.ar  128  PHE128     -0.0003
     72  CE2       -7.7950    9.0930   15.2300 C.ar  128  PHE128     -0.0003
     73  CZ        -6.4460    8.7860   15.2460 C.ar  128  PHE128     -0.0000
     74  N         -5.4370   14.6600   14.9070 N.am  129  GLY129     -0.1957
     75  CA        -4.0340   14.8730   15.2210 C.3   129  GLY129      0.1869
     76  C         -3.8210   15.4900   16.5980 C.2   129  GLY129      0.2309
     77  O         -2.8400   15.1910   17.2620 O.2   129  GLY129     -0.2863
     78  N         -5.0090   12.6490   19.4950 N.3   132  VAL132     -0.1245
     79  CA        -4.0590   11.5620   19.8570 C.3   132  VAL132      0.1561
     80  C         -2.9630   11.9930   20.8350 C.2   132  VAL132      0.2260
     81  O         -2.2340   11.1520   21.3700 O.2   132  VAL132     -0.2867
     82  CB        -3.3770   10.8580   18.6420 C.3   132  VAL132      0.0252
     83  CG1       -4.3930   10.1840   17.7840 C.3   132  VAL132      0.0019
     84  CG2       -2.4850   11.8310   17.8390 C.3   132  VAL132      0.0019
     85  N        -11.9840    3.7480   21.0600 N.3   140  VAL140     -0.1245
     86  CA       -12.0460    2.6820   20.0540 C.3   140  VAL140      0.1561
     87  C        -12.9830    1.5930   20.5520 C.2   140  VAL140      0.2260
     88  O        -12.8510    1.1010   21.6810 O.2   140  VAL140     -0.2867
     89  CB       -10.6630    2.1110   19.7010 C.3   140  VAL140      0.0252
     90  CG1      -10.7650    1.1090   18.5390 C.3   140  VAL140      0.0019
     91  CG2       -9.7330    3.2300   19.2750 C.3   140  VAL140      0.0019
     92  N         -3.0660    3.1200   21.2420 N.3   195  LEU195     -0.1231
     93  CA        -3.0770    2.5860   19.8710 C.3   195  LEU195      0.1693
     94  C         -2.3430    1.2530   19.8880 C.2   195  LEU195      0.2593
     95  O         -1.3320    1.1030   20.6080 O.2   195  LEU195     -0.2718
     96  CB        -2.3550    3.5480   18.9350 C.3   195  LEU195      0.0284
     97  CG        -2.8710    4.9810   18.8280 C.3   195  LEU195      0.0019
     98  CD1       -2.0170    5.7370   17.8070 C.3   195  LEU195      0.0001
     99  CD2       -4.3410    5.0450   18.4260 C.3   195  LEU195      0.0001
    100  N         -2.8090    0.2900   19.0920 N.am  196  THR196     -0.1939
    101  CA        -2.1280   -1.0280   19.0340 C.3   196  THR196      0.2028
    102  C         -1.1170   -1.1410   17.8840 C.2   196  THR196      0.2643
    103  O         -0.5310   -2.2070   17.6920 O.2   196  THR196     -0.2714
    104  CB        -3.1440   -2.2000   18.9240 C.3   196  THR196      0.1808
    105  OG1       -3.7860   -2.1500   17.6470 O.3   196  THR196     -0.2208
    106  CG2       -4.1640   -2.1440   20.0440 C.3   196  THR196      0.0379
    107  N         -0.9650   -0.0740   17.0910 N.am  197  THR197     -0.1937
    108  CA         0.1270    0.0100   16.1190 C.3   197  THR197      0.2013
    109  C          0.9490    1.2540   16.4170 C.2   197  THR197      0.2484
    110  O          0.4530    2.2040   17.0480 O.2   197  THR197     -0.2729
    111  CB        -0.3850    0.0860   14.6660 C.3   197  THR197      0.1807
    112  OG1       -1.2560    1.2140   14.4990 O.3   197  THR197     -0.2208
    113  CG2       -1.1260   -1.1470   14.2910 C.3   197  THR197      0.0379
    114  N          2.2100    1.2700   15.9500 N.am  198  PRO198     -0.2715
    115  CA         2.9610    2.5240   16.0340 C.3   198  PRO198      0.1521
    116  C          2.1290    3.6990   15.5000 C.2   198  PRO198      0.2440
    117  O          1.4380    3.5660   14.4670 O.2   198  PRO198     -0.2731
    118  CB         4.1790    2.2320   15.1450 C.3   198  PRO198      0.0310
    119  CG         4.4360    0.7660   15.4150 C.3   198  PRO198      0.0237
    120  CD         3.0230    0.1750   15.3930 C.3   198  PRO198      0.0939
    121  N          2.2140    4.8740   16.1530 N.am  199  PRO199     -0.2727
    122  CA         3.0910    5.2530   17.2710 C.3   199  PRO199      0.1402
    123  C          2.7170    4.8280   18.7030 C.2   199  PRO199      0.2269
    124  O          3.3620    5.2830   19.6560 O.2   199  PRO199     -0.2865
    125  CB         3.1230    6.7910   17.1700 C.3   199  PRO199      0.0296
    126  CG         1.8200    7.1460   16.5830 C.3   199  PRO199      0.0237
    127  CD         1.4500    6.0320   15.6400 C.3   199  PRO199      0.0939
    128  N          0.4680    5.4360   20.8430 N.3   201  LEU201     -0.1245
    129  CA         0.1910    6.5390   21.7570 C.3   201  LEU201      0.1561
    130  C         -0.8450    6.1720   22.7970 C.2   201  LEU201      0.2260
    131  O         -1.8230    5.4840   22.5020 O.2   201  LEU201     -0.2867
    132  CB        -0.2500    7.7920   20.9880 C.3   201  LEU201      0.0270
    133  CG         0.8360    8.3570   20.0510 C.3   201  LEU201      0.0019
    134  CD1        0.2270    9.4310   19.1330 C.3   201  LEU201      0.0001
    135  CD2        2.0410    8.8880   20.8440 C.3   201  LEU201      0.0001
    136  N         -6.1750    6.2120   24.3160 N.3   204  VAL204     -0.1245
    137  CA        -7.4260    5.5050   23.9630 C.3   204  VAL204      0.1561
    138  C         -8.2150    5.0420   25.1680 C.2   204  VAL204      0.2260
    139  O         -7.6470    4.4190   26.0730 O.2   204  VAL204     -0.2867
    140  CB        -7.1560    4.2530   23.0570 C.3   204  VAL204      0.0252
    141  CG1       -8.4910    3.5690   22.6520 C.3   204  VAL204      0.0019
    142  CG2       -6.3430    4.6710   21.7990 C.3   204  VAL204      0.0019
    143  N        -10.5890    2.2680   25.7170 N.3   206  TRP206     -0.1241
    144  CA       -11.0100    1.0550   25.0080 C.3   206  TRP206      0.1605
    145  C        -12.3670    0.5960   25.5000 C.2   206  TRP206      0.2264
    146  O        -12.6010    0.5320   26.7030 O.2   206  TRP206     -0.2867
    147  CB        -9.9820   -0.0700   25.1920 C.3   206  TRP206      0.0550
    148  CG        -8.9000    0.0440   24.1900 C.ar  206  TRP206      0.0003
    149  CD1       -7.6760    0.6390   24.3630 C.ar  206  TRP206      0.0946
    150  CD2       -8.9710   -0.3540   22.8180 C.ar  206  TRP206      0.0152
    151  NE1       -6.9660    0.6000   23.1780 N.ar  206  TRP206     -0.2442
    152  CE2       -7.7320   -0.0180   22.2210 C.ar  206  TRP206      0.0810
    153  CE3       -9.9430   -1.0100   22.0470 C.ar  206  TRP206      0.0012
    154  CZ2       -7.4420   -0.2970   20.8810 C.ar  206  TRP206      0.0191
    155  CZ3       -9.6560   -1.3000   20.7060 C.ar  206  TRP206      0.0001
    156  CH2       -8.4150   -0.9400   20.1360 C.ar  206  TRP206      0.0015
@<TRIPOS>BOND
     1     4     3    2
     2     3     2    1
     3     1     2    1
     4     2     5    1
     5     5     6    1
     6     6     8   am
     7     6     7    2
     8    12    11    2
     9    21    18    1
    10    21    22    1
    11    30    27    1
    12    30    31    1
    13    27    26    1
    14    27    28    1
    15    18    19    1
    16    18    17    1
    17    11    17   am
    18    11    10    1
    19    14    16    1
    20    14    13    1
    21    22    23    1
    22    19    20    2
    23    28    29    2
    24    24    23    2
    25    23    25   am
    26    10    13    1
    27    10     9    1
    28    31    32   ar
    29    31    33   ar
    30    13    15    1
    31    32    34   ar
    32    36    37    1
    33    33    35   ar
    34    38    37    1
    35    38    39    2
    36    37    40    1
    37    34    35   ar
    38    49    48    2
    39    40    41    1
    40    67    68    1
    41    67    64    1
    42    42    41   ar
    43    42    44   ar
    44    41    43   ar
    45   113   111    1
    46    44    45   ar
    47    68    69   ar
    48    68    70   ar
    49   117   116    2
    50    69    71   ar
    51   112   111    1
    52   111   108    1
    53    43    45   ar
    54    62    60    1
    55    59    58    2
    56    46    47    1
    57    63    64    1
    58    70    72   ar
    59    71    73   ar
    60    74    75    1
    61    74    65   am
    62    48    47    1
    63    60    61    1
    64    60    57    1
    65   118   119    1
    66   118   115    1
    67    56    57    1
    68    64    65    1
    69    75    76    1
    70    72    73   ar
    71   120   119    1
    72   120   114    1
    73   116   115    1
    74   116   121   am
    75    47    50    1
    76   127   121    1
    77   127   126    1
    78    50    51    1
    79    65    66    2
    80    57    58    1
    81   114   115    1
    82   114   109   am
    83   108   109    1
    84   108   107    1
    85   121   122    1
    86   109   110    2
    87   126   125    1
    88    51    52   ar
    89    51    53   ar
    90    52    54   ar
    91    76    77    2
    92   107   102   am
    93   125   122    1
    94   122   123    1
    95    54    55   ar
    96    53    55   ar
    97   105   104    1
    98   103   102    2
    99    83    82    1
   100    98    97    1
   101    84    82    1
   102   102   101    1
   103    99    97    1
   104    90    89    1
   105    82    79    1
   106   123   124    2
   107    97    96    1
   108   104   101    1
   109   104   106    1
   110    96    93    1
   111   101   100    1
   112   100    94   am
   113   134   133    1
   114    91    89    1
   115    78    79    1
   116    89    86    1
   117    79    80    1
   118    93    94    1
   119    93    92    1
   120    94    95    2
   121   133   135    1
   122   133   132    1
   123    86    87    1
   124    86    85    1
   125   156   155   ar
   126   156   154   ar
   127    87    88    2
   128   155   153   ar
   129    80    81    2
   130   128   129    1
   131   154   152   ar
   132   132   129    1
   133   129   130    1
   134   142   140    1
   135   153   150   ar
   136   152   150   ar
   137   152   151   ar
   138   131   130    2
   139   141   140    1
   140   150   148   ar
   141   140   137    1
   142   151   149   ar
   143   137   136    1
   144   137   138    1
   145   148   149   ar
   146   148   147    1
   147   144   147    1
   148   144   145    1
   149   144   143    1
   150   138   139    2
   151   145   146    2
