@<TRIPOS>MOLECULE
tmp/3m5jC01.pdb
 118 112 0 0 0
SMALL
GASTEIGER

@<TRIPOS>ATOM
      1  N         -5.2670  -16.8130   83.9470 N.3    89  TYR89      -0.1241
      2  CA        -6.4520  -16.4890   84.7330 C.3    89  TYR89       0.1605
      3  C         -7.5450  -16.0080   83.7760 C.2    89  TYR89       0.2264
      4  O         -7.2380  -15.3310   82.7940 O.2    89  TYR89      -0.2867
      5  CB        -6.0880  -15.3870   85.7260 C.3    89  TYR89       0.0534
      6  CG        -7.0310  -15.2040   86.8920 C.ar   89  TYR89      -0.0201
      7  CD1       -6.9160  -15.9890   88.0370 C.ar   89  TYR89      -0.0009
      8  CD2       -8.0160  -14.2190   86.8650 C.ar   89  TYR89      -0.0009
      9  CE1       -7.7720  -15.8110   89.1200 C.ar   89  TYR89       0.0417
     10  CE2       -8.8740  -14.0330   87.9400 C.ar   89  TYR89       0.0417
     11  CZ        -8.7460  -14.8310   89.0630 C.ar   89  TYR89       0.1957
     12  OH        -9.5930  -14.6420   90.1280 O.3    89  TYR89      -0.2866
     13  N          0.1460  -11.2320   95.4640 N.3   125  GLY125     -0.1210
     14  CA        -1.0550  -11.9520   95.0390 C.3   125  GLY125      0.1956
     15  C         -0.7680  -13.0330   94.0130 C.2   125  GLY125      0.2612
     16  O         -0.1500  -12.7690   92.9800 O.2   125  GLY125     -0.2717
     17  N         -1.2200  -14.2510   94.3060 N.am  126  ALA126     -0.1965
     18  CA        -0.9530  -15.4120   93.4590 C.3   126  ALA126      0.1728
     19  C         -2.1990  -16.2750   93.2470 C.2   126  ALA126      0.2617
     20  O         -3.1110  -16.2840   94.0740 O.2   126  ALA126     -0.2715
     21  CB         0.1760  -16.2440   94.0520 C.3   126  ALA126      0.0334
     22  N         -2.2230  -16.9980   92.1300 N.am  127  THR127     -0.1937
     23  CA        -3.3300  -17.8950   91.7980 C.3   127  THR127      0.2028
     24  C         -2.8210  -19.2350   91.2630 C.2   127  THR127      0.2642
     25  O         -1.7610  -19.2990   90.6350 O.2   127  THR127     -0.2714
     26  CB        -4.3200  -17.2480   90.7900 C.3   127  THR127      0.1808
     27  OG1       -5.3500  -18.1850   90.4500 O.3   127  THR127     -0.2208
     28  CG2       -3.6050  -16.7980   89.5130 C.3   127  THR127      0.0379
     29  N         -3.5840  -20.2970   91.5180 N.am  128  SER128     -0.1949
     30  CA        -3.2330  -21.6410   91.0540 C.3   128  SER128      0.1924
     31  C         -3.4450  -21.8070   89.5480 C.2   128  SER128      0.2314
     32  O         -2.8950  -22.7250   88.9360 O.2   128  SER128     -0.2863
     33  CB        -4.0160  -22.7070   91.8310 C.3   128  SER128      0.2116
     34  OG        -5.4140  -22.5280   91.6900 O.3   128  SER128     -0.2180
     35  N          1.5920  -21.8840   93.0210 N.3   135  SER135     -0.1217
     36  CA         0.7800  -20.7120   92.6920 C.3   135  SER135      0.1889
     37  C          1.6320  -19.4590   92.4860 C.2   135  SER135      0.2288
     38  O          2.4900  -19.1400   93.3130 O.2   135  SER135     -0.2866
     39  CB        -0.2690  -20.4630   93.7790 C.3   135  SER135      0.2089
     40  OG        -1.1880  -21.5390   93.8560 O.3   135  SER135     -0.2183
     41  N         -0.3250   -8.0890   91.9740 N.3   143  TRP143     -0.1241
     42  CA        -1.6680   -8.2140   92.5360 C.3   143  TRP143      0.1605
     43  C         -1.6690   -7.6230   93.9430 C.2   143  TRP143      0.2264
     44  O         -1.0400   -8.1660   94.8560 O.2   143  TRP143     -0.2867
     45  CB        -2.1190   -9.6790   92.5620 C.3   143  TRP143      0.0550
     46  CG        -3.5940   -9.8960   92.8580 C.ar  143  TRP143      0.0003
     47  CD1       -4.4580   -9.0180   93.4600 C.ar  143  TRP143      0.0946
     48  CD2       -4.3580  -11.0810   92.5910 C.ar  143  TRP143      0.0152
     49  NE1       -5.7100   -9.5760   93.5660 N.ar  143  TRP143     -0.2442
     50  CE2       -5.6770  -10.8420   93.0430 C.ar  143  TRP143      0.0810
     51  CE3       -4.0580  -12.3200   92.0070 C.ar  143  TRP143      0.0012
     52  CZ2       -6.6940  -11.7960   92.9290 C.ar  143  TRP143      0.0191
     53  CZ3       -5.0700  -13.2680   91.8930 C.ar  143  TRP143      0.0001
     54  CH2       -6.3720  -12.9990   92.3520 C.ar  143  TRP143      0.0015
     55  N         -3.3520   -6.5230   97.4700 N.3   145  LEU145     -0.1245
     56  CA        -4.3990   -6.9040   98.4240 C.3   145  LEU145      0.1561
     57  C         -4.2990   -6.0700   99.6960 C.2   145  LEU145      0.2260
     58  O         -3.3650   -5.2850   99.8630 O.2   145  LEU145     -0.2867
     59  CB        -4.2750   -8.3840   98.8100 C.3   145  LEU145      0.0270
     60  CG        -4.5210   -9.5080   97.8070 C.3   145  LEU145      0.0019
     61  CD1       -3.2710   -9.7880   97.0000 C.3   145  LEU145      0.0001
     62  CD2       -4.9570  -10.7640   98.5470 C.3   145  LEU145      0.0001
     63  N         -9.5960   -6.5450   88.6250 N.3   175  HIS175     -0.1241
     64  CA        -9.9850   -7.8590   89.1320 C.3   175  HIS175      0.1621
     65  C        -11.4520   -7.9100   89.5530 C.2   175  HIS175      0.2264
     66  O        -11.8750   -7.1980   90.4660 O.2   175  HIS175     -0.2867
     67  CB        -9.0800   -8.2930   90.2910 C.3   175  HIS175      0.0745
     68  CG        -9.5350   -9.5460   90.9730 C.ar  175  HIS175      0.0817
     69  ND1      -10.0430   -9.5540   92.2540 N.ar  175  HIS175     -0.2268
     70  CD2       -9.5780  -10.8290   90.5440 C.ar  175  HIS175      0.1154
     71  CE1      -10.3700  -10.7890   92.5890 C.ar  175  HIS175      0.1986
     72  NE2      -10.0980  -11.5820   91.5680 N.ar  175  HIS175     -0.2212
     73  N        -15.2280  -13.4510   92.5490 N.3   178  GLU178     -0.1245
     74  CA       -16.2350  -14.5000   92.3620 C.3   178  GLU178      0.1567
     75  C        -17.5610  -14.1390   93.0330 C.2   178  GLU178      0.2260
     76  O        -18.6280  -14.5420   92.5690 O.2   178  GLU178     -0.2867
     77  CB       -15.7110  -15.8470   92.8850 C.3   178  GLU178      0.0388
     78  CG       -16.6740  -17.0450   92.7460 C.3   178  GLU178      0.1160
     79  CD       -16.9650  -17.4460   91.2990 C.2   178  GLU178      0.3649
     80  OE1      -16.1290  -17.1810   90.4090 O.co2 178  GLU178     -0.2457
     81  OE2      -18.0350  -18.0420   91.0530 O.co2 178  GLU178     -0.2457
     82  N        -16.1930  -12.0520   98.5710 N.3   182  GLU182     -0.1245
     83  CA       -14.8320  -12.2770   98.0880 C.3   182  GLU182      0.1567
     84  C        -14.0750  -10.9630   97.9270 C.2   182  GLU182      0.2260
     85  O        -12.9120  -10.8500   98.3250 O.2   182  GLU182     -0.2867
     86  CB       -14.8700  -13.0200   96.7540 C.3   182  GLU182      0.0388
     87  CG       -14.4840  -14.4810   96.8410 C.3   182  GLU182      0.1160
     88  CD       -13.0580  -14.7250   96.3920 C.2   182  GLU182      0.3649
     89  OE1      -12.2880  -15.3390   97.1600 O.co2 182  GLU182     -0.2457
     90  OE2      -12.7080  -14.3000   95.2690 O.co2 182  GLU182     -0.2457
     91  N        -13.0960   -9.6020  101.1800 N.3   185  LYS185     -0.1231
     92  CA       -12.0750  -10.4220  101.8360 C.3   185  LYS185      0.1693
     93  C        -10.6590  -10.0540  101.3890 C.2   185  LYS185      0.2591
     94  O         -9.7390  -10.0010  102.2080 O.2   185  LYS185     -0.2718
     95  CB       -12.3390  -11.9140  101.5930 C.3   185  LYS185      0.0285
     96  CG       -11.5440  -12.8520  102.5050 C.3   185  LYS185      0.0035
     97  CD       -11.7800  -14.3190  102.1660 C.3   185  LYS185      0.0206
     98  CE       -10.9100  -14.7830  101.0020 C.3   185  LYS185      0.1093
     99  NZ       -11.1040  -16.2300  100.6970 N.3   185  LYS185     -0.1314
    100  N        -10.4900   -9.8110  100.0910 N.am  186  LEU186     -0.1980
    101  CA        -9.1870   -9.4420   99.5350 C.3   186  LEU186      0.1596
    102  C         -8.8970   -7.9630   99.7510 C.2   186  LEU186      0.2287
    103  O         -7.7650   -7.5780  100.0500 O.2   186  LEU186     -0.2864
    104  CB        -9.1180   -9.7650   98.0370 C.3   186  LEU186      0.0297
    105  CG        -9.4500  -11.1770   97.5450 C.3   186  LEU186      0.0022
    106  CD1       -9.4440  -11.2120   96.0270 C.3   186  LEU186      0.0001
    107  CD2       -8.4880  -12.2130   98.1120 C.3   186  LEU186      0.0001
    108  N        -15.3300  -14.9730   88.5320 N.3   212  ARG212     -0.1245
    109  CA       -13.8780  -14.8750   88.6800 C.3   212  ARG212      0.1563
    110  C        -13.1690  -14.5200   87.3600 C.2   212  ARG212      0.2260
    111  O        -13.1490  -15.3280   86.4250 O.2   212  ARG212     -0.2867
    112  CB       -13.3630  -16.2100   89.2410 C.3   212  ARG212      0.0307
    113  CG       -11.9070  -16.2440   89.6380 C.3   212  ARG212      0.0489
    114  CD       -11.5620  -17.5150   90.4090 C.3   212  ARG212      0.2205
    115  NE       -11.8780  -17.4070   91.8350 N.pl3 212  ARG212     -0.0865
    116  CZ       -12.8640  -18.0580   92.4500 C.cat 212  ARG212      0.5346
    117  NH1      -13.6530  -18.8860   91.7750 N.pl3 212  ARG212      0.1354
    118  NH2      -13.0590  -17.8830   93.7500 N.pl3 212  ARG212      0.1354
@<TRIPOS>BOND
     1     4     3    2
     2     3     2    1
     3     1     2    1
     4     2     5    1
     5     5     6    1
     6   111   110    2
     7     8     6   ar
     8     8    10   ar
     9     6     7   ar
    10   110   109    1
    11    10    11   ar
    12     7     9   ar
    13   108   109    1
    14    63    64    1
    15   109   112    1
    16    32    31    2
    17    11     9   ar
    18    11    12    1
    19    64    65    1
    20    64    67    1
    21   112   113    1
    22    28    26    1
    23    31    30    1
    24    65    66    2
    25   113   114    1
    26    67    68    1
    27   114   115    1
    28    80    79   ar
    29    27    26    1
    30    70    68   ar
    31    70    72   ar
    32    25    24    2
    33    26    23    1
    34    68    69   ar
    35    81    79   ar
    36    30    29    1
    37    30    33    1
    38    24    29   am
    39    24    23    1
    40    79    78    1
    41    72    71   ar
    42    34    33    1
    43   117   116    1
    44    23    22    1
    45   115   116    2
    46    53    51   ar
    47    53    54   ar
    48    41    42    1
    49    51    48   ar
    50    22    19   am
    51    69    71   ar
    52    54    52   ar
    53    74    73    1
    54    74    77    1
    55    74    75    1
    56   116   118    1
    57    37    36    1
    58    37    38    2
    59    42    45    1
    60    42    43    1
    61    45    46    1
    62    76    75    2
    63    48    46   ar
    64    48    50   ar
    65    36    35    1
    66    36    39    1
    67    78    77    1
    68    46    47   ar
    69    52    50   ar
    70    16    15    2
    71    50    49   ar
    72    19    18    1
    73    19    20    2
    74    18    21    1
    75    18    17    1
    76    47    49   ar
    77    39    40    1
    78    43    44    2
    79    15    17   am
    80    15    14    1
    81    14    13    1
    82    90    88   ar
    83   106   105    1
    84    88    87    1
    85    88    89   ar
    86    86    87    1
    87    86    83    1
    88    61    60    1
    89    55    56    1
    90   105   104    1
    91   105   107    1
    92    60    62    1
    93    60    59    1
    94    84    83    1
    95    84    85    2
    96   104   101    1
    97    83    82    1
    98    56    59    1
    99    56    57    1
   100   101   102    1
   101   101   100    1
   102    57    58    2
   103   102   103    2
   104   100    93   am
   105    99    98    1
   106    98    97    1
   107    91    92    1
   108    93    92    1
   109    93    94    2
   110    95    92    1
   111    95    96    1
   112    97    96    1
