@<TRIPOS>MOLECULE
tmp/3m5jA01.pdb
 141 135 0 0 0
SMALL
GASTEIGER

@<TRIPOS>ATOM
      1  N        -41.6510   -6.8120   73.1840 N.3    89  TYR89      -0.1228
      2  CA       -41.2110   -6.1140   74.3830 C.3    89  TYR89       0.1721
      3  C        -40.1010   -5.1380   73.9870 C.2    89  TYR89       0.2437
      4  O        -39.3080   -5.4490   73.0950 O.2    89  TYR89      -0.2733
      5  CB       -40.6800   -7.1340   75.3880 C.3    89  TYR89       0.0547
      6  CG       -40.6170   -6.6550   76.8200 C.ar   89  TYR89      -0.0200
      7  CD1      -41.7440   -6.7060   77.6400 C.ar   89  TYR89      -0.0009
      8  CD2      -39.4260   -6.1730   77.3620 C.ar   89  TYR89      -0.0009
      9  CE1      -41.6900   -6.2800   78.9620 C.ar   89  TYR89       0.0417
     10  CE2      -39.3590   -5.7450   78.6840 C.ar   89  TYR89       0.0417
     11  CZ       -40.4960   -5.8010   79.4770 C.ar   89  TYR89       0.1957
     12  OH       -40.4420   -5.3810   80.7820 O.3    89  TYR89      -0.2866
     13  N        -40.0380   -3.9540   74.6340 N.am   90  PRO90      -0.2729
     14  CA       -38.9660   -3.0050   74.3050 C.3    90  PRO90       0.1401
     15  C        -37.5740   -3.6210   74.4610 C.2    90  PRO90       0.2269
     16  O        -37.3570   -4.4440   75.3540 O.2    90  PRO90      -0.2865
     17  CB       -39.1680   -1.8790   75.3230 C.3    90  PRO90       0.0296
     18  CG       -40.6150   -1.9370   75.6620 C.3    90  PRO90       0.0237
     19  CD       -40.9780   -3.3960   75.6260 C.3    90  PRO90       0.0939
     20  N        -39.8650  -19.8750   88.9390 N.3   122  ARG122     -0.1245
     21  CA       -40.9630  -19.7610   87.9800 C.3   122  ARG122      0.1563
     22  C        -40.4610  -19.6150   86.5440 C.2   122  ARG122      0.2260
     23  O        -39.4050  -19.0300   86.2920 O.2   122  ARG122     -0.2867
     24  CB       -41.9000  -18.6120   88.3520 C.3   122  ARG122      0.0307
     25  CG       -43.0410  -19.0110   89.2700 C.3   122  ARG122      0.0489
     26  CD       -43.5830  -17.8150   90.0340 C.3   122  ARG122      0.2205
     27  NE       -44.2760  -16.8550   89.1760 N.pl3 122  ARG122     -0.0865
     28  CZ       -44.5380  -15.5930   89.5130 C.cat 122  ARG122      0.5346
     29  NH1      -44.1590  -15.1140   90.6940 N.pl3 122  ARG122      0.1354
     30  NH2      -45.1760  -14.8030   88.6590 N.pl3 122  ARG122      0.1354
     31  N        -43.1230  -16.4870   82.9850 N.3   125  GLY125     -0.1210
     32  CA       -43.0770  -15.0260   82.9020 C.3   125  GLY125      0.1956
     33  C        -43.6170  -14.4620   81.5970 C.2   125  GLY125      0.2612
     34  O        -43.1310  -14.7990   80.5150 O.2   125  GLY125     -0.2717
     35  N        -44.6210  -13.5950   81.7040 N.am  126  ALA126     -0.1965
     36  CA       -45.3100  -13.0550   80.5320 C.3   126  ALA126      0.1728
     37  C        -45.3880  -11.5250   80.5190 C.2   126  ALA126      0.2617
     38  O        -45.0490  -10.8640   81.4990 O.2   126  ALA126     -0.2715
     39  CB       -46.7050  -13.6650   80.4140 C.3   126  ALA126      0.0334
     40  N        -45.8360  -10.9800   79.3900 N.am  127  THR127     -0.1937
     41  CA       -45.9830   -9.5380   79.2000 C.3   127  THR127      0.2028
     42  C        -47.0940   -9.2410   78.1910 C.2   127  THR127      0.2643
     43  O        -47.2470   -9.9530   77.1950 O.2   127  THR127     -0.2714
     44  CB       -44.6490   -8.8680   78.7520 C.3   127  THR127      0.1808
     45  OG1      -44.8850   -7.5000   78.4000 O.3   127  THR127     -0.2208
     46  CG2      -44.0270   -9.5960   77.5570 C.3   127  THR127      0.0379
     47  N        -47.8670   -8.1900   78.4550 N.am  128  SER128     -0.1935
     48  CA       -48.9510   -7.7880   77.5580 C.3   128  SER128      0.2055
     49  C        -48.4350   -7.0530   76.3170 C.2   128  SER128      0.2642
     50  O        -49.2190   -6.6030   75.4820 O.2   128  SER128     -0.2714
     51  CB       -49.9870   -6.9410   78.3030 C.3   128  SER128      0.2130
     52  OG       -49.4390   -5.7000   78.7040 O.3   128  SER128     -0.2179
     53  N        -47.1140   -6.9320   76.2100 N.am  129  ALA129     -0.1977
     54  CA       -46.4730   -6.3740   75.0240 C.3   129  ALA129      0.1597
     55  C        -46.3440   -7.4400   73.9360 C.2   129  ALA129      0.2287
     56  O        -46.3850   -7.1280   72.7450 O.2   129  ALA129     -0.2864
     57  CB       -45.1080   -5.8000   75.3780 C.3   129  ALA129      0.0319
     58  N        -51.7590  -12.2240   76.5750 N.3   135  SER135     -0.1217
     59  CA       -50.6250  -12.0070   77.4940 C.3   135  SER135      0.1889
     60  C        -49.6320  -13.1780   77.5230 C.2   135  SER135      0.2288
     61  O        -49.7500  -14.0940   78.3440 O.2   135  SER135     -0.2866
     62  CB       -51.1230  -11.6530   78.9100 C.3   135  SER135      0.2089
     63  OG       -50.0550  -11.5570   79.8390 O.3   135  SER135     -0.2183
     64  N        -38.9440  -16.6190   80.3720 N.3   143  TRP143     -0.1241
     65  CA       -38.7080  -15.5820   81.3740 C.3   143  TRP143      0.1605
     66  C        -38.6430  -16.2240   82.7590 C.2   143  TRP143      0.2264
     67  O        -39.6540  -16.7020   83.2830 O.2   143  TRP143     -0.2867
     68  CB       -39.8170  -14.5250   81.3280 C.3   143  TRP143      0.0550
     69  CG       -39.5170  -13.2450   82.0730 C.ar  143  TRP143      0.0003
     70  CD1      -38.6310  -13.0710   83.1020 C.ar  143  TRP143      0.0946
     71  CD2      -40.1340  -11.9670   81.8600 C.ar  143  TRP143      0.0152
     72  NE1      -38.6460  -11.7660   83.5280 N.ar  143  TRP143     -0.2442
     73  CE2      -39.5600  -11.0660   82.7860 C.ar  143  TRP143      0.0810
     74  CE3      -41.1100  -11.4940   80.9720 C.ar  143  TRP143      0.0012
     75  CZ2      -39.9310   -9.7180   82.8510 C.ar  143  TRP143      0.0191
     76  CZ3      -41.4790  -10.1530   81.0370 C.ar  143  TRP143      0.0001
     77  CH2      -40.8900   -9.2820   81.9720 C.ar  143  TRP143      0.0015
     78  N        -38.0630  -16.0980   86.7860 N.3   145  LEU145     -0.1245
     79  CA       -38.1390  -15.2690   87.9900 C.3   145  LEU145      0.1561
     80  C        -38.3900  -16.0990   89.2490 C.2   145  LEU145      0.2260
     81  O        -38.6010  -17.3120   89.1690 O.2   145  LEU145     -0.2867
     82  CB       -39.1860  -14.1460   87.8540 C.3   145  LEU145      0.0270
     83  CG       -40.5190  -14.2340   87.0930 C.3   145  LEU145      0.0019
     84  CD1      -41.2630  -15.5390   87.2830 C.3   145  LEU145      0.0001
     85  CD2      -41.4070  -13.0710   87.5130 C.3   145  LEU145      0.0001
     86  N        -32.8520   -8.9110   81.1260 N.3   175  HIS175     -0.1241
     87  CA       -33.9810   -8.0530   81.4750 C.3   175  HIS175      0.1621
     88  C        -33.5620   -6.8690   82.3410 C.2   175  HIS175      0.2264
     89  O        -33.0480   -7.0370   83.4480 O.2   175  HIS175     -0.2867
     90  CB       -35.1040   -8.8390   82.1610 C.3   175  HIS175      0.0745
     91  CG       -36.2510   -7.9800   82.5990 C.ar  175  HIS175      0.0817
     92  ND1      -36.5470   -7.7540   83.9260 N.ar  175  HIS175     -0.2268
     93  CD2      -37.1520   -7.2630   81.8860 C.ar  175  HIS175      0.1154
     94  CE1      -37.5920   -6.9500   84.0110 C.ar  175  HIS175      0.1986
     95  NE2      -37.9760   -6.6340   82.7870 N.ar  175  HIS175     -0.2212
     96  N        -37.9260   -1.8180   85.2640 N.3   178  GLU178     -0.1245
     97  CA       -38.3900   -0.4310   85.3040 C.3   178  GLU178      0.1567
     98  C        -37.7300    0.3530   86.4490 C.2   178  GLU178      0.2260
     99  O        -37.5010    1.5590   86.3310 O.2   178  GLU178     -0.2867
    100  CB       -39.9230   -0.3890   85.4120 C.3   178  GLU178      0.0388
    101  CG       -40.5590    1.0100   85.4300 C.3   178  GLU178      0.1160
    102  CD       -40.4670    1.7500   84.0980 C.2   178  GLU178      0.3649
    103  OE1      -40.3450    1.0990   83.0360 O.co2 178  GLU178     -0.2457
    104  OE2      -40.5260    2.9970   84.1170 O.co2 178  GLU178     -0.2457
    105  N        -38.5660   -3.0200   91.2850 N.3   182  GLU182     -0.1245
    106  CA       -39.1360   -4.0530   90.4250 C.3   182  GLU182      0.1567
    107  C        -38.1680   -5.2170   90.2210 C.2   182  GLU182      0.2260
    108  O        -38.5880   -6.3770   90.1850 O.2   182  GLU182     -0.2867
    109  CB       -39.5710   -3.4700   89.0810 C.3   182  GLU182      0.0388
    110  CG       -40.5510   -4.3540   88.3240 C.3   182  GLU182      0.1160
    111  CD       -40.8370   -3.8520   86.9250 C.2   182  GLU182      0.3649
    112  OE1      -39.8810   -3.7030   86.1340 O.co2 182  GLU182     -0.2457
    113  OE2      -42.0230   -3.6170   86.6110 O.co2 182  GLU182     -0.2457
    114  N        -38.5180   -7.1240   93.2670 N.3   185  LYS185     -0.1231
    115  CA       -39.7680   -7.8860   93.2640 C.3   185  LYS185      0.1693
    116  C        -39.6600   -9.1870   92.4650 C.2   185  LYS185      0.2591
    117  O        -40.1080  -10.2390   92.9230 O.2   185  LYS185     -0.2718
    118  CB       -40.9320   -7.0390   92.7360 C.3   185  LYS185      0.0285
    119  CG       -42.3120   -7.6480   93.0110 C.3   185  LYS185      0.0035
    120  CD       -43.4440   -6.8610   92.3570 C.3   185  LYS185      0.0206
    121  CE       -43.6440   -7.2600   90.9010 C.3   185  LYS185      0.1093
    122  NZ       -44.8310   -6.5940   90.2940 N.3   185  LYS185     -0.1314
    123  N        -39.0520   -9.1120   91.2850 N.am  186  LEU186     -0.1980
    124  CA       -38.9980  -10.2520   90.3700 C.3   186  LEU186      0.1596
    125  C        -37.9160  -11.2740   90.7180 C.2   186  LEU186      0.2287
    126  O        -38.1380  -12.4800   90.5910 O.2   186  LEU186     -0.2864
    127  CB       -38.8220   -9.7790   88.9190 C.3   186  LEU186      0.0297
    128  CG       -39.8140   -8.7790   88.3090 C.3   186  LEU186      0.0022
    129  CD1      -39.3320   -8.3400   86.9370 C.3   186  LEU186      0.0001
    130  CD2      -41.2270   -9.3410   88.2190 C.3   186  LEU186      0.0001
    131  N        -37.9940   -0.1980   81.3380 N.3   212  ARG212     -0.1245
    132  CA       -38.3410   -1.5540   80.9000 C.3   212  ARG212      0.1563
    133  C        -37.7960   -1.9110   79.5190 C.2   212  ARG212      0.2260
    134  O        -38.1730   -1.2900   78.5200 O.2   212  ARG212     -0.2867
    135  CB       -39.8630   -1.7380   80.9000 C.3   212  ARG212      0.0307
    136  CG       -40.4200   -2.3610   82.1620 C.3   212  ARG212      0.0489
    137  CD       -41.8960   -2.7110   82.0040 C.3   212  ARG212      0.2205
    138  NE       -42.7680   -1.5700   82.2740 N.pl3 212  ARG212     -0.0865
    139  CZ       -43.2310   -1.2440   83.4780 C.cat 212  ARG212      0.5346
    140  NH1      -42.9070   -1.9680   84.5430 N.pl3 212  ARG212      0.1354
    141  NH2      -44.0190   -0.1860   83.6200 N.pl3 212  ARG212      0.1354
@<TRIPOS>BOND
     1    56    55    2
     2     4     3    2
     3     1     2    1
     4    55    54    1
     5     3     2    1
     6     3    13   am
     7    14    15    1
     8    14    13    1
     9    14    17    1
    10     2     5    1
    11    15    16    2
    12    13    19    1
    13    54    57    1
    14    54    53    1
    15    17    18    1
    16     5     6    1
    17    50    49    2
    18    19    18    1
    19    53    49   am
    20    49    48    1
    21    58    59    1
    22     6     8   ar
    23     6     7   ar
    24    43    42    2
    25     8    10   ar
    26    59    60    1
    27    59    62    1
    28    60    61    2
    29    46    44    1
    30    48    51    1
    31    48    47    1
    32     7     9   ar
    33    42    47   am
    34    42    41    1
    35    51    52    1
    36    45    44    1
    37   134   133    2
    38    10    11   ar
    39    44    41    1
    40    62    63    1
    41     9    11   ar
    42    41    40    1
    43    40    37   am
    44    11    12    1
    45   133   132    1
    46    64    65    1
    47    39    36    1
    48    34    33    2
    49    37    36    1
    50    37    38    2
    51    36    35    1
    52   132   135    1
    53   132   131    1
    54   135   136    1
    55    74    76   ar
    56    74    71   ar
    57    76    77   ar
    58    86    87    1
    59    68    65    1
    60    68    69    1
    61    65    66    1
    62    87    90    1
    63    87    88    1
    64    33    35   am
    65    33    32    1
    66    71    69   ar
    67    71    73   ar
    68    93    91   ar
    69    93    95   ar
    70    77    75   ar
    71   137   136    1
    72   137   138    1
    73    69    70   ar
    74    90    91    1
    75   138   139    2
    76    88    89    2
    77    91    92   ar
    78    66    67    2
    79    73    75   ar
    80    73    72   ar
    81    95    94   ar
    82    32    31    1
    83   103   102   ar
    84    70    72   ar
    85   139   141    1
    86   139   140    1
    87    92    94   ar
    88   102   104   ar
    89   102   101    1
    90    96    97    1
    91    97   100    1
    92    97    98    1
    93   100   101    1
    94   112   111   ar
    95    23    22    2
    96    99    98    2
    97    22    21    1
    98   113   111   ar
    99    78    79    1
   100   111   110    1
   101   129   128    1
   102    83    84    1
   103    83    85    1
   104    83    82    1
   105    82    79    1
   106    21    24    1
   107    21    20    1
   108    79    80    1
   109   130   128    1
   110   128   127    1
   111   110   109    1
   112    24    25    1
   113    30    28    1
   114   127   124    1
   115   109   106    1
   116    81    80    2
   117    27    28    2
   118    27    26    1
   119    25    26    1
   120    28    29    1
   121   108   107    2
   122   107   106    1
   123   122   121    1
   124   124   125    1
   125   124   123    1
   126   106   105    1
   127   126   125    2
   128   121   120    1
   129   123   116   am
   130   120   119    1
   131   116   117    2
   132   116   115    1
   133   118   119    1
   134   118   115    1
   135   115   114    1
