@<TRIPOS>MOLECULE
tmp/3m5kB00.pdb
 85 81 0 0 0
SMALL
GASTEIGER

@<TRIPOS>ATOM
      1  N         92.6500  103.2640   52.6380 N.3    35  ALA35      -0.1231
      2  CA        91.2260  102.9850   52.6900 C.3    35  ALA35       0.1694
      3  C         90.6390  102.8490   54.1150 C.2    35  ALA35       0.2592
      4  O         89.4410  102.5920   54.2620 O.2    35  ALA35      -0.2718
      5  CB        90.8990  101.7010   51.8760 C.3    35  ALA35       0.0304
      6  N         91.4720  102.9850   55.1450 N.am   36  ALA36      -0.1966
      7  CA        91.0330  102.8800   56.5300 C.3    36  ALA36       0.1713
      8  C         89.9730  103.9510   56.8470 C.2    36  ALA36       0.2458
      9  O         89.9280  105.0100   56.1930 O.2    36  ALA36      -0.2730
     10  CB        92.2360  103.0210   57.5050 C.3    36  ALA36       0.0333
     11  N         89.1410  103.6820   57.8650 N.am   37  PRO37      -0.2716
     12  CA        88.2940  104.7390   58.4110 C.3    37  PRO37       0.1536
     13  C         89.1800  105.7790   59.1070 C.2    37  PRO37       0.2599
     14  O         90.3460  105.4790   59.4440 O.2    37  PRO37      -0.2715
     15  CB        87.4060  103.9830   59.4280 C.3    37  PRO37       0.0310
     16  CG        88.3040  102.8280   59.9010 C.3    37  PRO37       0.0237
     17  CD        89.0330  102.4220   58.6310 C.3    37  PRO37       0.0939
     18  N         88.6610  106.9790   59.3230 N.am   38  SER38      -0.1936
     19  CA        89.4500  108.0700   59.8990 C.3    38  SER38       0.2055
     20  C         88.5600  108.9910   60.7210 C.2    38  SER38       0.2644
     21  O         87.5180  109.4530   60.2300 O.2    38  SER38      -0.2714
     22  CB        90.1230  108.8950   58.7690 C.3    38  SER38       0.2130
     23  OG        90.7510  110.0690   59.2630 O.3    38  SER38      -0.2179
     24  N         88.9720  109.2750   61.9500 N.am   39  SER39      -0.1935
     25  CA        88.2410  110.2370   62.7950 C.3    39  SER39       0.2055
     26  C         88.0500  111.5940   62.0640 C.2    39  SER39       0.2643
     27  O         89.0050  112.2480   61.6440 O.2    39  SER39      -0.2714
     28  CB        88.9310  110.4340   64.1340 C.3    39  SER39       0.2130
     29  OG        88.3770  111.5420   64.8210 O.3    39  SER39      -0.2179
     30  N         86.7900  111.9890   61.9170 N.am   40  ARG40      -0.1963
     31  CA        86.3980  113.2120   61.1900 C.3    40  ARG40       0.1729
     32  C         86.8950  113.2520   59.7450 C.2    40  ARG40       0.2616
     33  O         86.9710  114.3230   59.1310 O.2    40  ARG40      -0.2715
     34  CB        86.8430  114.4660   61.9540 C.3    40  ARG40       0.0348
     35  CG        86.0390  114.7210   63.2190 C.3    40  ARG40       0.0492
     36  CD        86.8630  115.4380   64.2710 C.3    40  ARG40       0.2205
     37  NE        87.1400  116.8300   63.9210 N.pl3  40  ARG40      -0.0865
     38  CZ        87.8440  117.6850   64.6710 C.cat  40  ARG40       0.5346
     39  NH1       88.3600  117.3160   65.8490 N.pl3  40  ARG40       0.1354
     40  NH2       88.0230  118.9280   64.2420 N.pl3  40  ARG40       0.1354
     41  N         87.1750  112.0790   59.1910 N.am   41  ASP41      -0.1971
     42  CA        87.7800  111.9360   57.8720 C.3    41  ASP41       0.1709
     43  C         88.9920  112.8420   57.6430 C.2    41  ASP41       0.2293
     44  O         89.1460  113.4390   56.5590 O.2    41  ASP41      -0.2864
     45  CB        86.7290  112.1230   56.7550 C.3    41  ASP41       0.1436
     46  CG        87.0940  111.3900   55.4640 C.2    41  ASP41       0.3671
     47  OD1       88.0090  110.5330   55.4770 O.co2  41  ASP41      -0.2456
     48  OD2       86.4190  111.6390   54.4180 O.co2  41  ASP41      -0.2456
     49  N         92.1440  111.8450   57.6050 N.3    43  ARG43      -0.1245
     50  CA        93.1790  111.1110   56.8140 C.3    43  ARG43       0.1563
     51  C         94.6110  111.5540   57.1290 C.2    43  ARG43       0.2260
     52  O         95.3600  111.9920   56.2620 O.2    43  ARG43      -0.2867
     53  CB        92.8880  111.2530   55.3140 C.3    43  ARG43       0.0307
     54  CG        91.4380  111.0030   54.9970 C.3    43  ARG43       0.0489
     55  CD        91.1270  111.1430   53.5170 C.3    43  ARG43       0.2205
     56  NE        89.6960  111.0330   53.2830 N.pl3  43  ARG43      -0.0865
     57  CZ        89.1210  111.1420   52.0910 C.cat  43  ARG43       0.5346
     58  NH1       89.8580  111.3440   51.0020 N.pl3  43  ARG43       0.1354
     59  NH2       87.8010  111.0470   51.9870 N.pl3  43  ARG43       0.1354
     60  N         93.5370  111.6450   67.6030 N.3    86  ALA86      -0.1245
     61  CA        93.2210  110.3120   67.1000 C.3    86  ALA86       0.1562
     62  C         94.1590  109.7660   66.0090 C.2    86  ALA86       0.2260
     63  O         93.8820  108.7000   65.4590 O.2    86  ALA86      -0.2867
     64  CB        91.7330  110.2490   66.6290 C.3    86  ALA86       0.0290
     65  N         95.0910  106.0650   66.2520 N.3    89  LEU89      -0.1231
     66  CA        93.9590  105.1370   66.0580 C.3    89  LEU89       0.1693
     67  C         93.7180  104.9280   64.5700 C.2    89  LEU89       0.2592
     68  O         93.6920  103.7880   64.0710 O.2    89  LEU89      -0.2718
     69  CB        92.7140  105.6890   66.7900 C.3    89  LEU89       0.0284
     70  CG        92.8640  106.0170   68.2790 C.3    89  LEU89       0.0019
     71  CD1       91.5410  106.6360   68.8270 C.3    89  LEU89       0.0001
     72  CD2       93.3260  104.7520   69.0830 C.3    89  LEU89       0.0001
     73  N         93.5730  106.0430   63.8370 N.am   90  ASP90      -0.1974
     74  CA        93.4650  106.0140   62.3820 C.3    90  ASP90       0.1709
     75  C         94.6300  105.2080   61.7540 C.2    90  ASP90       0.2293
     76  O         94.4160  104.3440   60.8990 O.2    90  ASP90      -0.2864
     77  CB        93.5680  107.4290   61.8110 C.3    90  ASP90       0.1436
     78  CG        92.3290  108.2870   62.0200 C.2    90  ASP90       0.3671
     79  OD1       91.3850  107.9460   62.7970 O.co2  90  ASP90      -0.2456
     80  OD2       92.3270  109.3510   61.3570 O.co2  90  ASP90      -0.2456
     81  N         94.3880  101.4110   62.2630 N.3    93  ALA93      -0.1245
     82  CA        93.4290  100.8330   61.3050 C.3    93  ALA93       0.1562
     83  C         94.0460  100.7010   59.9000 C.2    93  ALA93       0.2260
     84  O         93.8930   99.6660   59.2360 O.2    93  ALA93      -0.2867
     85  CB        92.1200  101.6860   61.2580 C.3    93  ALA93       0.0290
@<TRIPOS>BOND
     1    58    57    1
     2     5     2    1
     3    59    57    1
     4    57    56    2
     5     1     2    1
     6     2     3    1
     7    56    55    1
     8    55    54    1
     9     3     4    2
    10     3     6   am
    11    48    46   ar
    12    54    53    1
    13     6     7    1
    14    53    50    1
    15    46    47   ar
    16    46    45    1
    17     9     8    2
    18    52    51    2
    19     7     8    1
    20     7    10    1
    21    44    43    2
    22    45    42    1
    23    50    51    1
    24    50    49    1
    25     8    11   am
    26    43    42    1
    27    11    12    1
    28    11    17    1
    29    42    41    1
    30    12    13    1
    31    12    15    1
    32    17    16    1
    33    22    23    1
    34    22    19    1
    35    13    18   am
    36    13    14    2
    37    33    32    2
    38    41    32   am
    39    84    83    2
    40    18    19    1
    41    15    16    1
    42    32    31    1
    43    19    20    1
    44    83    82    1
    45    21    20    2
    46    20    24   am
    47    76    75    2
    48    31    30    1
    49    31    34    1
    50    85    82    1
    51    82    81    1
    52    80    78   ar
    53    27    26    2
    54    75    74    1
    55    77    78    1
    56    77    74    1
    57    30    26   am
    58    24    25    1
    59    34    35    1
    60    78    79   ar
    61    26    25    1
    62    74    73    1
    63    25    28    1
    64    35    36    1
    65    73    67   am
    66    37    36    1
    67    37    38    2
    68    68    67    2
    69    28    29    1
    70    40    38    1
    71    67    66    1
    72    38    39    1
    73    63    62    2
    74    62    61    1
    75    66    65    1
    76    66    69    1
    77    64    61    1
    78    69    70    1
    79    61    60    1
    80    70    71    1
    81    70    72    1
