@<TRIPOS>MOLECULE
tmp/3m5kB01.pdb
 136 132 0 0 0
SMALL
GASTEIGER

@<TRIPOS>ATOM
      1  N         95.8740   85.4420   58.8460 N.3    11  ARG11      -0.1231
      2  CA        96.9950   86.3800   58.9630 C.3    11  ARG11       0.1694
      3  C         97.8560   85.9680   60.1470 C.2    11  ARG11       0.2592
      4  O         97.3200   85.5610   61.2030 O.2    11  ARG11      -0.2718
      5  CB        96.4930   87.8350   59.1390 C.3    11  ARG11       0.0321
      6  CG        97.5750   88.9070   59.1680 C.3    11  ARG11       0.0489
      7  CD        97.1850   90.0770   60.1510 C.3    11  ARG11       0.2205
      8  NE        96.8150   89.5340   61.4590 N.pl3  11  ARG11      -0.0865
      9  CZ        97.6820   89.0740   62.3560 C.cat  11  ARG11       0.5346
     10  NH1       98.9860   89.1840   62.1760 N.pl3  11  ARG11       0.1354
     11  NH2       97.2490   88.5380   63.4900 N.pl3  11  ARG11       0.1354
     12  N         99.1780   86.0310   59.9610 N.am   12  LYS12      -0.1966
     13  CA       100.1500   85.8820   61.0290 C.3    12  LYS12       0.1728
     14  C        101.3210   86.8190   60.8220 C.2    12  LYS12       0.2616
     15  O        101.5660   87.3060   59.7150 O.2    12  LYS12      -0.2715
     16  CB       100.6160   84.4220   61.2340 C.3    12  LYS12       0.0311
     17  CG       101.6810   83.8810   60.2400 C.3    12  LYS12       0.0038
     18  CD       101.1640   83.8200   58.8250 C.3    12  LYS12       0.0206
     19  CE       100.2580   82.6810   58.5670 C.3    12  LYS12       0.1093
     20  NZ        99.7350   82.7020   57.1820 N.3    12  LYS12      -0.1314
     21  N        102.0240   87.0980   61.9090 N.am   13  SER13      -0.1950
     22  CA       103.2760   87.8640   61.8620 C.3    13  SER13       0.1924
     23  C        104.3650   86.9910   61.2350 C.2    13  SER13       0.2314
     24  O        104.6330   85.8810   61.7040 O.2    13  SER13      -0.2863
     25  CB       103.7130   88.3370   63.2220 C.3    13  SER13       0.2116
     26  OG       102.7590   89.2750   63.7400 O.3    13  SER13      -0.2180
     27  N        108.3200   86.9240   60.1170 N.3    15  ARG15      -0.1245
     28  CA       109.5750   87.5730   60.4730 C.3    15  ARG15       0.1563
     29  C        110.8020   87.0290   59.7170 C.2    15  ARG15       0.2260
     30  O        111.8990   87.5100   59.9490 O.2    15  ARG15      -0.2867
     31  CB       109.8220   87.4320   61.9640 C.3    15  ARG15       0.0307
     32  CG       108.6790   88.0130   62.8260 C.3    15  ARG15       0.0489
     33  CD       108.9740   87.8770   64.3160 C.3    15  ARG15       0.2205
     34  NE       107.9820   88.5690   65.1410 N.pl3  15  ARG15      -0.0865
     35  CZ       106.8360   88.0320   65.5330 C.cat  15  ARG15       0.5346
     36  NH1      106.4770   86.8140   65.1330 N.pl3  15  ARG15       0.1354
     37  NH2      105.9900   88.7470   66.2540 N.pl3  15  ARG15       0.1354
     38  N        114.2900   97.4800   69.4350 N.3    63  PRO63      -0.2102
     39  CA       114.2090   96.0960   69.8960 C.3    63  PRO63       0.1504
     40  C        113.2220   95.2910   69.0090 C.2    63  PRO63       0.2575
     41  O        112.3130   95.8370   68.3980 O.2    63  PRO63      -0.2718
     42  CB       113.6990   96.2410   71.3330 C.3    63  PRO63       0.0282
     43  CG       112.9250   97.5190   71.3270 C.3    63  PRO63       0.0208
     44  CD       113.5930   98.4230   70.3430 C.3    63  PRO63       0.0893
     45  N        113.4220   93.9980   68.9120 N.am   64  PHE64      -0.1977
     46  CA       112.4760   93.1550   68.1920 C.3    64  PHE64       0.1639
     47  C        112.2310   93.5780   66.7490 C.2    64  PHE64       0.2290
     48  O        111.1420   93.3800   66.2410 O.2    64  PHE64      -0.2864
     49  CB       111.1340   93.1040   68.9520 C.3    64  PHE64       0.0560
     50  CG       111.3030   93.0000   70.4310 C.ar   64  PHE64      -0.0200
     51  CD1      111.9070   91.8850   70.9730 C.ar   64  PHE64      -0.0042
     52  CD2      110.8940   94.0340   71.2630 C.ar   64  PHE64      -0.0042
     53  CE1      112.0880   91.7720   72.3290 C.ar   64  PHE64      -0.0003
     54  CE2      111.0770   93.9400   72.6330 C.ar   64  PHE64      -0.0003
     55  CZ       111.6910   92.7980   73.1570 C.ar   64  PHE64      -0.0000
     56  N        104.9700   92.0250   59.4000 N.3   109  VAL109     -0.1231
     57  CA       104.8680   92.0830   60.8430 C.3   109  VAL109      0.1692
     58  C        104.8770   93.5460   61.2690 C.2   109  VAL109      0.2592
     59  O        105.6250   94.3810   60.7200 O.2   109  VAL109     -0.2718
     60  CB       105.9860   91.2660   61.5820 C.3   109  VAL109      0.0266
     61  CG1      107.4260   91.6920   61.1050 C.3   109  VAL109      0.0020
     62  CG2      105.8470   91.3420   63.1250 C.3   109  VAL109      0.0020
     63  N        103.9970   93.8670   62.2130 N.am  110  TRP110     -0.1962
     64  CA       104.0210   95.1910   62.8640 C.3   110  TRP110      0.1771
     65  C        105.1620   95.2390   63.8530 C.2   110  TRP110      0.2620
     66  O        105.1810   94.4700   64.8100 O.2   110  TRP110     -0.2715
     67  CB       102.6700   95.3980   63.5690 C.3   110  TRP110      0.0590
     68  CG       102.4660   96.6580   64.3260 C.ar  110  TRP110      0.0006
     69  CD1      103.3430   97.3020   65.1460 C.ar  110  TRP110      0.0946
     70  CD2      101.2440   97.3930   64.4000 C.ar  110  TRP110      0.0152
     71  NE1      102.7530   98.4290   65.6770 N.ar  110  TRP110     -0.2442
     72  CE2      101.4650   98.4980   65.2490 C.ar  110  TRP110      0.0810
     73  CE3      100.0040   97.2360   63.8180 C.ar  110  TRP110      0.0012
     74  CZ2      100.4610   99.4320   65.5490 C.ar  110  TRP110      0.0191
     75  CZ3       98.9960   98.1750   64.1270 C.ar  110  TRP110      0.0001
     76  CH2       99.2560   99.2520   64.9640 C.ar  110  TRP110      0.0015
     77  N        106.1480   96.0940   63.6390 N.am  111  THR111     -0.1937
     78  CA       107.1480   96.2680   64.6880 C.3   111  THR111      0.2028
     79  C        106.9500   97.6170   65.3290 C.2   111  THR111      0.2642
     80  O        106.7020   98.6260   64.6580 O.2   111  THR111     -0.2714
     81  CB       108.6170   96.0350   64.2520 C.3   111  THR111      0.1808
     82  OG1      109.1330   97.2090   63.6300 O.3   111  THR111     -0.2208
     83  CG2      108.7300   94.8070   63.3270 C.3   111  THR111      0.0379
     84  N        106.9970   97.5860   66.6480 N.am  112  ALA112     -0.1977
     85  CA       106.6320   98.7210   67.5140 C.3   112  ALA112      0.1597
     86  C        107.6210   99.9050   67.4190 C.2   112  ALA112      0.2287
     87  O        108.8330   99.7180   67.4030 O.2   112  ALA112     -0.2864
     88  CB       106.5370   98.2520   68.9770 C.3   112  ALA112      0.0319
     89  N        105.9340  103.6350   68.1540 N.3   114  TYR114     -0.1241
     90  CA       105.0470  104.3320   69.0970 C.3   114  TYR114      0.1605
     91  C        104.5190  103.3110   70.1210 C.2   114  TYR114      0.2264
     92  O        104.1860  102.2020   69.7400 O.2   114  TYR114     -0.2867
     93  CB       103.8930  104.9700   68.3150 C.3   114  TYR114      0.0534
     94  CG       103.0490  105.9660   69.0740 C.ar  114  TYR114     -0.0201
     95  CD1      103.4990  107.2510   69.3260 C.ar  114  TYR114     -0.0009
     96  CD2      101.7850  105.6100   69.5330 C.ar  114  TYR114     -0.0009
     97  CE1      102.6970  108.1760   70.0110 C.ar  114  TYR114      0.0417
     98  CE2      100.9910  106.5190   70.2140 C.ar  114  TYR114      0.0417
     99  CZ       101.4550  107.7800   70.4650 C.ar  114  TYR114      0.1957
    100  OH       100.6120  108.6440   71.1250 O.3   114  TYR114     -0.2866
    101  N        112.5060  104.9110   70.5840 N.3   119  ARG119     -0.1245
    102  CA       112.2010  104.3010   69.2840 C.3   119  ARG119      0.1563
    103  C        111.7210  105.3370   68.2910 C.2   119  ARG119      0.2260
    104  O        112.1540  105.3570   67.1280 O.2   119  ARG119     -0.2867
    105  CB       111.1660  103.1390   69.4120 C.3   119  ARG119      0.0307
    106  CG       111.5640  102.0820   70.4280 C.3   119  ARG119      0.0489
    107  CD       110.6300  100.9010   70.4110 C.3   119  ARG119      0.2205
    108  NE       110.6300  100.2510   71.7100 N.pl3 119  ARG119     -0.0865
    109  CZ       109.9300   99.1700   72.0360 C.cat 119  ARG119      0.5346
    110  NH1      109.2380   98.5220   71.1570 N.pl3 119  ARG119      0.1354
    111  NH2      109.9480   98.7450   73.2850 N.pl3 119  ARG119      0.1354
    112  N        102.2820   79.3180   60.9090 N.3   147  THR147     -0.1218
    113  CA       100.9770   78.9060   61.4600 C.3   147  THR147      0.1862
    114  C        100.3000   80.1150   62.1170 C.2   147  THR147      0.2287
    115  O        100.9170   80.7680   62.9580 O.2   147  THR147     -0.2866
    116  CB       101.1380   77.7910   62.5210 C.3   147  THR147      0.1770
    117  OG1      102.0180   76.7760   62.0270 O.3   147  THR147     -0.2211
    118  CG2       99.7750   77.1680   62.8840 C.3   147  THR147      0.0375
    119  N         97.7500   81.8760   64.8130 N.3   149  LYS149     -0.1245
    120  CA        97.2690   81.6470   66.1570 C.3   149  LYS149      0.1561
    121  C         95.7710   81.6900   66.1710 C.2   149  LYS149      0.2260
    122  O         95.1770   82.5160   65.4720 O.2   149  LYS149     -0.2867
    123  CB        97.7760   82.7560   67.0650 C.3   149  LYS149      0.0271
    124  CG        99.2890   82.7570   67.1740 C.3   149  LYS149      0.0035
    125  CD        99.8030   83.8970   67.8970 C.3   149  LYS149      0.0206
    126  CE       101.3320   83.8860   67.8420 C.3   149  LYS149      0.1093
    127  NZ       101.9450   84.6570   68.9570 N.3   149  LYS149     -0.1314
    128  N         93.0680   82.8260   68.4270 N.3   151  LYS151     -0.1245
    129  CA        92.9790   83.6880   69.5920 C.3   151  LYS151      0.1561
    130  C         91.5660   83.7620   70.1900 C.2   151  LYS151      0.2260
    131  O         91.3580   84.5180   71.1420 O.2   151  LYS151     -0.2867
    132  CB        93.4730   85.1200   69.2630 C.3   151  LYS151      0.0271
    133  CG        94.8700   85.2570   68.6680 C.3   151  LYS151      0.0035
    134  CD        95.4220   86.6450   68.8480 C.3   151  LYS151      0.0206
    135  CE        96.6830   86.9220   67.9950 C.3   151  LYS151      0.1093
    136  NZ        96.3920   87.0730   66.5370 N.3   151  LYS151     -0.1314
@<TRIPOS>BOND
     1    20    19    1
     2    19    18    1
     3    18    17    1
     4     1     2    1
     5     2     5    1
     6     2     3    1
     7     5     6    1
     8     6     7    1
     9    56    57    1
    10    15    14    2
    11    29    30    2
    12    29    28    1
    13    12     3   am
    14    12    13    1
    15    27    28    1
    16     3     4    2
    17     7     8    1
    18    17    16    1
    19    28    31    1
    20    59    58    2
    21    14    13    1
    22    14    21   am
    23    57    58    1
    24    57    60    1
    25   112   113    1
    26    13    16    1
    27    61    60    1
    28    23    24    2
    29    23    22    1
    30    58    63   am
    31     8     9    2
    32   113   114    1
    33   113   116    1
    34    60    62    1
    35    22    21    1
    36    22    25    1
    37    31    32    1
    38   117   116    1
    39   114   115    2
    40    10     9    1
    41    63    64    1
    42     9    11    1
    43   116   118    1
    44    32    33    1
    45    64    67    1
    46    64    65    1
    47    25    26    1
    48    83    81    1
    49    67    68    1
    50    82    81    1
    51    77    65   am
    52    77    78    1
    53    73    75   ar
    54    73    70   ar
    55    65    66    2
    56    75    76   ar
    57    81    78    1
    58    33    34    1
    59    68    70   ar
    60    68    69   ar
    61    70    72   ar
    62    80    79    2
    63    78    79    1
    64   119   120    1
    65    76    74   ar
    66    36    35    1
    67    34    35    2
    68    69    71   ar
    69    72    74   ar
    70    72    71   ar
    71    79    84   am
    72   122   121    2
    73    35    37    1
    74   120   121    1
    75   120   123    1
    76    48    47    2
    77   136   135    1
    78    84    85    1
    79    47    46    1
    80   123   124    1
    81   104   103    2
    82   124   125    1
    83    87    86    2
    84    86    85    1
    85    85    88    1
    86   126   125    1
    87   126   127    1
    88   135   134    1
    89    89    90    1
    90    46    45    1
    91    46    49    1
    92   103   102    1
    93    93    94    1
    94    93    90    1
    95    41    40    2
    96   128   129    1
    97   133   134    1
    98   133   132    1
    99    45    40   am
   100    49    50    1
   101    40    39    1
   102    94    95   ar
   103    94    96   ar
   104    90    91    1
   105   132   129    1
   106   102   105    1
   107   102   101    1
   108    95    97   ar
   109   105   106    1
   110    38    39    1
   111    38    44    1
   112    96    98   ar
   113   129   130    1
   114    92    91    2
   115    39    42    1
   116    97    99   ar
   117   130   131    2
   118    98    99   ar
   119    44    43    1
   120   107   106    1
   121   107   108    1
   122    50    51   ar
   123    50    52   ar
   124    99   100    1
   125    51    53   ar
   126   110   109    1
   127    52    54   ar
   128    43    42    1
   129   108   109    2
   130   109   111    1
   131    53    55   ar
   132    54    55   ar
