@<TRIPOS>MOLECULE
tmp/3m5lA00.pdb
 160 154 0 0 0
SMALL
GASTEIGER

@<TRIPOS>ATOM
      1  N          2.3520   -6.3180   -8.1990 N.3    60  GLN60      -0.1231
      2  CA         3.2380   -5.8980   -9.2790 C.3    60  GLN60       0.1698
      3  C          2.4850   -5.2570  -10.4190 C.2    60  GLN60       0.2593
      4  O          1.3020   -5.4970  -10.6190 O.2    60  GLN60      -0.2718
      5  CB         4.0460   -7.0840   -9.8010 C.3    60  GLN60       0.0381
      6  CG         5.0000   -7.6670   -8.7720 C.3    60  GLN60       0.0905
      7  CD         6.0170   -8.6100   -9.3800 C.2    60  GLN60       0.2608
      8  OE1        7.2280   -8.3540   -9.3470 O.2    60  GLN60      -0.2717
      9  NE2        5.5370   -9.7050   -9.9450 N.am   60  GLN60      -0.0878
     10  N          3.1950   -4.4410  -11.1810 N.am   61  THR61      -0.1939
     11  CA         2.6550   -3.9020  -12.4230 C.3    61  THR61       0.2028
     12  C          3.6890   -4.0430  -13.5270 C.2    61  THR61       0.2642
     13  O          4.9030   -3.9620  -13.2930 O.2    61  THR61      -0.2714
     14  CB         2.1910   -2.4050  -12.3240 C.3    61  THR61       0.1808
     15  OG1        1.3160   -2.2140  -11.2080 O.3    61  THR61      -0.2208
     16  CG2        1.4300   -2.0310  -13.5610 C.3    61  THR61       0.0379
     17  N          3.2030   -4.3280  -14.7250 N.am   62  PHE62      -0.1973
     18  CA         4.0610   -4.6560  -15.8520 C.3    62  PHE62       0.1639
     19  C          3.2420   -4.4670  -17.1390 C.2    62  PHE62       0.2290
     20  O          2.2270   -3.7700  -17.1100 O.2    62  PHE62      -0.2864
     21  CB         4.6950   -6.0650  -15.6750 C.3    62  PHE62       0.0560
     22  CG         3.7200   -7.1670  -15.2810 C.ar   62  PHE62      -0.0200
     23  CD1        3.2470   -7.2900  -13.9790 C.ar   62  PHE62      -0.0042
     24  CD2        3.3100   -8.0930  -16.2070 C.ar   62  PHE62      -0.0042
     25  CE1        2.3580   -8.2920  -13.6350 C.ar   62  PHE62      -0.0003
     26  CE2        2.4340   -9.1050  -15.8620 C.ar   62  PHE62      -0.0003
     27  CZ         1.9590   -9.2060  -14.5840 C.ar   62  PHE62      -0.0000
     28  N          4.9390  -11.8410  -19.2730 N.3    74  VAL74      -0.1245
     29  CA         5.9390  -12.6560  -18.5990 C.3    74  VAL74       0.1561
     30  C          5.3660  -13.4570  -17.4310 C.2    74  VAL74       0.2260
     31  O          4.5440  -12.9760  -16.6430 O.2    74  VAL74      -0.2867
     32  CB         7.1340  -11.7960  -18.1030 C.3    74  VAL74       0.0252
     33  CG1        8.0200  -11.4070  -19.2800 C.3    74  VAL74       0.0019
     34  CG2        6.6540  -10.5730  -17.3200 C.3    74  VAL74       0.0019
     35  N          7.0540  -14.3060  -14.8500 N.3    76  HIS76      -0.1226
     36  CA         7.5580  -13.7920  -13.5850 C.3    76  HIS76       0.1752
     37  C          6.6890  -12.6510  -13.0270 C.2    76  HIS76       0.2596
     38  O          6.7860  -12.3350  -11.8480 O.2    76  HIS76      -0.2718
     39  CB         9.0640  -13.4250  -13.6510 C.3    76  HIS76       0.0759
     40  CG         9.3770  -12.1260  -14.3380 C.ar   76  HIS76       0.0818
     41  ND1        9.8430  -12.0630  -15.6400 N.ar   76  HIS76      -0.2268
     42  CD2        9.4030  -10.8540  -13.8670 C.ar   76  HIS76       0.1154
     43  CE1       10.1110  -10.8030  -15.9430 C.ar   76  HIS76       0.1986
     44  NE2        9.8470  -10.0500  -14.8870 N.ar   76  HIS76      -0.2212
     45  N          5.8130  -12.0860  -13.8650 N.am   77  GLY77      -0.1957
     46  CA         4.7730  -11.1520  -13.4100 C.3    77  GLY77       0.1869
     47  C          3.4190  -11.8230  -13.1630 C.2    77  GLY77       0.2309
     48  O          2.7890  -11.6080  -12.1340 O.2    77  GLY77      -0.2863
     49  N          9.6460  -17.9630  -19.7680 N.3   100  ASP100     -0.1239
     50  CA         9.0960  -16.8180  -19.0190 C.3   100  ASP100      0.1674
     51  C          7.9270  -16.1820  -19.7770 C.2   100  ASP100      0.2266
     52  O          7.7900  -14.9720  -19.8070 O.2   100  ASP100     -0.2867
     53  CB        10.1840  -15.7740  -18.7140 C.3   100  ASP100      0.1410
     54  CG         9.7990  -14.8310  -17.5980 C.2   100  ASP100      0.3668
     55  OD1        8.8210  -15.1110  -16.8800 O.co2 100  ASP100     -0.2456
     56  OD2       10.4970  -13.8000  -17.4410 O.co2 100  ASP100     -0.2456
     57  N         18.8910  -11.0680  -27.5910 N.3   142  ARG142     -0.1245
     58  CA        19.5860   -9.9410  -26.9610 C.3   142  ARG142      0.1563
     59  C         19.6570   -8.7390  -27.8750 C.2   142  ARG142      0.2260
     60  O         19.7920   -8.8810  -29.0900 O.2   142  ARG142     -0.2867
     61  CB        21.0110  -10.3490  -26.5560 C.3   142  ARG142      0.0307
     62  CG        21.0960  -11.3800  -25.4280 C.3   142  ARG142      0.0489
     63  CD        20.6090  -10.8320  -24.0940 C.3   142  ARG142      0.2205
     64  NE        20.6790  -11.8510  -23.0490 N.pl3 142  ARG142     -0.0865
     65  CZ        21.7530  -12.0940  -22.2980 C.cat 142  ARG142      0.5346
     66  NH1       22.8590  -11.3660  -22.4390 N.pl3 142  ARG142      0.1354
     67  NH2       21.7150  -13.0580  -21.3870 N.pl3 142  ARG142      0.1354
     68  N         18.5100    0.6630  -14.1370 N.3   151  ILE151     -0.1245
     69  CA        17.4680   -0.3690  -14.1700 C.3   151  ILE151      0.1561
     70  C         16.1090    0.1580  -13.6740 C.2   151  ILE151      0.2260
     71  O         15.0680   -0.3540  -14.0770 O.2   151  ILE151     -0.2867
     72  CB        17.8560   -1.6590  -13.4030 C.3   151  ILE151      0.0252
     73  CG1       18.2550   -1.3580  -11.9600 C.3   151  ILE151      0.0019
     74  CG2       18.9630   -2.4010  -14.1360 C.3   151  ILE151      0.0019
     75  CD1       18.4040   -2.6110  -11.1220 C.3   151  ILE151      0.0001
     76  N         13.7050    0.8070  -16.4820 N.3   154  LEU154     -0.1231
     77  CA        13.1580   -0.3430  -17.2130 C.3   154  LEU154      0.1693
     78  C         12.1960   -1.1710  -16.3840 C.2   154  LEU154      0.2592
     79  O         11.4280   -1.9610  -16.9300 O.2   154  LEU154     -0.2718
     80  CB        14.2910   -1.2430  -17.7080 C.3   154  LEU154      0.0284
     81  CG        15.2540   -0.6010  -18.7020 C.3   154  LEU154      0.0019
     82  CD1       16.4160   -1.5640  -19.0200 C.3   154  LEU154      0.0001
     83  CD2       14.5370   -0.1870  -19.9620 C.3   154  LEU154      0.0001
     84  N         12.3120   -1.0670  -15.0680 N.am  155  LYS155     -0.1966
     85  CA        11.5170   -1.8650  -14.1530 C.3   155  LYS155      0.1728
     86  C         10.0370   -1.6330  -14.3830 C.2   155  LYS155      0.2617
     87  O          9.5820   -0.4870  -14.4860 O.2   155  LYS155     -0.2715
     88  CB        11.9010   -1.5220  -12.7110 C.3   155  LYS155      0.0311
     89  CG        11.1660   -2.2950  -11.6300 C.3   155  LYS155      0.0038
     90  CD        11.6340   -1.8360  -10.2370 C.3   155  LYS155      0.0206
     91  CE        10.9120   -2.5600   -9.1070 C.3   155  LYS155      0.1093
     92  NZ         9.4790   -2.1820   -9.0330 N.3   155  LYS155     -0.1314
     93  N          9.2920   -2.7280  -14.5040 N.am  156  GLY156     -0.1940
     94  CA         7.8650   -2.6510  -14.7800 C.3   156  GLY156      0.2014
     95  C          7.5320   -2.6580  -16.2570 C.2   156  GLY156      0.2640
     96  O          6.3740   -2.4930  -16.6250 O.2   156  GLY156     -0.2714
     97  N          8.5340   -2.8670  -17.1200 N.am  157  SER157     -0.1935
     98  CA         8.2780   -2.9330  -18.5580 C.3   157  SER157      0.2055
     99  C          8.3710   -4.3250  -19.1570 C.2   157  SER157      0.2642
    100  O          8.1270   -4.4890  -20.3470 O.2   157  SER157     -0.2714
    101  CB         9.1960   -1.9760  -19.3120 C.3   157  SER157      0.2130
    102  OG         8.8880   -0.6350  -18.9750 O.3   157  SER157     -0.2179
    103  N          8.6770   -5.3360  -18.3480 N.am  158  ALA158     -0.1977
    104  CA         8.6450   -6.7030  -18.8590 C.3   158  ALA158      0.1597
    105  C          7.2480   -6.9930  -19.3890 C.2   158  ALA158      0.2287
    106  O          6.2490   -6.5560  -18.8060 O.2   158  ALA158     -0.2864
    107  CB         9.0310   -7.7010  -17.7880 C.3   158  ALA158      0.0319
    108  N          9.9370   -8.0690  -24.1250 N.3   173  PHE173     -0.1227
    109  CA        10.9750   -7.7420  -23.1520 C.3   173  PHE173      0.1736
    110  C         10.8500   -8.6460  -21.9170 C.2   173  PHE173      0.2595
    111  O          9.7860   -8.7510  -21.3240 O.2   173  PHE173     -0.2718
    112  CB        10.8350   -6.2600  -22.7880 C.3   173  PHE173      0.0547
    113  CG        11.8520   -5.7350  -21.8010 C.ar  173  PHE173     -0.0202
    114  CD1       13.1530   -6.1900  -21.7560 C.ar  173  PHE173     -0.0042
    115  CD2       11.4890   -4.6900  -20.9580 C.ar  173  PHE173     -0.0042
    116  CE1       14.0540   -5.6460  -20.8460 C.ar  173  PHE173     -0.0003
    117  CE2       12.3890   -4.1350  -20.0740 C.ar  173  PHE173     -0.0003
    118  CZ        13.6660   -4.6180  -20.0100 C.ar  173  PHE173     -0.0000
    119  N         11.9570   -9.2900  -21.5450 N.am  174  ARG174     -0.1966
    120  CA        11.9790  -10.2810  -20.4760 C.3   174  ARG174      0.1729
    121  C         12.8720   -9.8650  -19.2980 C.2   174  ARG174      0.2616
    122  O         12.4600   -9.9640  -18.1350 O.2   174  ARG174     -0.2715
    123  CB        12.4290  -11.6320  -21.0530 C.3   174  ARG174      0.0348
    124  CG        12.5830  -12.7580  -20.0500 C.3   174  ARG174      0.0492
    125  CD        12.6370  -14.1080  -20.7460 C.3   174  ARG174      0.2205
    126  NE        13.7660  -14.1920  -21.6830 N.pl3 174  ARG174     -0.0865
    127  CZ        13.9410  -15.1680  -22.5700 C.cat 174  ARG174      0.5346
    128  NH1       15.0160  -15.1530  -23.3450 N.pl3 174  ARG174      0.1354
    129  NH2       13.0420  -16.1460  -22.6990 N.pl3 174  ARG174      0.1354
    130  N         14.0980   -9.4300  -19.5830 N.am  175  ALA175     -0.1963
    131  CA        15.0660   -9.1630  -18.5220 C.3   175  ALA175      0.1728
    132  C         16.0500   -8.0940  -18.9530 C.2   175  ALA175      0.2616
    133  O         16.3320   -7.9500  -20.1390 O.2   175  ALA175     -0.2715
    134  CB        15.8030  -10.4520  -18.1500 C.3   175  ALA175      0.0334
    135  N         16.6130   -7.3780  -17.9760 N.am  176  ALA176     -0.1963
    136  CA        17.6470   -6.3670  -18.2330 C.3   176  ALA176      0.1728
    137  C         19.0190   -6.9600  -17.9580 C.2   176  ALA176      0.2616
    138  O         19.2150   -7.6280  -16.9400 O.2   176  ALA176     -0.2715
    139  CB        17.4190   -5.1360  -17.3460 C.3   176  ALA176      0.0334
    140  N         19.9740   -6.6740  -18.8430 N.am  177  VAL177     -0.1963
    141  CA        21.3600   -7.0870  -18.6610 C.3   177  VAL177      0.1727
    142  C         22.0720   -5.9200  -18.0140 C.2   177  VAL177      0.2616
    143  O         22.2670   -4.8780  -18.6350 O.2   177  VAL177     -0.2715
    144  CB        22.0360   -7.4260  -20.0170 C.3   177  VAL177      0.0290
    145  CG1       23.4440   -7.9850  -19.7930 C.3   177  VAL177      0.0023
    146  CG2       21.1810   -8.4110  -20.8200 C.3   177  VAL177      0.0023
    147  N         22.3550   -6.0450  -16.7240 N.am  178  SER178     -0.1950
    148  CA        22.8000   -4.8980  -15.9570 C.3   178  SER178      0.1924
    149  C         24.0200   -5.1800  -15.1020 C.2   178  SER178      0.2314
    150  O         24.2160   -6.2940  -14.6200 O.2   178  SER178     -0.2863
    151  CB        21.6710   -4.3970  -15.0780 C.3   178  SER178      0.2116
    152  OG        21.2180   -5.4120  -14.2120 O.3   178  SER178     -0.2180
    153  N         17.2970   -8.5520  -22.6950 N.3   187  ASP187     -0.1239
    154  CA        17.0100   -9.9020  -23.0760 C.3   187  ASP187      0.1674
    155  C         15.5020   -9.9910  -23.3490 C.2   187  ASP187      0.2266
    156  O         14.6840   -9.4170  -22.6090 O.2   187  ASP187     -0.2867
    157  CB        17.4470  -10.8310  -21.9320 C.3   187  ASP187      0.1410
    158  CG        16.8800  -12.2020  -22.0420 C.2   187  ASP187      0.3668
    159  OD1       17.5690  -13.0900  -22.5690 O.co2 187  ASP187     -0.2456
    160  OD2       15.7680  -12.4010  -21.5130 O.co2 187  ASP187     -0.2456
@<TRIPOS>BOND
     1    60    59    2
     2    59    58    1
     3    57    58    1
     4    58    61    1
     5    61    62    1
     6    62    63    1
     7   108   109    1
     8    63    64    1
     9   155   154    1
    10   155   156    2
    11   128   127    1
    12   109   112    1
    13   109   110    1
    14   154   153    1
    15   154   157    1
    16    64    65    2
    17   112   113    1
    18   129   127    1
    19   127   126    2
    20   159   158   ar
    21    66    65    1
    22    65    67    1
    23   158   157    1
    24   158   160   ar
    25   110   119   am
    26   110   111    2
    27   113   114   ar
    28   113   115   ar
    29   114   116   ar
    30   126   125    1
    31   119   120    1
    32   123   120    1
    33   123   124    1
    34   115   117   ar
    35   116   118   ar
    36   146   144    1
    37   125   124    1
    38   120   121    1
    39   100    99    2
    40   133   132    2
    41   117   118   ar
    42   144   145    1
    43   144   141    1
    44    83    81    1
    45    52    51    2
    46    51    50    1
    47    49    50    1
    48   130   121   am
    49   130   131    1
    50   105   104    1
    51   105   106    2
    52   101   102    1
    53   101    98    1
    54   121   122    2
    55    33    32    1
    56    28    29    1
    57    99    98    1
    58    99   103   am
    59    82    81    1
    60    50    53    1
    61   132   131    1
    62   132   135   am
    63   104   103    1
    64   104   107    1
    65   140   141    1
    66   140   137   am
    67    53    54    1
    68    81    80    1
    69   141   142    1
    70   143   142    2
    71    29    32    1
    72    29    30    1
    73    98    97    1
    74   131   134    1
    75   136   135    1
    76   136   137    1
    77   136   139    1
    78    32    34    1
    79   142   147   am
    80   137   138    2
    81    80    77    1
    82    54    56   ar
    83    54    55   ar
    84    30    31    2
    85    77    76    1
    86    77    78    1
    87    19    20    2
    88    19    18    1
    89    97    95   am
    90    79    78    2
    91   147   148    1
    92    96    95    2
    93    78    84   am
    94    95    94    1
    95    24    26   ar
    96    24    22   ar
    97   148   149    1
    98   148   151    1
    99    43    41   ar
   100    43    44   ar
   101    26    27   ar
   102    18    21    1
   103    18    17    1
   104    21    22    1
   105    41    40   ar
   106    22    23   ar
   107   149   150    2
   108   151   152    1
   109    84    85    1
   110    44    42   ar
   111    35    36    1
   112    94    93    1
   113    17    12   am
   114    27    25   ar
   115    93    86   am
   116    87    86    2
   117    86    85    1
   118    40    42   ar
   119    40    39    1
   120    69    68    1
   121    69    70    1
   122    69    72    1
   123    85    88    1
   124    74    72    1
   125    71    70    2
   126    23    25   ar
   127    45    46    1
   128    45    37   am
   129    39    36    1
   130    36    37    1
   131    16    14    1
   132    12    13    2
   133    12    11    1
   134    46    47    1
   135    72    73    1
   136    47    48    2
   137    37    38    2
   138    88    89    1
   139    11    14    1
   140    11    10    1
   141    14    15    1
   142    73    75    1
   143    89    90    1
   144    10     3   am
   145     4     3    2
   146     3     2    1
   147    90    91    1
   148     9     7   am
   149     5     2    1
   150     5     6    1
   151     7     8    2
   152     7     6    1
   153     2     1    1
   154    91    92    1
