@<TRIPOS>MOLECULE
tmp/3m5mB00.pdb
 171 165 0 0 0
SMALL
GASTEIGER

@<TRIPOS>ATOM
      1  N         23.6660    9.9750  -21.5520 N.3    61  PHE61      -0.1241
      2  CA        23.9890   10.1800  -20.1440 C.3    61  PHE61       0.1605
      3  C         23.8390   11.6580  -19.8280 C.2    61  PHE61       0.2264
      4  O         23.1840   12.3930  -20.5870 O.2    61  PHE61      -0.2867
      5  CB        25.3910    9.5930  -19.7960 C.3    61  PHE61       0.0534
      6  CG        26.5110   10.0400  -20.7120 C.ar   61  PHE61      -0.0203
      7  CD1       26.6350    9.5130  -21.9930 C.ar   61  PHE61      -0.0042
      8  CD2       27.4510   10.9850  -20.2870 C.ar   61  PHE61      -0.0042
      9  CE1       27.6690    9.9150  -22.8430 C.ar   61  PHE61      -0.0003
     10  CE2       28.4840   11.4080  -21.1360 C.ar   61  PHE61      -0.0003
     11  CZ        28.5890   10.8760  -22.4180 C.ar   61  PHE61      -0.0000
     12  N         33.7630    7.4790  -18.5860 N.3    75  HIS75      -0.1241
     13  CA        33.2140    6.2330  -19.1330 C.3    75  HIS75       0.1621
     14  C         32.0620    6.4590  -20.1230 C.2    75  HIS75       0.2264
     15  O         31.6640    5.5330  -20.8230 O.2    75  HIS75      -0.2867
     16  CB        32.8220    5.2210  -18.0330 C.3    75  HIS75       0.0745
     17  CG        31.5150    5.5000  -17.3390 C.ar   75  HIS75       0.0817
     18  ND1       31.4530    5.9930  -16.0510 N.ar   75  HIS75      -0.2268
     19  CD2       30.2300    5.2620  -17.7110 C.ar   75  HIS75       0.1154
     20  CE1       30.1850    6.0970  -15.6820 C.ar   75  HIS75       0.1986
     21  NE2       29.4230    5.6500  -16.6660 N.ar   75  HIS75      -0.2212
     22  N         37.3480    9.1770  -13.3260 N.3    99  ASP99      -0.1239
     23  CA        36.2100    8.9940  -14.2270 C.3    99  ASP99       0.1674
     24  C         35.5120   10.3270  -14.5170 C.2    99  ASP99       0.2266
     25  O         34.2770   10.4300  -14.4540 O.2    99  ASP99      -0.2867
     26  CB        35.2200    7.9690  -13.6540 C.3    99  ASP99       0.1410
     27  CG        34.2030    7.4860  -14.6890 C.2    99  ASP99       0.3668
     28  OD1       34.4180    7.7430  -15.8840 O.co2  99  ASP99      -0.2456
     29  OD2       33.1850    6.8640  -14.2930 O.co2  99  ASP99      -0.2456
     30  N         30.4560    8.5920   -1.4060 N.3   141  ARG141     -0.1245
     31  CA        29.4870    7.4920   -1.3520 C.3   141  ARG141      0.1563
     32  C         28.1790    7.8770   -0.6660 C.2   141  ARG141      0.2260
     33  O         28.1550    8.7160    0.2350 O.2   141  ARG141     -0.2867
     34  CB        30.0920    6.2910   -0.6240 C.3   141  ARG141      0.0307
     35  CG        31.2790    5.6380   -1.3290 C.3   141  ARG141      0.0489
     36  CD        30.8400    4.8570   -2.5740 C.3   141  ARG141      0.2205
     37  NE        31.9820    4.2830   -3.2870 N.pl3 141  ARG141     -0.0865
     38  CZ        32.6640    3.2100   -2.8790 C.cat 141  ARG141      0.5346
     39  NH1       32.3470    2.5850   -1.7550 N.pl3 141  ARG141      0.1354
     40  NH2       33.6880    2.7750   -3.6010 N.pl3 141  ARG141      0.1354
     41  N         17.9570   -0.4060  -10.3680 N.3   150  ILE150     -0.1245
     42  CA        19.1350    0.3030  -10.8690 C.3   150  ILE150      0.1561
     43  C         18.9100    0.8490  -12.3030 C.2   150  ILE150      0.2260
     44  O         19.5460    1.8420  -12.7050 O.2   150  ILE150     -0.2867
     45  CB        20.4510   -0.4940  -10.6840 C.3   150  ILE150      0.0252
     46  CG1       21.6520    0.4340  -10.9460 C.3   150  ILE150      0.0019
     47  CG2       20.4510   -1.7140  -11.5430 C.3   150  ILE150      0.0019
     48  CD1       22.8810    0.1150  -10.1850 C.3   150  ILE150      0.0001
     49  N         18.5570    4.4800  -12.6510 N.3   153  LEU153     -0.1231
     50  CA        19.7700    5.2710  -12.5160 C.3   153  LEU153      0.1693
     51  C         20.6240    5.1960  -13.7840 C.2   153  LEU153      0.2592
     52  O         21.5430    5.9750  -13.9670 O.2   153  LEU153     -0.2718
     53  CB        20.5750    4.7940  -11.2950 C.3   153  LEU153      0.0284
     54  CG        19.9770    5.1050   -9.9140 C.3   153  LEU153      0.0019
     55  CD1       18.6770    4.3840   -9.6430 C.3   153  LEU153      0.0001
     56  CD2       21.0040    4.8000   -8.7940 C.3   153  LEU153      0.0001
     57  N         20.3160    4.2620  -14.6660 N.am  154  LYS154     -0.1966
     58  CA        21.1340    4.0490  -15.8410 C.3   154  LYS154      0.1728
     59  C         21.0020    5.2240  -16.8120 C.2   154  LYS154      0.2617
     60  O         19.8990    5.7330  -17.0950 O.2   154  LYS154     -0.2715
     61  CB        20.8240    2.6860  -16.4830 C.3   154  LYS154      0.0311
     62  CG        21.2450    1.4750  -15.6110 C.3   154  LYS154      0.0038
     63  CD        22.7570    1.2910  -15.5860 C.3   154  LYS154      0.0206
     64  CE        23.2060    0.2090  -14.6230 C.3   154  LYS154      0.1093
     65  NZ        22.6760   -1.1210  -15.0040 N.3   154  LYS154     -0.1314
     66  N         22.1560    5.7000  -17.2640 N.am  155  GLY155     -0.1940
     67  CA        22.2200    6.9210  -18.0390 C.3   155  GLY155      0.2014
     68  C         22.2340    8.1920  -17.2120 C.2   155  GLY155      0.2640
     69  O         22.1960    9.2740  -17.7830 O.2   155  GLY155     -0.2714
     70  N         22.3100    8.0850  -15.8830 N.am  156  SER156     -0.1935
     71  CA        22.3800    9.2630  -15.0080 C.3   156  SER156      0.2055
     72  C         23.8090    9.6990  -14.6550 C.2   156  SER156      0.2642
     73  O         23.9920   10.7690  -14.0550 O.2   156  SER156     -0.2714
     74  CB        21.6050    9.0220  -13.7090 C.3   156  SER156      0.2130
     75  OG        20.2130    8.9130  -13.9780 O.3   156  SER156     -0.2179
     76  N         24.8030    8.8920  -15.0240 N.am  157  ALA157     -0.1977
     77  CA        26.2120    9.2310  -14.7700 C.3   157  ALA157      0.1597
     78  C         26.4980   10.5820  -15.4120 C.2   157  ALA157      0.2287
     79  O         26.0540   10.8440  -16.5320 O.2   157  ALA157     -0.2864
     80  CB        27.1560    8.1500  -15.3010 C.3   157  ALA157      0.0319
     81  N         27.4320   12.1560  -10.0190 N.3   172  PHE172     -0.1227
     82  CA        27.1300   10.7320   -9.9590 C.3   172  PHE172      0.1736
     83  C         27.9050    9.9590  -11.0360 C.2   172  PHE172      0.2595
     84  O         27.9670   10.3730  -12.1760 O.2   172  PHE172     -0.2718
     85  CB        25.6270   10.5330  -10.1710 C.3   172  PHE172      0.0547
     86  CG        25.2150    9.1130  -10.2290 C.ar  172  PHE172     -0.0202
     87  CD1       25.4060    8.2930   -9.1490 C.ar  172  PHE172     -0.0042
     88  CD2       24.6160    8.6100  -11.3600 C.ar  172  PHE172     -0.0042
     89  CE1       25.0130    6.9710   -9.1940 C.ar  172  PHE172     -0.0003
     90  CE2       24.2220    7.2980  -11.4160 C.ar  172  PHE172     -0.0003
     91  CZ        24.4220    6.4780  -10.3220 C.ar  172  PHE172     -0.0000
     92  N         28.4850    8.8290  -10.6800 N.am  173  ARG173     -0.1966
     93  CA        29.1400    8.0100  -11.6990 C.3   173  ARG173      0.1729
     94  C         28.7520    6.5410  -11.7380 C.2   173  ARG173      0.2616
     95  O         28.7960    5.9380  -12.8080 O.2   173  ARG173     -0.2715
     96  CB        30.6500    8.1600  -11.6140 C.3   173  ARG173      0.0348
     97  CG        31.2890    7.6340  -10.3460 C.3   173  ARG173      0.0492
     98  CD        32.7830    7.4990  -10.5250 C.3   173  ARG173      0.2205
     99  NE        33.0790    6.4670  -11.4930 N.pl3 173  ARG173     -0.0865
    100  CZ        33.0780    5.1600  -11.2380 C.cat 173  ARG173      0.5346
    101  NH1       32.8290    4.6910  -10.0150 N.pl3 173  ARG173      0.1354
    102  NH2       33.3530    4.3180  -12.2120 N.pl3 173  ARG173      0.1354
    103  N         28.3820    5.9500  -10.6070 N.am  174  ALA174     -0.1963
    104  CA        28.1040    4.5140  -10.5760 C.3   174  ALA174      0.1728
    105  C         27.2580    4.1410   -9.3660 C.2   174  ALA174      0.2616
    106  O         27.2000    4.8710   -8.3890 O.2   174  ALA174     -0.2715
    107  CB        29.3920    3.7440  -10.5700 C.3   174  ALA174      0.0334
    108  N         26.5840    3.0080   -9.4410 N.am  175  ALA175     -0.1963
    109  CA        25.7780    2.5810   -8.3280 C.3   175  ALA175      0.1728
    110  C         25.8840    1.0890   -8.1140 C.2   175  ALA175      0.2616
    111  O         26.1940    0.3420   -9.0420 O.2   175  ALA175     -0.2715
    112  CB        24.3220    3.0010   -8.5390 C.3   175  ALA175      0.0334
    113  N         25.6630    0.6930   -6.8680 N.am  176  VAL176     -0.1963
    114  CA        25.6910   -0.7010   -6.4530 C.3   176  VAL176      0.1727
    115  C         24.3200   -1.3110   -6.5790 C.2   176  VAL176      0.2617
    116  O         23.3650   -0.7670   -6.0380 O.2   176  VAL176     -0.2715
    117  CB        26.1040   -0.7990   -4.9730 C.3   176  VAL176      0.0290
    118  CG1       26.1350   -2.2690   -4.5410 C.3   176  VAL176      0.0023
    119  CG2       27.4470   -0.1400   -4.7680 C.3   176  VAL176      0.0023
    120  N         24.2340   -2.4790   -7.2330 N.am  177  SER177     -0.1936
    121  CA        22.9840   -3.1820   -7.4600 C.3   177  SER177      0.2055
    122  C         23.0360   -4.5190   -6.7310 C.2   177  SER177      0.2644
    123  O         24.0650   -5.1670   -6.7250 O.2   177  SER177     -0.2714
    124  CB        22.7990   -3.4420   -8.9720 C.3   177  SER177      0.2130
    125  OG        21.6480   -4.2250   -9.2280 O.3   177  SER177     -0.2179
    126  N         21.9450   -4.8970   -6.0750 N.am  178  THR178     -0.1936
    127  CA        21.7460   -6.2790   -5.6480 C.3   178  THR178      0.2028
    128  C         20.4980   -6.8010   -6.3590 C.2   178  THR178      0.2642
    129  O         19.3860   -6.3050   -6.1340 O.2   178  THR178     -0.2714
    130  CB        21.6220   -6.4030   -4.1100 C.3   178  THR178      0.1808
    131  OG1       21.4070   -7.7720   -3.7580 O.3   178  THR178     -0.2208
    132  CG2       20.4620   -5.5490   -3.5800 C.3   178  THR178      0.0379
    133  N         20.7010   -7.7770   -7.2480 N.am  179  ARG179     -0.1963
    134  CA        19.6210   -8.3780   -8.0260 C.3   179  ARG179      0.1729
    135  C         18.7110   -7.3200   -8.6770 C.2   179  ARG179      0.2616
    136  O         17.4790   -7.4020   -8.6450 O.2   179  ARG179     -0.2715
    137  CB        18.8690   -9.3760   -7.1410 C.3   179  ARG179      0.0348
    138  CG        19.8380  -10.4230   -6.5740 C.3   179  ARG179      0.0492
    139  CD        19.2610  -11.2930   -5.4710 C.3   179  ARG179      0.2205
    140  NE        20.3080  -11.9700   -4.6840 N.pl3 179  ARG179     -0.0865
    141  CZ        21.0730  -12.9660   -5.1340 C.cat 179  ARG179      0.5346
    142  NH1       20.9410  -13.4170   -6.3800 N.pl3 179  ARG179      0.1354
    143  NH2       21.9860  -13.5200   -4.3370 N.pl3 179  ARG179      0.1354
    144  N         19.3540   -6.3090   -9.2630 N.am  180  GLY180     -0.1955
    145  CA        18.6580   -5.2580   -9.9960 C.3   180  GLY180      0.1869
    146  C         18.2200   -4.0640   -9.1660 C.2   180  GLY180      0.2309
    147  O         17.7730   -3.0570   -9.7230 O.2   180  GLY180     -0.2863
    148  N         21.2880    0.0850   -4.3280 N.3   183  LYS183     -0.1245
    149  CA        21.5020    0.2010   -2.8820 C.3   183  LYS183      0.1561
    150  C         22.3510    1.3920   -2.4820 C.2   183  LYS183      0.2260
    151  O         22.1760    1.9250   -1.4010 O.2   183  LYS183     -0.2867
    152  CB        22.2490   -1.0220   -2.3450 C.3   183  LYS183      0.0271
    153  CG        21.5620   -2.3340   -2.4960 C.3   183  LYS183      0.0035
    154  CD        22.5470   -3.4780   -2.2600 C.3   183  LYS183      0.0206
    155  CE        23.2630   -3.3880   -0.9250 C.3   183  LYS183      0.1093
    156  NZ        24.6560   -2.8780   -1.0520 N.3   183  LYS183     -0.1314
    157  N         25.3710    4.6030   -4.0840 N.3   185  VAL185     -0.1231
    158  CA        25.8940    5.3600   -5.2070 C.3   185  VAL185      0.1692
    159  C         27.3300    5.8080   -4.9210 C.2   185  VAL185      0.2592
    160  O         27.7230    6.0150   -3.7590 O.2   185  VAL185     -0.2718
    161  CB        25.0360    6.5970   -5.5090 C.3   185  VAL185      0.0266
    162  CG1       23.6040    6.1930   -5.9670 C.3   185  VAL185      0.0020
    163  CG2       24.9620    7.5270   -4.2970 C.3   185  VAL185      0.0020
    164  N         28.0980    5.9390   -5.9990 N.am  186  ASP186     -0.1974
    165  CA        29.4420    6.4620   -5.9670 C.3   186  ASP186      0.1709
    166  C         29.4490    7.7290   -6.8040 C.2   186  ASP186      0.2293
    167  O         28.8440    7.7680   -7.8900 O.2   186  ASP186     -0.2864
    168  CB        30.4070    5.4490   -6.5670 C.3   186  ASP186      0.1436
    169  CG        31.8290    5.9280   -6.5220 C.2   186  ASP186      0.3671
    170  OD1       32.4140    5.9460   -5.4150 O.co2 186  ASP186     -0.2456
    171  OD2       32.3710    6.3070   -7.5830 O.co2 186  ASP186     -0.2456
@<TRIPOS>BOND
     1     9    11   ar
     2     9     7   ar
     3    11    10   ar
     4     7     6   ar
     5     1     2    1
     6    10     8   ar
     7    15    14    2
     8     6     8   ar
     9     6     5    1
    10     4     3    2
    11     2     3    1
    12     2     5    1
    13    14    13    1
    14    13    12    1
    15    13    16    1
    16    67    66    1
    17    67    68    1
    18    16    17    1
    19    69    68    2
    20    19    17   ar
    21    19    21   ar
    22    17    18   ar
    23    66    59   am
    24    68    70   am
    25    60    59    2
    26    59    58    1
    27    21    20   ar
    28    79    78    2
    29    61    58    1
    30    61    62    1
    31    18    20   ar
    32    28    27   ar
    33    70    71    1
    34    58    57    1
    35    62    63    1
    36    63    64    1
    37    78    77    1
    38    80    77    1
    39    76    77    1
    40    76    72   am
    41    71    72    1
    42    71    74    1
    43    65    64    1
    44    27    29   ar
    45    27    26    1
    46    57    51   am
    47    72    73    2
    48    24    25    2
    49    24    23    1
    50    23    26    1
    51    23    22    1
    52    75    74    1
    53    52    51    2
    54    51    50    1
    55    95    94    2
    56    44    43    2
    57    49    50    1
    58    50    53    1
    59    43    42    1
    60   102   100    1
    61    84    83    2
    62    94    93    1
    63    94   103   am
    64    93    96    1
    65    93    92    1
    66    96    97    1
    67    47    45    1
    68    99   100    2
    69    99    98    1
    70    90    88   ar
    71    90    91   ar
    72    88    86   ar
    73    53    54    1
    74   100   101    1
    75    83    92   am
    76    83    82    1
    77    46    45    1
    78    46    48    1
    79    42    45    1
    80    42    41    1
    81   103   104    1
    82   104   107    1
    83   104   105    1
    84    98    97    1
    85    91    89   ar
    86    86    85    1
    87    86    87   ar
    88    85    82    1
    89    81    82    1
    90   145   144    1
    91   145   146    1
    92    54    55    1
    93    54    56    1
    94   147   146    2
    95   108   105   am
    96   108   109    1
    97   105   106    2
    98   144   135   am
    99   125   124    1
   100    89    87   ar
   101   111   110    2
   102   124   121    1
   103   135   136    2
   104   135   134    1
   105   112   109    1
   106   109   110    1
   107   110   113   am
   108   134   133    1
   109   134   137    1
   110   167   166    2
   111   171   169   ar
   112   121   120    1
   113   121   122    1
   114   133   128   am
   115   120   115   am
   116   137   138    1
   117   113   114    1
   118   166   165    1
   119   122   123    2
   120   122   126   am
   121   115   114    1
   122   115   116    2
   123   138   139    1
   124   168   169    1
   125   168   165    1
   126   169   170   ar
   127   114   117    1
   128   142   141    1
   129   128   129    2
   130   128   127    1
   131   126   127    1
   132   164   165    1
   133   164   159   am
   134   162   161    1
   135   127   130    1
   136   161   158    1
   137   161   163    1
   138   139   140    1
   139   158   159    1
   140   158   157    1
   141   141   140    2
   142   141   143    1
   143   117   119    1
   144   117   118    1
   145   159   160    2
   146   148   149    1
   147   130   131    1
   148   130   132    1
   149    40    38    1
   150    37    38    2
   151    37    36    1
   152   149   150    1
   153   149   152    1
   154    38    39    1
   155    36    35    1
   156   153   152    1
   157   153   154    1
   158   150   151    2
   159   154   155    1
   160    30    31    1
   161    31    32    1
   162    31    34    1
   163    35    34    1
   164   156   155    1
   165    32    33    2
