@<TRIPOS>MOLECULE
tmp/3m5nB00.pdb
 146 140 0 0 0
SMALL
GASTEIGER

@<TRIPOS>ATOM
      1  N         31.0040  -24.4510   51.3690 N.3    61  GLN61      -0.1245
      2  CA        30.8040  -24.0260   49.9970 C.3    61  GLN61       0.1566
      3  C         29.4450  -23.3570   49.8160 C.2    61  GLN61       0.2260
      4  O         28.4730  -23.7280   50.4830 O.2    61  GLN61      -0.2867
      5  CB        30.8380  -25.2460   49.0610 C.3    61  GLN61       0.0367
      6  CG        32.1430  -26.0380   48.9970 C.3    61  GLN61       0.0905
      7  CD        32.1740  -26.9840   47.7960 C.2    61  GLN61       0.2608
      8  OE1       31.6670  -26.6710   46.7100 O.2    61  GLN61      -0.2717
      9  NE2       32.7600  -28.1530   47.9910 N.am   61  GLN61      -0.0878
     10  N         26.9750  -22.4160   46.3800 N.3    63  PHE63      -0.1241
     11  CA        26.7820  -22.7100   44.9570 C.3    63  PHE63       0.1605
     12  C         25.3070  -22.4880   44.6400 C.2    63  PHE63       0.2264
     13  O         24.6210  -21.8470   45.4280 O.2    63  PHE63      -0.2867
     14  CB        27.2670  -24.1060   44.5710 C.3    63  PHE63       0.0534
     15  CG        26.8640  -25.2090   45.5050 C.ar   63  PHE63      -0.0203
     16  CD1       27.5060  -25.3670   46.7220 C.ar   63  PHE63      -0.0042
     17  CD2       25.7990  -26.0630   45.1780 C.ar   63  PHE63      -0.0042
     18  CE1       27.1200  -26.3840   47.5780 C.ar   63  PHE63      -0.0003
     19  CE2       25.4500  -27.1170   45.9930 C.ar   63  PHE63      -0.0003
     20  CZ        26.0720  -27.2380   47.2320 C.ar   63  PHE63      -0.0000
     21  N         29.4170  -32.5500   43.3290 N.3    77  HIS77      -0.1241
     22  CA        30.6560  -32.0050   43.8960 C.3    77  HIS77       0.1621
     23  C         30.3800  -30.8980   44.9330 C.2    77  HIS77       0.2264
     24  O         31.2150  -30.6380   45.7640 O.2    77  HIS77      -0.2867
     25  CB        31.6520  -31.5980   42.8010 C.3    77  HIS77       0.0745
     26  CG        31.3830  -30.2770   42.1410 C.ar   77  HIS77       0.0817
     27  ND1       30.9680  -30.1910   40.8340 N.ar   77  HIS77      -0.2268
     28  CD2       31.6610  -29.0080   42.5290 C.ar   77  HIS77       0.1154
     29  CE1       30.9040  -28.9180   40.4750 C.ar   77  HIS77       0.1986
     30  NE2       31.2970  -28.1780   41.4960 N.ar   77  HIS77      -0.2212
     31  N         28.8620  -29.1550   26.2950 N.3   143  ARG143     -0.1245
     32  CA        29.9270  -28.1530   26.2840 C.3   143  ARG143      0.1563
     33  C         29.4550  -26.8750   25.6220 C.2   143  ARG143      0.2260
     34  O         28.6190  -26.9100   24.7220 O.2   143  ARG143     -0.2867
     35  CB        31.1450  -28.6670   25.5180 C.3   143  ARG143      0.0307
     36  CG        32.1540  -29.4300   26.3490 C.3   143  ARG143      0.0489
     37  CD        33.4480  -28.6380   26.5860 C.3   143  ARG143      0.2205
     38  NE        34.3400  -29.3220   27.5290 N.pl3 143  ARG143     -0.0865
     39  CZ        35.6700  -29.2300   27.5540 C.cat 143  ARG143      0.5346
     40  NH1       36.3400  -28.4960   26.6670 N.pl3 143  ARG143      0.1354
     41  NH2       36.3480  -29.9060   28.4750 N.pl3 143  ARG143      0.1354
     42  N         38.5350  -17.6870   35.7340 N.3   152  ILE152     -0.1245
     43  CA        37.8170  -18.8610   36.2110 C.3   152  ILE152      0.1561
     44  C         37.3630  -18.6490   37.6520 C.2   152  ILE152      0.2260
     45  O         36.2880  -19.0770   38.0350 O.2   152  ILE152     -0.2867
     46  CB        38.5860  -20.1940   35.9620 C.3   152  ILE152      0.0252
     47  CG1       37.6940  -21.3910   36.3100 C.3   152  ILE152      0.0019
     48  CG2       39.8920  -20.2410   36.6950 C.3   152  ILE152      0.0019
     49  CD1       38.1620  -22.7070   35.7070 C.3   152  ILE152      0.0001
     50  N         33.6810  -17.6940   38.0840 N.3   155  LEU155     -0.1231
     51  CA        32.6080  -18.6650   37.9900 C.3   155  LEU155      0.1693
     52  C         32.5150  -19.5740   39.2110 C.2   155  LEU155      0.2592
     53  O         31.5570  -20.3300   39.3040 O.2   155  LEU155     -0.2718
     54  CB        32.7600  -19.5140   36.7360 C.3   155  LEU155      0.0284
     55  CG        32.8650  -18.6880   35.4590 C.3   155  LEU155      0.0019
     56  CD1       33.3790  -19.5570   34.3130 C.3   155  LEU155      0.0001
     57  CD2       31.5220  -18.0610   35.1360 C.3   155  LEU155      0.0001
     58  N         33.4910  -19.5050   40.1090 N.am  156  LYS156     -0.1966
     59  CA        33.4620  -20.2080   41.3860 C.3   156  LYS156      0.1728
     60  C         32.1600  -19.9070   42.1380 C.2   156  LYS156      0.2616
     61  O         31.7390  -18.7630   42.2830 O.2   156  LYS156     -0.2715
     62  CB        34.6490  -19.8090   42.2770 C.3   156  LYS156      0.0311
     63  CG        35.9760  -20.2080   41.6850 C.3   156  LYS156      0.0038
     64  CD        36.1590  -21.7250   41.6950 C.3   156  LYS156      0.0206
     65  CE        37.6280  -21.9970   41.3890 C.3   156  LYS156      0.1093
     66  NZ        37.8100  -22.5430   40.0150 N.3   156  LYS156     -0.1314
     67  N         31.5250  -20.9570   42.6380 N.am  157  GLY157     -0.1955
     68  CA        30.2220  -20.7890   43.2810 C.3   157  GLY157      0.1869
     69  C         29.0120  -20.7080   42.3720 C.2   157  GLY157      0.2309
     70  O         27.9010  -20.5610   42.8800 O.2   157  GLY157     -0.2863
     71  N         28.3970  -23.3200   40.0660 N.3   159  ALA159     -0.1245
     72  CA        28.0100  -24.6980   39.7140 C.3   159  ALA159      0.1562
     73  C         26.5840  -24.9520   40.2230 C.2   159  ALA159      0.2260
     74  O         26.2790  -24.5660   41.3170 O.2   159  ALA159     -0.2867
     75  CB        28.9100  -25.7290   40.2830 C.3   159  ALA159      0.0290
     76  N         25.0420  -25.9060   34.8620 N.3   174  PHE174     -0.1227
     77  CA        26.4940  -25.6420   34.8070 C.3   174  PHE174      0.1736
     78  C         27.2500  -26.4980   35.8160 C.2   174  PHE174      0.2598
     79  O         26.9030  -26.5060   37.0040 O.2   174  PHE174     -0.2717
     80  CB        26.7040  -24.1380   35.0440 C.3   174  PHE174      0.0547
     81  CG        28.1530  -23.7090   35.1640 C.ar  174  PHE174     -0.0202
     82  CD1       29.0820  -24.0180   34.1960 C.ar  174  PHE174     -0.0042
     83  CD2       28.5690  -22.9780   36.2580 C.ar  174  PHE174     -0.0042
     84  CE1       30.4130  -23.6170   34.3340 C.ar  174  PHE174     -0.0003
     85  CE2       29.8730  -22.5450   36.3890 C.ar  174  PHE174     -0.0003
     86  CZ        30.8010  -22.9030   35.4250 C.ar  174  PHE174     -0.0000
     87  N         28.3350  -27.1300   35.3740 N.am  175  ARG175     -0.1920
     88  CA        29.1000  -28.0890   36.1720 C.3   175  ARG175      0.1945
     89  C         30.5410  -27.6110   36.4120 C.2   175  ARG175      0.2659
     90  O         31.0520  -27.6410   37.5420 O.2   175  ARG175     -0.2711
     91  CB        29.0940  -29.4670   35.4470 C.2   175  ARG175      0.0033
     92  CG        29.6000  -30.6620   36.2290 C.2   175  ARG175      0.0179
     93  CD        29.8630  -31.9360   35.3890 C.3   175  ARG175      0.2464
     94  NE        31.2130  -31.8980   34.8140 N.pl3 175  ARG175     -0.0815
     95  CZ        32.3290  -32.0030   35.5310 C.cat 175  ARG175      0.5349
     96  NH1       32.3000  -32.2350   36.8480 N.pl3 175  ARG175      0.1354
     97  NH2       33.4910  -31.9120   34.9180 N.pl3 175  ARG175      0.1354
     98  N         31.2190  -27.2260   35.3420 N.am  176  ALA176     -0.1961
     99  CA        32.6440  -26.9080   35.4410 C.3   176  ALA176      0.1728
    100  C         33.0700  -26.0350   34.2670 C.2   176  ALA176      0.2616
    101  O         32.3550  -25.9320   33.2770 O.2   176  ALA176     -0.2715
    102  CB        33.4410  -28.1900   35.4450 C.3   176  ALA176      0.0334
    103  N         34.2110  -25.3760   34.4120 N.am  177  ALA177     -0.1963
    104  CA        34.7500  -24.5490   33.3380 C.3   177  ALA177      0.1728
    105  C         36.1500  -25.0090   32.9510 C.2   177  ALA177      0.2616
    106  O         36.8790  -25.4950   33.8070 O.2   177  ALA177     -0.2715
    107  CB        34.7460  -23.1100   33.7640 C.3   177  ALA177      0.0334
    108  N         36.5100  -24.9000   31.6730 N.am  178  VAL178     -0.1963
    109  CA        37.8650  -25.1920   31.2550 C.3   178  VAL178      0.1727
    110  C         38.6110  -23.8720   31.2180 C.2   178  VAL178      0.2617
    111  O         38.0790  -22.8560   30.7610 O.2   178  VAL178     -0.2715
    112  CB        37.9710  -25.8510   29.8460 C.3   178  VAL178      0.0290
    113  CG1       39.3840  -25.7300   29.3280 C.3   178  VAL178      0.0023
    114  CG2       37.5740  -27.3290   29.9060 C.3   178  VAL178      0.0023
    115  N         39.8540  -23.8870   31.6850 N.am  179  SER179     -0.1936
    116  CA        40.6260  -22.6640   31.6450 C.3   179  SER179      0.2055
    117  C         42.0260  -22.9320   31.1760 C.2   179  SER179      0.2644
    118  O         42.5230  -24.0550   31.2820 O.2   179  SER179     -0.2714
    119  CB        40.6320  -21.9900   33.0140 C.3   179  SER179      0.2130
    120  OG        41.4000  -22.7410   33.9270 O.3   179  SER179     -0.2179
    121  N         42.6070  -21.8850   30.6120 N.am  180  THR180     -0.1936
    122  CA        44.0070  -21.8570   30.2920 C.3   180  THR180      0.2028
    123  C         44.5580  -20.6070   30.9570 C.2   180  THR180      0.2642
    124  O         44.0300  -19.5220   30.7390 O.2   180  THR180     -0.2714
    125  CB        44.2240  -21.7320   28.7820 C.3   180  THR180      0.1808
    126  OG1       43.3690  -22.6350   28.0730 O.3   180  THR180     -0.2208
    127  CG2       45.6580  -22.0600   28.4640 C.3   180  THR180      0.0379
    128  N         45.5980  -20.7620   31.7670 N.am  181  ARG181     -0.1977
    129  CA        46.2700  -19.6400   32.4240 C.3   181  ARG181      0.1597
    130  C         45.2930  -18.8610   33.3110 C.2   181  ARG181      0.2287
    131  O         45.3760  -17.6360   33.3930 O.2   181  ARG181     -0.2864
    132  CB        46.9250  -18.6940   31.4000 C.3   181  ARG181      0.0334
    133  CG        47.8480  -19.3630   30.3720 C.3   181  ARG181      0.0492
    134  CD        48.6120  -18.3220   29.5630 C.3   181  ARG181      0.2205
    135  NE        49.4080  -18.8740   28.4700 N.pl3 181  ARG181     -0.0865
    136  CZ        48.9140  -19.2660   27.2950 C.cat 181  ARG181      0.5346
    137  NH1       47.6120  -19.1870   27.0340 N.pl3 181  ARG181      0.1354
    138  NH2       49.7360  -19.7410   26.3700 N.pl3 181  ARG181      0.1354
    139  N         31.4030  -26.6720   30.9030 N.3   188  ASP188     -0.1239
    140  CA        30.7720  -27.9790   30.8590 C.3   188  ASP188      0.1674
    141  C         29.4660  -27.9100   31.6130 C.2   188  ASP188      0.2266
    142  O         29.3950  -27.2960   32.6780 O.2   188  ASP188     -0.2867
    143  CB        31.6790  -29.0370   31.4870 C.3   188  ASP188      0.1410
    144  CG        32.9070  -29.2920   30.6520 C.2   188  ASP188      0.3668
    145  OD1       34.0460  -29.3300   31.1760 O.co2 188  ASP188     -0.2456
    146  OD2       32.7050  -29.4140   29.4270 O.co2 188  ASP188     -0.2456
@<TRIPOS>BOND
     1    34    33    2
     2    35    32    1
     3    35    36    1
     4    33    32    1
     5    32    31    1
     6    36    37    1
     7   138   136    1
     8    37    38    1
     9    40    39    1
    10   137   136    1
    11   136   135    2
    12    38    39    2
    13    39    41    1
    14   126   125    1
    15   127   125    1
    16   135   134    1
    17   125   122    1
    18   113   112    1
    19   146   144   ar
    20   134   133    1
    21   112   114    1
    22   112   109    1
    23   122   121    1
    24   122   123    1
    25   133   132    1
    26   121   117   am
    27   144   145   ar
    28   144   143    1
    29   124   123    2
    30   111   110    2
    31   140   139    1
    32   140   143    1
    33   140   141    1
    34   123   128   am
    35   117   118    2
    36   117   116    1
    37   110   109    1
    38   110   115   am
    39   109   108    1
    40   132   129    1
    41   141   142    2
    42   116   115    1
    43   116   119    1
    44   108   105   am
    45   128   129    1
    46   129   130    1
    47   105   104    1
    48   105   106    2
    49   119   120    1
    50   101   100    2
    51   130   131    2
    52   104   107    1
    53   104   103    1
    54    82    84   ar
    55    82    81   ar
    56   100   103   am
    57   100    99    1
    58    56    55    1
    59    84    86   ar
    60    77    76    1
    61    77    80    1
    62    77    78    1
    63    94    93    1
    64    94    95    2
    65    97    95    1
    66    80    81    1
    67    57    55    1
    68    81    83   ar
    69    98    99    1
    70    98    89   am
    71    87    78   am
    72    87    88    1
    73    93    92    1
    74    86    85   ar
    75    99   102    1
    76    91    88    1
    77    91    92    2
    78    55    54    1
    79    95    96    1
    80    49    47    1
    81    42    43    1
    82    78    79    2
    83    46    43    1
    84    46    47    1
    85    46    48    1
    86    88    89    1
    87    43    44    1
    88    83    85   ar
    89    89    90    2
    90    54    51    1
    91    44    45    2
    92    51    50    1
    93    51    52    1
    94    52    53    2
    95    52    58   am
    96    72    71    1
    97    72    73    1
    98    72    75    1
    99    66    65    1
   100    58    59    1
   101    73    74    2
   102    29    27   ar
   103    29    30   ar
   104    27    26   ar
   105    59    60    1
   106    59    62    1
   107    65    64    1
   108    30    28   ar
   109    63    64    1
   110    63    62    1
   111    60    61    2
   112    60    67   am
   113    26    28   ar
   114    26    25    1
   115    69    70    2
   116    69    68    1
   117    67    68    1
   118    25    22    1
   119    21    22    1
   120    22    23    1
   121    14    11    1
   122    14    15    1
   123    12    11    1
   124    12    13    2
   125    23    24    2
   126    11    10    1
   127    17    15   ar
   128    17    19   ar
   129    15    16   ar
   130    19    20   ar
   131     8     7    2
   132    16    18   ar
   133    20    18   ar
   134     7     9   am
   135     7     6    1
   136     6     5    1
   137     5     2    1
   138     3     2    1
   139     3     4    2
   140     2     1    1
