@<TRIPOS>MOLECULE
tmp/3m5oB00.pdb
 180 172 0 0 0
SMALL
GASTEIGER

@<TRIPOS>ATOM
      1  N          1.5440   22.5640    7.4280 N.3    60  GLN60      -0.1245
      2  CA         0.2430   22.0900    6.9720 C.3    60  GLN60       0.1566
      3  C          0.3670   21.2980    5.6680 C.2    60  GLN60       0.2260
      4  O          1.2670   21.5360    4.8660 O.2    60  GLN60      -0.2867
      5  CB        -0.7140   23.2650    6.7310 C.3    60  GLN60       0.0367
      6  CG        -1.0650   24.1560    7.9280 C.3    60  GLN60       0.0905
      7  CD        -2.1580   25.1680    7.5690 C.2    60  GLN60       0.2608
      8  OE1       -3.2130   24.8000    7.0340 O.2    60  GLN60      -0.2717
      9  NE2       -1.9090   26.4420    7.8580 N.am   60  GLN60      -0.0878
     10  N         -2.4370   20.1440    2.5090 N.3    62  PHE62      -0.1241
     11  CA        -3.7610   20.4550    2.0300 C.3    62  PHE62       0.1605
     12  C         -3.7830   20.2140    0.5140 C.2    62  PHE62       0.2264
     13  O         -2.8970   19.5270    0.0130 O.2    62  PHE62      -0.2867
     14  CB        -4.2070   21.8700    2.4800 C.3    62  PHE62       0.0534
     15  CG        -3.2240   22.9590    2.1860 C.ar   62  PHE62      -0.0203
     16  CD1       -2.1390   23.1830    3.0370 C.ar   62  PHE62      -0.0042
     17  CD2       -3.4010   23.8020    1.1160 C.ar   62  PHE62      -0.0042
     18  CE1       -1.2430   24.1910    2.7750 C.ar   62  PHE62      -0.0003
     19  CE2       -2.4950   24.8150    0.8430 C.ar   62  PHE62      -0.0003
     20  CZ        -1.4090   25.0030    1.6690 C.ar   62  PHE62      -0.0000
     21  N         -5.8430   30.2250    4.0620 N.3    76  HIS76      -0.1241
     22  CA        -5.5330   29.7480    5.4130 C.3    76  HIS76       0.1621
     23  C         -4.4910   28.6390    5.4270 C.2    76  HIS76       0.2264
     24  O         -3.9230   28.3380    6.4670 O.2    76  HIS76      -0.2867
     25  CB        -6.8030   29.3540    6.1930 C.3    76  HIS76       0.0745
     26  CG        -7.3910   28.0220    5.8380 C.ar   76  HIS76       0.0817
     27  ND1       -8.5600   27.8990    5.1150 N.ar   76  HIS76      -0.2268
     28  CD2       -7.0130   26.7640    6.1680 C.ar   76  HIS76       0.1154
     29  CE1       -8.8730   26.6150    5.0140 C.ar   76  HIS76       0.1986
     30  NE2       -7.9450   25.9050    5.6350 N.ar   76  HIS76      -0.2212
     31  N        -10.7150   33.7550    1.3790 N.3   100  ASP100     -0.1239
     32  CA        -9.8640   32.6090    1.7410 C.3   100  ASP100      0.1674
     33  C         -9.3080   31.9310    0.4870 C.2   100  ASP100      0.2266
     34  O         -9.2970   30.7060    0.3920 O.2   100  ASP100     -0.2867
     35  CB       -10.6250   31.5960    2.6200 C.3   100  ASP100      0.1410
     36  CG        -9.7000   30.6280    3.3550 C.2   100  ASP100      0.3668
     37  OD1       -8.4610   30.8360    3.3490 O.co2 100  ASP100     -0.2456
     38  OD2      -10.2240   29.6600    3.9530 O.co2 100  ASP100     -0.2456
     39  N        -26.9630   23.6620   -0.7400 N.3   138  ARG138     -0.1245
     40  CA       -28.0520   24.3850   -0.0900 C.3   138  ARG138      0.1563
     41  C        -27.9260   25.9060   -0.1430 C.2   138  ARG138      0.2260
     42  O        -28.7220   26.6150    0.4700 O.2   138  ARG138     -0.2867
     43  CB       -28.2410   23.8970    1.3390 C.3   138  ARG138      0.0307
     44  CG       -27.2480   24.3990    2.3380 C.3   138  ARG138      0.0489
     45  CD       -27.3160   23.5370    3.5960 C.3   138  ARG138      0.2205
     46  NE       -26.5880   24.1120    4.7230 N.pl3 138  ARG138     -0.0865
     47  CZ       -26.3520   23.4890    5.8760 C.cat 138  ARG138      0.5346
     48  NH1      -26.7820   22.2420    6.0820 N.pl3 138  ARG138      0.1354
     49  NH2      -25.6730   24.1170    6.8340 N.pl3 138  ARG138      0.1354
     50  N        -22.5960   26.7490    0.5580 N.3   142  ARG142     -0.1245
     51  CA       -22.8040   25.7230    1.5760 C.3   142  ARG142      0.1563
     52  C        -23.4360   24.4820    0.9740 C.2   142  ARG142      0.2260
     53  O        -24.2540   24.5690    0.0570 O.2   142  ARG142     -0.2867
     54  CB       -23.6930   26.2550    2.7030 C.3   142  ARG142      0.0307
     55  CG       -23.0260   27.3010    3.5840 C.3   142  ARG142      0.0489
     56  CD       -22.0360   26.6780    4.5250 C.3   142  ARG142      0.2205
     57  NE       -21.3550   27.6830    5.3380 N.pl3 142  ARG142     -0.0865
     58  CZ       -21.7360   28.1040    6.5420 C.cat 142  ARG142      0.5346
     59  NH1      -22.8180   27.6100    7.1400 N.pl3 142  ARG142      0.1354
     60  NH2      -21.0100   29.0360    7.1590 N.pl3 142  ARG142      0.1354
     61  N        -15.1470   15.9050   11.8780 N.3   151  ILE151     -0.1245
     62  CA       -14.4070   16.9650   11.1780 C.3   151  ILE151      0.1561
     63  C        -12.9560   16.5590   10.8820 C.2   151  ILE151      0.2260
     64  O        -12.3660   17.0260    9.9100 O.2   151  ILE151     -0.2867
     65  CB       -14.4460   18.3180   11.9130 C.3   151  ILE151      0.0252
     66  CG1      -13.9290   18.2050   13.3480 C.3   151  ILE151      0.0019
     67  CG2      -15.8700   18.8830   11.9050 C.3   151  ILE151      0.0019
     68  CD1      -13.6420   19.5430   13.9750 C.3   151  ILE151      0.0001
     69  N        -12.0950   15.5050    7.2850 N.3   154  LEU154     -0.1231
     70  CA       -11.9860   16.5600    6.2690 C.3   154  LEU154      0.1693
     71  C        -10.7440   17.4320    6.4180 C.2   154  LEU154      0.2592
     72  O        -10.3950   18.1690    5.5030 O.2   154  LEU154     -0.2718
     73  CB       -13.2240   17.4430    6.3290 C.3   154  LEU154      0.0284
     74  CG       -14.4940   16.6900    5.9780 C.3   154  LEU154      0.0019
     75  CD1      -15.7240   17.5640    6.2230 C.3   154  LEU154      0.0001
     76  CD2      -14.4420   16.2230    4.5400 C.3   154  LEU154      0.0001
     77  N        -10.0720   17.3310    7.5560 N.am  155  LYS155     -0.1966
     78  CA        -8.8180   18.0420    7.7780 C.3   155  LYS155      0.1728
     79  C         -7.7930   17.6550    6.7250 C.2   155  LYS155      0.2617
     80  O         -7.5470   16.4730    6.4900 O.2   155  LYS155     -0.2715
     81  CB        -8.2670   17.7000    9.1560 C.3   155  LYS155      0.0311
     82  CG        -6.9030   18.2410    9.5180 C.3   155  LYS155      0.0038
     83  CD        -6.2450   17.3500   10.5720 C.3   155  LYS155      0.0206
     84  CE        -5.3630   18.1340   11.5180 C.3   155  LYS155      0.1093
     85  NZ        -4.4320   19.0590   10.8220 N.3   155  LYS155     -0.1314
     86  N         -7.1730   18.6630    6.1190 N.am  156  GLY156     -0.1940
     87  CA        -6.1830   18.4520    5.0680 C.3   156  GLY156      0.2014
     88  C         -6.7620   18.3630    3.6710 C.2   156  GLY156      0.2640
     89  O         -6.0220   18.1560    2.7270 O.2   156  GLY156     -0.2714
     90  N         -8.0750   18.5490    3.5360 N.am  157  SER157     -0.1935
     91  CA        -8.7190   18.5280    2.2130 C.3   157  SER157      0.2055
     92  C         -9.1320   19.9130    1.7240 C.2   157  SER157      0.2642
     93  O         -9.6020   20.0570    0.6080 O.2   157  SER157     -0.2714
     94  CB        -9.9340   17.6010    2.2240 C.3   157  SER157      0.2130
     95  OG        -9.5160   16.2480    2.3140 O.3   157  SER157     -0.2179
     96  N         -8.9290   20.9540    2.5390 N.am  158  ALA158     -0.1977
     97  CA        -9.2040   22.3000    2.0370 C.3   158  ALA158      0.1597
     98  C         -8.3620   22.5740    0.8010 C.2   158  ALA158      0.2287
     99  O         -7.2030   22.1500    0.7070 O.2   158  ALA158     -0.2864
    100  CB        -8.9450   23.3640    3.0950 C.3   158  ALA158      0.0319
    101  N        -13.4100   23.5400   -1.6940 N.3   173  PHE173     -0.1227
    102  CA       -13.7240   23.2390   -0.3000 C.3   173  PHE173      0.1736
    103  C        -12.8200   24.0580    0.6100 C.2   173  PHE173      0.2595
    104  O        -11.6220   24.1240    0.3690 O.2   173  PHE173     -0.2718
    105  CB       -13.5120   21.7440   -0.0360 C.3   173  PHE173      0.0547
    106  CG       -13.6570   21.3430    1.3990 C.ar  173  PHE173     -0.0202
    107  CD1      -14.8010   21.6350    2.0970 C.ar  173  PHE173     -0.0042
    108  CD2      -12.6500   20.6430    2.0440 C.ar  173  PHE173     -0.0042
    109  CE1      -14.9310   21.2750    3.4320 C.ar  173  PHE173     -0.0003
    110  CE2      -12.7830   20.2680    3.3830 C.ar  173  PHE173     -0.0003
    111  CZ       -13.9300   20.5710    4.0590 C.ar  173  PHE173     -0.0000
    112  N        -13.3840   24.6890    1.6380 N.am  174  ARG174     -0.1966
    113  CA       -12.5440   25.4140    2.5760 C.3   174  ARG174      0.1729
    114  C        -12.7380   25.0960    4.0460 C.2   174  ARG174      0.2616
    115  O        -11.7800   25.1580    4.7820 O.2   174  ARG174     -0.2715
    116  CB       -12.6450   26.9130    2.3440 C.3   174  ARG174      0.0348
    117  CG       -13.9770   27.5270    2.5920 C.3   174  ARG174      0.0492
    118  CD       -13.8370   29.0560    2.6350 C.3   174  ARG174      0.2205
    119  NE       -13.0920   29.5060    3.7990 N.pl3 174  ARG174     -0.0865
    120  CZ       -13.6130   29.7150    5.0030 C.cat 174  ARG174      0.5346
    121  NH1      -14.9050   29.5150    5.2270 N.pl3 174  ARG174      0.1354
    122  NH2      -12.8280   30.1140    5.9960 N.pl3 174  ARG174      0.1354
    123  N        -13.9500   24.7470    4.4620 N.am  175  ALA175     -0.1963
    124  CA       -14.2100   24.5690    5.9050 C.3   175  ALA175      0.1728
    125  C        -15.4130   23.6730    6.1570 C.2   175  ALA175      0.2616
    126  O        -16.3040   23.5630    5.3300 O.2   175  ALA175     -0.2715
    127  CB       -14.4080   25.9130    6.5630 C.3   175  ALA175      0.0334
    128  N        -15.4140   23.0290    7.3180 N.am  176  ALA176     -0.1963
    129  CA       -16.4970   22.1490    7.7120 C.3   176  ALA176      0.1728
    130  C        -17.3600   22.8870    8.7260 C.2   176  ALA176      0.2616
    131  O        -16.8550   23.6130    9.5810 O.2   176  ALA176     -0.2715
    132  CB       -15.9470   20.8580    8.3070 C.3   176  ALA176      0.0334
    133  N        -18.6620   22.6580    8.6340 N.am  177  VAL177     -0.1963
    134  CA       -19.6280   23.2090    9.5600 C.3   177  VAL177      0.1727
    135  C        -19.8250   22.1340   10.6280 C.2   177  VAL177      0.2617
    136  O        -20.3930   21.0870   10.3360 O.2   177  VAL177     -0.2715
    137  CB       -20.9400   23.5260    8.8310 C.3   177  VAL177      0.0290
    138  CG1      -21.9360   24.1260    9.7850 C.3   177  VAL177      0.0023
    139  CG2      -20.6760   24.4750    7.6560 C.3   177  VAL177      0.0023
    140  N        -19.3030   22.3870   11.8330 N.am  178  SER178     -0.1936
    141  CA       -19.1400   21.3610   12.8770 C.3   178  SER178      0.2055
    142  C        -20.0960   21.5930   14.0290 C.2   178  SER178      0.2644
    143  O        -20.2210   22.7160   14.5010 O.2   178  SER178     -0.2714
    144  CB       -17.7170   21.4100   13.4500 C.3   178  SER178      0.2130
    145  OG       -17.6240   20.7130   14.7000 O.3   178  SER178     -0.2179
    146  N        -20.7610   20.5330   14.4770 N.am  179  THR179     -0.1936
    147  CA       -21.4720   20.5570   15.7560 C.3   179  THR179      0.2028
    148  C        -20.9150   19.4230   16.5890 C.2   179  THR179      0.2642
    149  O        -21.0600   18.2500   16.2220 O.2   179  THR179     -0.2714
    150  CB       -22.9840   20.3980   15.5980 C.3   179  THR179      0.1808
    151  OG1      -23.4930   21.4640   14.7870 O.3   179  THR179     -0.2208
    152  CG2      -23.6710   20.4580   16.9570 C.3   179  THR179      0.0379
    153  N        -20.2680   19.7940   17.6940 N.am  180  ARG180     -0.1977
    154  CA       -19.6230   18.8570   18.6140 C.3   180  ARG180      0.1597
    155  C        -18.6480   17.9230   17.9030 C.2   180  ARG180      0.2287
    156  O        -18.5680   16.7420   18.2230 O.2   180  ARG180     -0.2864
    157  CB       -20.6700   18.0550   19.3880 C.3   180  ARG180      0.0334
    158  CG       -21.6490   18.9150   20.1590 C.3   180  ARG180      0.0492
    159  CD       -22.5190   18.0660   21.0530 C.3   180  ARG180      0.2205
    160  NE       -23.7370   18.7530   21.4770 N.pl3 180  ARG180     -0.0865
    161  CZ       -23.8870   19.4320   22.6170 C.cat 180  ARG180      0.5346
    162  NH1      -22.8870   19.5480   23.4880 N.pl3 180  ARG180      0.1354
    163  NH2      -25.0540   20.0100   22.8910 N.pl3 180  ARG180      0.1354
    164  N        -21.7370   18.1040    9.4760 N.3   184  LYS184     -0.1245
    165  CA       -22.9920   17.8400    8.7840 C.3   184  LYS184      0.1561
    166  C        -23.0950   18.6220    7.4790 C.2   184  LYS184      0.2260
    167  O        -23.9930   18.3670    6.6890 O.2   184  LYS184     -0.2867
    168  CB       -24.1890   18.1840    9.6660 C.3   184  LYS184      0.0271
    169  CG       -24.0460   19.4210   10.5720 C.3   184  LYS184      0.0035
    170  CD       -23.7590   20.7140    9.8270 C.3   184  LYS184      0.0206
    171  CE       -24.6110   21.8810   10.3190 C.3   184  LYS184      0.1093
    172  NZ       -25.7820   22.0870    9.4180 N.3   184  LYS184     -0.1314
    173  N        -18.4880   24.2880    3.8300 N.3   187  ASP187     -0.1239
    174  CA       -18.4110   25.6340    3.2900 C.3   187  ASP187      0.1674
    175  C        -17.4040   25.6100    2.1450 C.2   187  ASP187      0.2266
    176  O        -16.3160   25.0360    2.2710 O.2   187  ASP187     -0.2867
    177  CB       -17.9860   26.5970    4.3920 C.3   187  ASP187      0.1410
    178  CG       -18.0140   28.0500    3.9480 C.2   187  ASP187      0.3668
    179  OD1      -16.9610   28.5620    3.5140 O.co2 187  ASP187     -0.2456
    180  OD2      -19.0860   28.6790    4.0250 O.co2 187  ASP187     -0.2456
@<TRIPOS>BOND
     1   101   102    1
     2    39    40    1
     3   102   105    1
     4   102   103    1
     5    41    40    1
     6    41    42    2
     7    40    43    1
     8   105   106    1
     9    13    12    2
    10    53    52    2
    11   104   103    2
    12    34    33    2
    13    33    32    1
    14    12    11    1
    15    50    51    1
    16    93    92    2
    17   103   112   am
    18    99    98    2
    19    98    97    1
    20    19    17   ar
    21    19    20   ar
    22    52    51    1
    23    17    15   ar
    24    43    44    1
    25    31    32    1
    26   106   108   ar
    27   106   107   ar
    28    51    54    1
    29   112   113    1
    30    20    18   ar
    31    92    91    1
    32    92    96   am
    33    32    35    1
    34    11    14    1
    35    11    10    1
    36    97    96    1
    37    97   100    1
    38   108   110   ar
    39   107   109   ar
    40   175   176    2
    41   175   174    1
    42    15    14    1
    43    15    16   ar
    44    91    94    1
    45    91    90    1
    46    94    95    1
    47    44    45    1
    48   116   113    1
    49   116   117    1
    50   113   114    1
    51   117   118    1
    52    35    36    1
    53   118   119    1
    54    54    55    1
    55    89    88    2
    56    18    16   ar
    57   174   173    1
    58   174   177    1
    59    37    36   ar
    60    36    38   ar
    61   110   111   ar
    62   109   111   ar
    63   179   178   ar
    64    90    88   am
    65    55    56    1
    66    45    46    1
    67    88    87    1
    68   119   120    2
    69   178   180   ar
    70   178   177    1
    71   114   123   am
    72   114   115    2
    73    21    22    1
    74   123   124    1
    75    56    57    1
    76    76    74    1
    77    46    47    2
    78     4     3    2
    79   120   121    1
    80   120   122    1
    81    29    27   ar
    82    29    30   ar
    83    87    86    1
    84    27    26   ar
    85   126   125    2
    86    57    58    2
    87    22    23    1
    88    22    25    1
    89    23    24    2
    90    72    71    2
    91    30    28   ar
    92     3     2    1
    93    26    28   ar
    94    26    25    1
    95    47    48    1
    96    47    49    1
    97   124   125    1
    98   124   127    1
    99    74    75    1
   100    74    73    1
   101    86    79   am
   102   125   128   am
   103    70    73    1
   104    70    71    1
   105    70    69    1
   106    71    77   am
   107    80    79    2
   108    58    59    1
   109    58    60    1
   110   167   166    2
   111    79    78    1
   112     5     2    1
   113     5     6    1
   114     2     1    1
   115     8     7    2
   116   128   129    1
   117   166   165    1
   118    77    78    1
   119     7     9   am
   120     7     6    1
   121   139   137    1
   122   129   132    1
   123   129   130    1
   124    78    81    1
   125   133   130   am
   126   133   134    1
   127   130   131    2
   128   165   164    1
   129   165   168    1
   130   137   134    1
   131   137   138    1
   132    81    82    1
   133   172   171    1
   134    82    83    1
   135   134   135    1
   136   168   169    1
   137   170   171    1
   138   170   169    1
   139    64    63    2
   140   136   135    2
   141    83    84    1
   142   135   140   am
   143    85    84    1
   144    63    62    1
   145    62    61    1
   146    62    65    1
   147   140   141    1
   148    67    65    1
   149    65    66    1
   150   141   144    1
   151   141   142    1
   152    66    68    1
   153   144   145    1
   154   142   146   am
   155   142   143    2
   156   146   147    1
   157   151   150    1
   158   150   147    1
   159   150   152    1
   160   147   148    1
   161   149   148    2
   162   148   153   am
   163   153   154    1
   164   155   156    2
   165   155   154    1
   166   154   157    1
   167   157   158    1
   168   158   159    1
   169   159   160    1
   170   160   161    2
   171   161   163    1
   172   161   162    1
