@<TRIPOS>MOLECULE
tmp/3m5pA00.pdb
 120 110 0 0 0
SMALL
GASTEIGER

@<TRIPOS>ATOM
      1  N         39.3580   52.3410   14.2510 N.3   145  ILE145     -0.1231
      2  CA        39.1350   53.6970   13.6580 C.3   145  ILE145      0.1692
      3  C         40.4620   54.2890   13.2230 C.2   145  ILE145      0.2593
      4  O         41.5250   53.9710   13.7760 O.2   145  ILE145     -0.2718
      5  CB        38.3500   54.5930   14.6200 C.3   145  ILE145      0.0266
      6  CG1       37.6670   55.7950   13.9370 C.3   145  ILE145      0.0019
      7  CG2       39.1890   54.9870   15.8150 C.3   145  ILE145      0.0020
      8  CD1       36.5630   56.4430   14.8260 C.3   145  ILE145      0.0001
      9  N         40.4190   55.1200   12.1950 N.am  146  GLY146     -0.1942
     10  CA        41.6410   55.7770   11.7240 C.3   146  GLY146      0.2014
     11  C         42.6040   54.7600   11.1560 C.2   146  GLY146      0.2639
     12  O         42.2850   54.0060   10.2370 O.2   146  GLY146     -0.2714
     13  N         43.7950   54.7330   11.7220 N.am  147  GLY147     -0.1939
     14  CA        44.8270   53.8110   11.2770 C.3   147  GLY147      0.2014
     15  C         44.4500   52.3480   11.4050 C.2   147  GLY147      0.2639
     16  O         44.9890   51.5030   10.7100 O.2   147  GLY147     -0.2714
     17  N         43.5110   52.0570   12.3000 N.am  148  SER148     -0.1949
     18  CA        43.0390   50.7010   12.5210 C.3   148  SER148      0.1924
     19  C         41.8030   50.3320   11.6880 C.2   148  SER148      0.2314
     20  O         41.2030   49.2620   11.9090 O.2   148  SER148     -0.2863
     21  CB        42.8190   50.5340   14.0160 C.3   148  SER148      0.2116
     22  OG        44.0860   50.4910   14.7120 O.3   148  SER148     -0.2180
     23  N         40.7650   46.0900   16.6850 N.3   196  ALA196     -0.1231
     24  CA        42.0320   46.6200   16.1570 C.3   196  ALA196      0.1694
     25  C         42.2910   47.9670   16.7790 C.2   196  ALA196      0.2593
     26  O         41.5910   48.9240   16.4980 O.2   196  ALA196     -0.2718
     27  CB        41.9340   46.7440   14.6340 C.3   196  ALA196      0.0304
     28  N         43.2580   48.0590   17.6620 N.am  197  SER197     -0.1938
     29  CA        43.5910   49.3510   18.3080 C.3   197  SER197      0.2055
     30  C         45.0320   49.3120   18.8400 C.2   197  SER197      0.2643
     31  O         45.3310   48.5620   19.7560 O.2   197  SER197     -0.2714
     32  CB        42.6260   49.6420   19.4730 C.3   197  SER197      0.2130
     33  OG        42.9580   50.8770   20.1130 O.3   197  SER197     -0.2179
     34  N         45.9190   50.0830   18.2220 N.am  198  LYS198     -0.1963
     35  CA        47.3030   50.1620   18.7130 C.3   198  LYS198      0.1728
     36  C         47.3700   50.4440   20.1980 C.2   198  LYS198      0.2616
     37  O         48.1190   49.7690   20.9170 O.2   198  LYS198     -0.2715
     38  CB        48.0880   51.1990   17.9130 C.3   198  LYS198      0.0311
     39  CG        49.5640   51.1840   18.2540 C.3   198  LYS198      0.0038
     40  CD        50.3330   52.1850   17.5160 C.3   198  LYS198      0.0206
     41  CE        51.8290   52.2460   17.9550 C.3   198  LYS198      0.1093
     42  NZ        52.5930   53.3050   17.1960 N.3   198  LYS198     -0.1314
     43  N         46.6460   51.4820   20.6310 N.am  199  SER199     -0.1950
     44  CA        46.6520   51.9250   22.0360 C.3   199  SER199      0.1924
     45  C         45.7780   51.0680   22.9390 C.2   199  SER199      0.2314
     46  O         45.9870   51.0340   24.1520 O.2   199  SER199     -0.2863
     47  CB        46.1110   53.3490   22.1240 C.3   199  SER199      0.2116
     48  OG        44.7610   53.4290   21.6490 O.3   199  SER199     -0.2180
     49  N         41.1940   53.7710   22.6570 N.3   202  THR202     -0.1218
     50  CA        40.4270   54.7020   21.8590 C.3   202  THR202      0.1862
     51  C         38.9710   54.5680   22.1980 C.2   202  THR202      0.2287
     52  O         38.4190   53.4570   22.1420 O.2   202  THR202     -0.2866
     53  CB        40.6640   54.3890   20.3890 C.3   202  THR202      0.1770
     54  OG1       42.0630   54.5710   20.1310 O.3   202  THR202     -0.2211
     55  CG2       39.8440   55.3160   19.4360 C.3   202  THR202      0.0375
     56  N         36.4910   52.7820   19.6730 N.3   205  THR205     -0.1218
     57  CA        36.7490   51.3740   19.5010 C.3   205  THR205      0.1862
     58  C         36.3650   50.5890   20.7330 C.2   205  THR205      0.2287
     59  O         35.7760   49.4980   20.6590 O.2   205  THR205     -0.2866
     60  CB        38.1990   51.1720   19.1010 C.3   205  THR205      0.1770
     61  OG1       38.4290   51.8910   17.8830 O.3   205  THR205     -0.2211
     62  CG2       38.5130   49.6270   18.8390 C.3   205  THR205      0.0375
     63  N         50.0870   54.2020   13.3370 N.3   258  GLY258     -0.1210
     64  CA        48.7340   53.7570   12.9330 C.3   258  GLY258      0.1956
     65  C         48.4710   53.9770   11.4640 C.2   258  GLY258      0.2611
     66  O         47.9830   53.1150   10.7610 O.2   258  GLY258     -0.2717
     67  N         48.7900   55.1740   10.9950 N.am  259  ARG259     -0.1979
     68  CA        48.6060   55.5360    9.5870 C.3   259  ARG259      0.1597
     69  C         49.5990   54.8980    8.6070 C.2   259  ARG259      0.2287
     70  O         49.5250   55.1280    7.3700 O.2   259  ARG259     -0.2864
     71  CB        48.5850   57.0730    9.4300 C.3   259  ARG259      0.0334
     72  CG        49.8610   57.8130    9.7660 C.3   259  ARG259      0.0492
     73  CD        49.6210   59.2910    9.8710 C.3   259  ARG259      0.2205
     74  NE        50.7550   59.9840   10.4640 N.pl3 259  ARG259     -0.0865
     75  CZ        50.8790   60.3000   11.7550 C.cat 259  ARG259      0.5346
     76  NH1       49.9340   60.0440   12.6310 N.pl3 259  ARG259      0.1354
     77  NH2       51.9830   60.8880   12.1730 N.pl3 259  ARG259      0.1354
     78  N         44.7410   60.7400    5.7590 N.3   338  GLN338     -0.1245
     79  CA        45.3370   60.4550    7.0270 C.3   338  GLN338      0.1566
     80  C         46.8680   60.3960    6.9130 C.2   338  GLN338      0.2260
     81  O         47.5780   61.0810    7.6510 O.2   338  GLN338     -0.2867
     82  CB        44.8270   59.1400    7.6420 C.3   338  GLN338      0.0367
     83  CG        45.4170   59.0080    9.0520 C.3   338  GLN338      0.0905
     84  CD        44.9880   57.8160    9.8560 C.2   338  GLN338      0.2608
     85  OE1       44.2140   57.0120    9.3680 O.2   338  GLN338     -0.2717
     86  NE2       45.5140   57.6870   11.1200 N.am  338  GLN338     -0.0878
     87  N         47.7980   63.8970    8.6890 N.3   341  GLU341     -0.1245
     88  CA        48.0970   63.6270   10.0810 C.3   341  GLU341      0.1567
     89  C         49.6150   63.6130   10.3250 C.2   341  GLU341      0.2260
     90  O         50.0600   63.8600   11.4440 O.2   341  GLU341     -0.2867
     91  CB        47.4540   62.3210   10.5900 C.3   341  GLU341      0.0388
     92  CG        47.2970   62.2670   12.0850 C.3   341  GLU341      0.1160
     93  CD        46.6000   61.0210   12.6100 C.2   341  GLU341      0.3649
     94  OE1       47.0870   59.9040   12.3470 O.co2 341  GLU341     -0.2457
     95  OE2       45.5710   61.1630   13.3150 O.co2 341  GLU341     -0.2457
     96  N         51.4530   62.7930   16.5580 N.3   491  GLN491     -0.1245
     97  CA        50.1360   63.3850   16.3050 C.3   491  GLN491      0.1566
     98  C         49.5450   63.9180   17.5880 C.2   491  GLN491      0.2260
     99  O         48.5010   63.4560   18.0540 O.2   491  GLN491     -0.2867
    100  CB        49.1620   62.4020   15.6370 C.3   491  GLN491      0.0367
    101  CG        48.9510   61.0410   16.2940 C.3   491  GLN491      0.0905
    102  CD        50.1390   60.1240   16.2690 C.2   491  GLN491      0.2608
    103  OE1       50.7990   59.9490   15.2360 O.2   491  GLN491     -0.2717
    104  NE2       50.4290   59.5200   17.4210 N.am  491  GLN491     -0.0878
    105  N         45.6120   65.7590   18.3550 N.3   494  VAL494     -0.1245
    106  CA        44.3360   65.0980   18.6430 C.3   494  VAL494      0.1561
    107  C         44.0520   64.9560   20.1290 C.2   494  VAL494      0.2260
    108  O         42.9150   64.6520   20.5070 O.2   494  VAL494     -0.2867
    109  CB        44.3180   63.6700   18.0080 C.3   494  VAL494      0.0252
    110  CG1       44.6210   63.7660   16.5330 C.3   494  VAL494      0.0019
    111  CG2       45.2680   62.6820   18.7040 C.3   494  VAL494      0.0019
    112  N         40.1120   64.7940   22.7950 N.3   498  LYS498     -0.1245
    113  CA        39.7750   63.6240   23.5830 C.3   498  LYS498      0.1561
    114  C         39.4720   64.0360   24.9960 C.2   498  LYS498      0.2260
    115  O         38.5140   63.5620   25.5810 O.2   498  LYS498     -0.2867
    116  CB        40.9110   62.5920   23.5740 C.3   498  LYS498      0.0271
    117  CG        41.1390   61.9860   22.1870 C.3   498  LYS498      0.0035
    118  CD        42.3520   61.0670   22.1630 C.3   498  LYS498      0.0206
    119  CE        42.5350   60.4000   20.8390 C.3   498  LYS498      0.1093
    120  NZ        43.6920   59.4460   20.9040 N.3   498  LYS498     -0.1314
@<TRIPOS>BOND
     1    78    79    1
     2    80    79    1
     3    80    81    2
     4    79    82    1
     5    70    69    2
     6    82    83    1
     7    69    68    1
     8    87    88    1
     9    83    84    1
    10    85    84    2
    11    71    68    1
    12    71    72    1
    13    68    67    1
    14    72    73    1
    15    84    86   am
    16    73    74    1
    17    88    89    1
    18    88    91    1
    19    12    11    2
    20    89    90    2
    21    74    75    2
    22    91    92    1
    23    16    15    2
    24    66    65    2
    25    67    65   am
    26    11    13   am
    27    11    10    1
    28    14    15    1
    29    14    13    1
    30    15    17   am
    31    65    64    1
    32    19    20    2
    33    19    18    1
    34    10     9    1
    35    75    77    1
    36    75    76    1
    37    92    93    1
    38     9     3   am
    39    17    18    1
    40    94    93   ar
    41    18    21    1
    42    93    95   ar
    43    64    63    1
    44     3     2    1
    45     3     4    2
    46     2     1    1
    47     2     5    1
    48     6     5    1
    49     6     8    1
    50    21    22    1
    51     5     7    1
    52    27    24    1
    53   103   102    2
    54   100   101    1
    55   100    97    1
    56    24    23    1
    57    24    25    1
    58   102   101    1
    59   102   104   am
    60    97    96    1
    61    97    98    1
    62    26    25    2
    63   110   109    1
    64    25    28   am
    65    42    41    1
    66    40    41    1
    67    40    39    1
    68    98    99    2
    69    28    29    1
    70    61    60    1
    71    38    39    1
    72    38    35    1
    73   109   106    1
    74   109   111    1
    75    34    35    1
    76    34    30   am
    77    29    30    1
    78    29    32    1
    79   105   106    1
    80   106   107    1
    81    35    36    1
    82    62    60    1
    83    30    31    2
    84    60    57    1
    85    55    53    1
    86    32    33    1
    87    57    56    1
    88    57    58    1
    89   107   108    2
    90    54    53    1
    91    36    43   am
    92    36    37    2
    93    53    50    1
    94    43    44    1
    95    59    58    2
    96   119   120    1
    97   119   118    1
    98    48    47    1
    99    50    51    1
   100    50    49    1
   101    44    47    1
   102    44    45    1
   103    52    51    2
   104   118   117    1
   105   117   116    1
   106   112   113    1
   107    45    46    2
   108   116   113    1
   109   113   114    1
   110   114   115    2
