@<TRIPOS>MOLECULE
tmp/3m5tA00.pdb
 128 123 0 0 0
SMALL
GASTEIGER

@<TRIPOS>ATOM
      1  N         29.9860    1.4610   10.5760 N.3     2  TRP2       -0.1241
      2  CA        29.4330    0.4540   11.4780 C.3     2  TRP2        0.1605
      3  C         28.4650   -0.4250   10.6990 C.2     2  TRP2        0.2264
      4  O         27.8670    0.0420    9.7230 O.2     2  TRP2       -0.2867
      5  CB        28.7190    1.1010   12.6630 C.3     2  TRP2        0.0550
      6  CG        27.4750    1.8580   12.3150 C.ar    2  TRP2        0.0003
      7  CD1       27.3630    3.1960   12.0500 C.ar    2  TRP2        0.0946
      8  CD2       26.1430    1.3310   12.1990 C.ar    2  TRP2        0.0152
      9  NE1       26.0600    3.5250   11.7710 N.ar    2  TRP2       -0.2442
     10  CE2       25.2890    2.3920   11.8540 C.ar    2  TRP2        0.0810
     11  CE3       25.6390    0.0350   12.3550 C.ar    2  TRP2        0.0012
     12  CZ2       23.9250    2.1780   11.6700 C.ar    2  TRP2        0.0191
     13  CZ3       24.2820   -0.1690   12.1710 C.ar    2  TRP2        0.0001
     14  CH2       23.4490    0.9060   11.8320 C.ar    2  TRP2        0.0015
     15  N         17.9980    2.1100    3.5510 N.3    59  ASN59      -0.1240
     16  CA        19.1570    2.8930    3.9620 C.3    59  ASN59       0.1653
     17  C         20.3410    2.0030    4.2840 C.2    59  ASN59       0.2266
     18  O         21.2880    2.4430    4.9430 O.2    59  ASN59      -0.2867
     19  CB        18.8550    3.7620    5.1810 C.3    59  ASN59       0.1155
     20  CG        18.4130    2.9470    6.3820 C.2    59  ASN59       0.2627
     21  OD1       18.6750    1.7500    6.5170 O.2    59  ASN59      -0.2716
     22  ND2       17.7100    3.6440    7.2730 N.am   59  ASN59      -0.0877
     23  N         20.6270   -0.2120    6.3960 N.3    61  CYS61      -0.1235
     24  CA        20.5190   -0.8070    7.7280 C.3    61  CYS61       0.1677
     25  C         19.1930   -1.5430    7.8680 C.2    61  CYS61       0.2270
     26  O         19.0930   -2.6530    8.3720 O.2    61  CYS61      -0.2867
     27  CB        20.6220    0.2610    8.8170 C.3    61  CYS61       0.0956
     28  SG        22.1200    1.2790    8.7450 S.3    61  CYS61      -0.0801
     29  N         12.9800    2.2650    5.8750 N.3    64  ASN64      -0.1240
     30  CA        12.1160    3.1880    6.5870 C.3    64  ASN64       0.1653
     31  C         10.9330    3.6350    5.7280 C.2    64  ASN64       0.2266
     32  O         11.1220    4.0140    4.5720 O.2    64  ASN64      -0.2867
     33  CB        12.8510    4.4570    7.0160 C.3    64  ASN64       0.1155
     34  CG        14.0140    4.2540    7.9490 C.2    64  ASN64       0.2627
     35  OD1       14.2150    3.1690    8.4860 O.2    64  ASN64      -0.2716
     36  ND2       14.7860    5.3220    8.1320 N.am   64  ASN64      -0.0877
     37  N          8.7230    8.1800   11.3400 N.3    89  GLN89      -0.1245
     38  CA         8.9470    7.0110   10.5110 C.3    89  GLN89       0.1566
     39  C          8.7550    5.7210   11.3070 C.2    89  GLN89       0.2260
     40  O          8.6910    5.7300   12.5270 O.2    89  GLN89      -0.2867
     41  CB        10.3440    6.9540    9.9010 C.3    89  GLN89       0.0367
     42  CG        11.5440    7.2610   10.7360 C.3    89  GLN89       0.0905
     43  CD        12.2990    6.1350   11.3820 C.2    89  GLN89       0.2608
     44  OE1       13.5030    5.9370   11.2290 O.2    89  GLN89      -0.2717
     45  NE2       11.5820    5.3710   12.1850 N.am   89  GLN89      -0.0878
     46  N         10.3390    1.4520   10.9910 N.3    91  HIS91      -0.1241
     47  CA        11.1910    0.4340   10.4150 C.3    91  HIS91       0.1621
     48  C         11.0920   -0.8410   11.2540 C.2    91  HIS91       0.2264
     49  O         10.4630   -0.8380   12.3140 O.2    91  HIS91      -0.2867
     50  CB        12.6670    0.8480   10.3290 C.3    91  HIS91       0.0745
     51  CG        13.2440    1.1220   11.6770 C.ar   91  HIS91       0.0817
     52  ND1       13.2270    2.4080   12.1680 N.ar   91  HIS91      -0.2268
     53  CD2       13.8300    0.3660   12.6300 C.ar   91  HIS91       0.1154
     54  CE1       13.7730    2.4300   13.3710 C.ar   91  HIS91       0.1986
     55  NE2       14.1480    1.1920   13.6740 N.ar   91  HIS91      -0.2212
     56  N          8.7100    5.2990   15.3420 N.3   118  VAL118     -0.1245
     57  CA         9.5460    6.3510   15.8930 C.3   118  VAL118      0.1561
     58  C          8.8160    7.6920   15.8830 C.2   118  VAL118      0.2260
     59  O          8.3070    8.1350   14.8530 O.2   118  VAL118     -0.2867
     60  CB        10.8890    6.4500   15.1470 C.3   118  VAL118      0.0252
     61  CG1       11.7850    7.5110   15.7610 C.3   118  VAL118      0.0019
     62  CG2       11.6150    5.1110   15.1570 C.3   118  VAL118      0.0019
     63  N         13.2310   16.6960   14.8110 N.3   127  PHE127     -0.1227
     64  CA        13.8020   15.4220   15.2570 C.3   127  PHE127      0.1736
     65  C         15.2420   15.5820   15.7170 C.2   127  PHE127      0.2596
     66  O         15.7010   15.0630   16.7400 O.2   127  PHE127     -0.2718
     67  CB        13.6600   14.4120   14.1120 C.3   127  PHE127      0.0547
     68  CG        14.2760   13.0520   14.3630 C.ar  127  PHE127     -0.0202
     69  CD1       13.5120   12.0470   14.9430 C.ar  127  PHE127     -0.0042
     70  CD2       15.5850   12.7790   14.0270 C.ar  127  PHE127     -0.0042
     71  CE1       14.0650   10.8090   15.1880 C.ar  127  PHE127     -0.0003
     72  CE2       16.1510   11.5460   14.2970 C.ar  127  PHE127     -0.0003
     73  CZ        15.3880   10.5540   14.8830 C.ar  127  PHE127     -0.0000
     74  N         16.0330   16.3240   14.9310 N.am  128  GLY128     -0.1957
     75  CA        17.4410   16.4550   15.2410 C.3   128  GLY128      0.1869
     76  C         17.7040   17.0820   16.5900 C.2   128  GLY128      0.2309
     77  O         18.6930   16.7820   17.2660 O.2   128  GLY128     -0.2863
     78  N         16.5520   14.4090   19.4590 N.3   131  VAL131     -0.1245
     79  CA        17.4600   13.3160   19.8330 C.3   131  VAL131      0.1561
     80  C         18.5690   13.7500   20.7870 C.2   131  VAL131      0.2260
     81  O         19.2770   12.9100   21.3610 O.2   131  VAL131     -0.2867
     82  CB        18.0820   12.6450   18.5900 C.3   131  VAL131      0.0252
     83  CG1       17.0110   11.8870   17.8130 C.3   131  VAL131      0.0019
     84  CG2       18.7850   13.6740   17.7120 C.3   131  VAL131      0.0019
     85  N         18.3360    4.8440   21.1650 N.3   194  LEU194     -0.1231
     86  CA        18.3230    4.3070   19.8090 C.3   194  LEU194      0.1693
     87  C         19.1570    3.0270   19.7620 C.2   194  LEU194      0.2593
     88  O         20.1530    2.8690   20.5010 O.2   194  LEU194     -0.2718
     89  CB        18.8820    5.3250   18.8270 C.3   194  LEU194      0.0284
     90  CG        18.2790    6.7230   18.7800 C.3   194  LEU194      0.0019
     91  CD1       19.1510    7.6110   17.9020 C.3   194  LEU194      0.0001
     92  CD2       16.8580    6.6930   18.2550 C.3   194  LEU194      0.0001
     93  N         18.7800    2.0860   18.8940 N.am  195  THR195     -0.1939
     94  CA        19.5130    0.8120   18.9070 C.3   195  THR195      0.2028
     95  C         20.5430    0.6750   17.7970 C.2   195  THR195      0.2643
     96  O         21.0830   -0.4130   17.5640 O.2   195  THR195     -0.2714
     97  CB        18.5280   -0.3690   18.8200 C.3   195  THR195      0.1808
     98  OG1       17.8570   -0.2830   17.5600 O.3   195  THR195     -0.2208
     99  CG2       17.5000   -0.2810   19.9340 C.3   195  THR195      0.0379
    100  N         20.8300    1.7750   17.1180 N.am  196  THR196     -0.1937
    101  CA        21.8910    1.8830   16.1350 C.3   196  THR196      0.2013
    102  C         22.6600    3.1820   16.3980 C.2   196  THR196      0.2484
    103  O         22.0530    4.0770   16.9830 O.2   196  THR196     -0.2729
    104  CB        21.4050    1.9720   14.6800 C.3   196  THR196      0.1807
    105  OG1       20.4800    3.0770   14.5630 O.3   196  THR196     -0.2208
    106  CG2       20.6600    0.7210   14.2570 C.3   196  THR196      0.0379
    107  N         23.9050    3.2170   15.9760 N.am  197  PRO197     -0.2715
    108  CA        24.7140    4.4510   16.1070 C.3   197  PRO197      0.1521
    109  C         23.8960    5.6180   15.5940 C.2   197  PRO197      0.2440
    110  O         23.1660    5.4130   14.6100 O.2   197  PRO197     -0.2731
    111  CB        25.9360    4.1060   15.2670 C.3   197  PRO197      0.0310
    112  CG        26.0830    2.6200   15.4580 C.3   197  PRO197      0.0237
    113  CD        24.6670    2.1050   15.3760 C.3   197  PRO197      0.0939
    114  N         23.8820    6.7770   16.2210 N.am  198  PRO198     -0.2727
    115  CA        24.7570    7.1800   17.3160 C.3   198  PRO198      0.1402
    116  C         24.3340    6.6780   18.6960 C.2   198  PRO198      0.2269
    117  O         24.9660    7.0580   19.6910 O.2   198  PRO198     -0.2865
    118  CB        24.6820    8.7110   17.2930 C.3   198  PRO198      0.0296
    119  CG        23.6510    9.0920   16.2980 C.3   198  PRO198      0.0237
    120  CD        22.9280    7.8560   15.8720 C.3   198  PRO198      0.0939
    121  N         22.0900    7.3320   20.7810 N.3   200  LEU200     -0.1245
    122  CA        21.7320    8.3890   21.7180 C.3   200  LEU200      0.1561
    123  C         20.7060    7.9570   22.7570 C.2   200  LEU200      0.2260
    124  O         19.7170    7.2760   22.4920 O.2   200  LEU200     -0.2867
    125  CB        21.2240    9.6090   20.9280 C.3   200  LEU200      0.0270
    126  CG        22.2380   10.1230   19.8900 C.3   200  LEU200      0.0019
    127  CD1       21.6610   11.2600   19.0680 C.3   200  LEU200      0.0001
    128  CD2       23.5340   10.5460   20.5630 C.3   200  LEU200      0.0001
@<TRIPOS>BOND
     1    15    16    1
     2    16    17    1
     3    16    19    1
     4    17    18    2
     5    32    31    2
     6    19    20    1
     7    31    30    1
     8    29    30    1
     9    20    21    2
    10    20    22   am
    11    23    24    1
    12    30    33    1
    13    33    34    1
    14    24    25    1
    15    24    27    1
    16    25    26    2
    17    34    36   am
    18    34    35    2
    19    28    27    1
    20     4     3    2
    21    41    38    1
    22    41    42    1
    23    50    47    1
    24    50    51    1
    25    47    46    1
    26    47    48    1
    27    38    39    1
    28    38    37    1
    29     1     2    1
    30     3     2    1
    31    42    43    1
    32    44    43    2
    33    48    49    2
    34    39    40    2
    35    43    45   am
    36     2     5    1
    37    12    14   ar
    38    12    10   ar
    39    51    52   ar
    40    51    53   ar
    41     9    10   ar
    42     9     7   ar
    43    14    13   ar
    44    10     8   ar
    45     7     6   ar
    46    52    54   ar
    47    13    11   ar
    48     8     6   ar
    49     8    11   ar
    50     6     5    1
    51    53    55   ar
    52    54    55   ar
    53    70    72   ar
    54    70    68   ar
    55    67    68    1
    56    67    64    1
    57   106   104    1
    58    72    73   ar
    59    68    69   ar
    60   105   104    1
    61   110   109    2
    62   104   101    1
    63    63    64    1
    64    59    58    2
    65    73    71   ar
    66    74    75    1
    67    74    65   am
    68    69    71   ar
    69    60    62    1
    70    60    61    1
    71    60    57    1
    72    75    76    1
    73    64    65    1
    74   111   112    1
    75   111   108    1
    76    56    57    1
    77   113   112    1
    78   113   107    1
    79   109   108    1
    80   109   114   am
    81    65    66    2
    82   120   114    1
    83   120   119    1
    84    58    57    1
    85   107   108    1
    86   107   102   am
    87   101   102    1
    88   101   100    1
    89   114   115    1
    90   119   118    1
    91   102   103    2
    92    76    77    2
    93   100    95   am
    94   118   115    1
    95   115   116    1
    96    98    97    1
    97    96    95    2
    98    84    82    1
    99    95    94    1
   100    83    82    1
   101    91    90    1
   102    92    90    1
   103    82    79    1
   104   116   117    2
   105    90    89    1
   106    97    94    1
   107    97    99    1
   108    89    86    1
   109    93    94    1
   110    93    87   am
   111   127   126    1
   112    78    79    1
   113    87    86    1
   114    87    88    2
   115    86    85    1
   116    79    80    1
   117   126   128    1
   118   126   125    1
   119   121   122    1
   120    80    81    2
   121   125   122    1
   122   122   123    1
   123   124   123    2
