@<TRIPOS>MOLECULE
tmp/3m5uB00.pdb
 99 93 0 0 0
SMALL
GASTEIGER

@<TRIPOS>ATOM
      1  N         32.2250   16.8460   48.2490 N.3    71  GLY71      -0.1210
      2  CA        31.4750   16.5270   47.0440 C.3    71  GLY71       0.1956
      3  C         31.7280   17.4440   45.8550 C.2    71  GLY71       0.2612
      4  O         31.0850   17.3190   44.7940 O.2    71  GLY71      -0.2717
      5  N         32.6630   18.3730   46.0260 N.am   72  GLY72      -0.1942
      6  CA        33.0660   19.2500   44.9320 C.3    72  GLY72       0.2014
      7  C         31.9620   20.2170   44.5780 C.2    72  GLY72       0.2639
      8  O         30.8930   20.2830   45.2440 O.2    72  GLY72      -0.2714
      9  N         32.2240   20.9930   43.5350 N.am   73  ALA73      -0.1963
     10  CA        31.2080   21.8620   42.9720 C.3    73  ALA73       0.1728
     11  C         29.9680   21.0690   42.5630 C.2    73  ALA73       0.2616
     12  O         28.8510   21.5630   42.6910 O.2    73  ALA73      -0.2715
     13  CB        31.7800   22.6510   41.7520 C.3    73  ALA73       0.0334
     14  N         30.1780   19.8520   42.0570 N.am   74  SER74      -0.1950
     15  CA        29.0900   19.0600   41.4680 C.3    74  SER74       0.1924
     16  C         27.9370   18.7860   42.4230 C.2    74  SER74       0.2314
     17  O         26.7680   18.8130   42.0210 O.2    74  SER74      -0.2863
     18  CB        29.6090   17.7290   40.9080 C.3    74  SER74       0.2116
     19  OG        30.2650   17.9560   39.6800 O.3    74  SER74      -0.2180
     20  N         25.4750   21.5380   42.5820 N.3    77  PHE77      -0.1241
     21  CA        24.4820   21.6460   41.4940 C.3    77  PHE77       0.1605
     22  C         23.1360   21.1220   41.9890 C.2    77  PHE77       0.2264
     23  O         22.0630   21.4230   41.4400 O.2    77  PHE77      -0.2867
     24  CB        24.8710   20.8240   40.2600 C.3    77  PHE77       0.0534
     25  CG        26.1450   21.2800   39.5610 C.ar   77  PHE77      -0.0203
     26  CD1       26.7540   22.5010   39.8640 C.ar   77  PHE77      -0.0042
     27  CD2       26.7550   20.4510   38.6160 C.ar   77  PHE77      -0.0042
     28  CE1       27.9440   22.8940   39.2190 C.ar   77  PHE77      -0.0003
     29  CE2       27.9410   20.8310   37.9740 C.ar   77  PHE77      -0.0003
     30  CZ        28.5290   22.0620   38.2710 C.ar   77  PHE77      -0.0000
     31  N         29.6370   23.5550   32.6470 N.3    96  TRP96      -0.1241
     32  CA        29.3040   23.4710   34.0650 C.3    96  TRP96       0.1605
     33  C         27.9280   24.0660   34.2880 C.2    96  TRP96       0.2264
     34  O         27.2080   23.6480   35.1990 O.2    96  TRP96      -0.2867
     35  CB        30.3850   24.1080   34.9670 C.3    96  TRP96       0.0550
     36  CG        31.7410   23.5360   34.6690 C.ar   96  TRP96       0.0003
     37  CD1       32.8330   24.1970   34.1510 C.ar   96  TRP96       0.0946
     38  CD2       32.1360   22.1630   34.8180 C.ar   96  TRP96       0.0152
     39  NE1       33.8810   23.3210   33.9850 N.ar   96  TRP96      -0.2442
     40  CE2       33.4830   22.0640   34.3800 C.ar   96  TRP96       0.0810
     41  CE3       31.4830   21.0080   35.2890 C.ar   96  TRP96       0.0012
     42  CZ2       34.1930   20.8500   34.3950 C.ar   96  TRP96       0.0191
     43  CZ3       32.1840   19.8010   35.3080 C.ar   96  TRP96       0.0001
     44  CH2       33.5280   19.7300   34.8560 C.ar   96  TRP96       0.0015
     45  N         27.8780   30.9190   36.1530 N.3   140  CYS140     -0.1235
     46  CA        29.2220   30.3780   36.3240 C.3   140  CYS140      0.1677
     47  C         30.2610   31.4210   35.9260 C.2   140  CYS140      0.2270
     48  O         30.3560   31.7920   34.7560 O.2   140  CYS140     -0.2867
     49  CB        29.4440   29.0740   35.5330 C.3   140  CYS140      0.0956
     50  SG        31.1680   28.5000   35.7330 S.3   140  CYS140     -0.0801
     51  N         35.6020   27.0340   32.5620 N.3   144  THR144     -0.1218
     52  CA        36.9480   26.4710   32.5640 C.3   144  THR144      0.1862
     53  C         37.3770   25.8590   31.2580 C.2   144  THR144      0.2287
     54  O         38.5590   25.8460   30.9250 O.2   144  THR144     -0.2866
     55  CB        37.0270   25.3830   33.6820 C.3   144  THR144      0.1770
     56  OG1       36.3770   25.8940   34.8630 O.3   144  THR144     -0.2211
     57  CG2       38.4520   25.0340   34.0340 C.3   144  THR144      0.0375
     58  N         28.9540   30.2840   40.6280 N.3   163  ASP163     -0.1239
     59  CA        29.9310   29.1900   40.6660 C.3   163  ASP163      0.1674
     60  C         31.2780   29.8050   40.2800 C.2   163  ASP163      0.2266
     61  O         31.5480   30.0860   39.1200 O.2   163  ASP163     -0.2867
     62  CB        29.5020   28.0170   39.7590 C.3   163  ASP163      0.1410
     63  CG        30.5950   26.9660   39.5530 C.2   163  ASP163      0.3668
     64  OD1       31.6610   27.0190   40.2010 O.co2 163  ASP163     -0.2456
     65  OD2       30.3980   26.0860   38.6700 O.co2 163  ASP163     -0.2456
     66  N         34.2650   28.3210   41.0630 N.3   165  SER165     -0.1202
     67  CA        35.2720   27.2600   41.2000 C.3   165  SER165      0.2020
     68  C         36.5910   27.5860   40.5420 C.2   165  SER165      0.2619
     69  O         37.6570   27.5020   41.1700 O.2   165  SER165     -0.2717
     70  CB        34.7620   25.9340   40.6120 C.3   165  SER165      0.2103
     71  OG        33.5870   25.5090   41.2680 O.3   165  SER165     -0.2182
     72  N         36.5450   27.9420   39.2670 N.am  166  SER166     -0.1951
     73  CA        37.8070   28.1640   38.5500 C.3   166  SER166      0.1924
     74  C         38.4160   29.5940   38.6020 C.2   166  SER166      0.2314
     75  O         39.5020   29.7850   38.0960 O.2   166  SER166     -0.2863
     76  CB        37.7420   27.6260   37.1060 C.3   166  SER166      0.2116
     77  OG        36.6560   28.1860   36.3820 O.3   166  SER166     -0.2180
     78  N         34.4850   24.5530   44.2270 N.3   184  GLY184     -0.1225
     79  CA        35.4380   23.4580   44.3560 C.3   184  GLY184      0.1811
     80  C         36.7960   24.1100   44.6270 C.2   184  GLY184      0.2280
     81  O         37.1800   25.0910   44.0040 O.2   184  GLY184     -0.2866
     82  N         39.9830   22.9540   44.6220 N.3   186  GLN186     -0.1231
     83  CA        41.2050   22.5020   43.9330 C.3   186  GLN186      0.1698
     84  C         41.6000   23.2540   42.6430 C.2   186  GLN186      0.2592
     85  O         42.5030   22.8170   41.9270 O.2   186  GLN186     -0.2718
     86  CB        41.0800   21.0300   43.5890 C.3   186  GLN186      0.0381
     87  CG        40.1170   20.7700   42.4380 C.3   186  GLN186      0.0905
     88  CD        38.6440   20.8310   42.8550 C.2   186  GLN186      0.2608
     89  OE1       38.2960   21.4690   43.8490 O.2   186  GLN186     -0.2717
     90  NE2       37.7710   20.1580   42.0840 N.am  186  GLN186     -0.0878
     91  N         40.9220   24.3400   42.3180 N.am  187  LYS187     -0.1980
     92  CA        41.4440   25.2160   41.2720 C.3   187  LYS187      0.1596
     93  C         42.3840   26.2620   41.8600 C.2   187  LYS187      0.2287
     94  O         43.5790   26.1920   41.6060 O.2   187  LYS187     -0.2864
     95  CB        40.3440   25.8290   40.4320 C.3   187  LYS187      0.0298
     96  CG        39.8950   24.9300   39.2960 C.3   187  LYS187      0.0038
     97  CD        38.9020   23.8510   39.7100 C.3   187  LYS187      0.0206
     98  CE        38.0250   23.4680   38.5180 C.3   187  LYS187      0.1093
     99  NZ        37.5260   22.0670   38.5870 N.3   187  LYS187     -0.1314
@<TRIPOS>BOND
     1    54    53    2
     2    53    52    1
     3    51    52    1
     4    52    55    1
     5    31    32    1
     6    55    57    1
     7    55    56    1
     8    39    37   ar
     9    39    40   ar
    10    32    33    1
    11    32    35    1
    12    37    36   ar
    13    33    34    2
    14    40    42   ar
    15    40    38   ar
    16    42    44   ar
    17    36    38   ar
    18    36    35    1
    19    48    47    2
    20    38    41   ar
    21    44    43   ar
    22    41    43   ar
    23    49    50    1
    24    49    46    1
    25    47    46    1
    26    45    46    1
    27    77    76    1
    28    76    73    1
    29    29    30   ar
    30    29    27   ar
    31    75    74    2
    32    30    28   ar
    33    98    99    1
    34    98    97    1
    35    73    74    1
    36    73    72    1
    37    27    25   ar
    38    65    63   ar
    39    61    60    2
    40    28    26   ar
    41    72    68   am
    42    96    97    1
    43    96    95    1
    44    63    62    1
    45    63    64   ar
    46    25    26   ar
    47    25    24    1
    48    19    18    1
    49    62    59    1
    50    24    21    1
    51    60    59    1
    52    95    92    1
    53    68    69    2
    54    68    67    1
    55    70    67    1
    56    70    71    1
    57    58    59    1
    58    18    15    1
    59    66    67    1
    60    92    93    1
    61    92    91    1
    62    23    22    2
    63    15    14    1
    64    15    16    1
    65    21    22    1
    66    21    20    1
    67    94    93    2
    68    13    10    1
    69    85    84    2
    70    17    16    2
    71    14    11   am
    72    90    88   am
    73    91    84   am
    74    87    88    1
    75    87    86    1
    76    11    12    2
    77    11    10    1
    78    84    83    1
    79    88    89    2
    80    10     9    1
    81     9     7   am
    82    86    83    1
    83    83    82    1
    84    81    80    2
    85    78    79    1
    86    79    80    1
    87     7     6    1
    88     7     8    2
    89     4     3    2
    90     6     5    1
    91     3     5   am
    92     3     2    1
    93     2     1    1
