@<TRIPOS>MOLECULE
tmp/3m5vB00.pdb
 100 91 0 0 0
SMALL
GASTEIGER

@<TRIPOS>ATOM
      1  N         39.8580  -23.3420  184.4000 N.3    12  ALA12      -0.1245
      2  CA        38.7960  -23.9240  183.5760 C.3    12  ALA12       0.1562
      3  C         39.4650  -24.7870  182.5010 C.2    12  ALA12       0.2260
      4  O         39.9280  -24.2750  181.4880 O.2    12  ALA12      -0.2867
      5  CB        37.9750  -22.8280  182.9500 C.3    12  ALA12       0.0290
      6  N         38.6060  -27.2110  187.0150 N.3    43  VAL43      -0.1245
      7  CA        37.2080  -27.2890  186.6250 C.3    43  VAL43       0.1561
      8  C         37.1150  -28.0830  185.3280 C.2    43  VAL43       0.2260
      9  O         37.3500  -27.5470  184.2350 O.2    43  VAL43      -0.2867
     10  CB        36.5980  -25.8780  186.4060 C.3    43  VAL43       0.0252
     11  CG1       35.1640  -25.9960  185.8800 C.3    43  VAL43       0.0019
     12  CG2       36.6300  -25.0710  187.6880 C.3    43  VAL43       0.0019
     13  N         35.1040  -30.0100  182.3490 N.3    45  VAL45      -0.1231
     14  CA        33.8350  -29.9340  181.6160 C.3    45  VAL45       0.1692
     15  C         32.9940  -28.7190  181.9560 C.2    45  VAL45       0.2593
     16  O         31.8000  -28.8350  182.2310 O.2    45  VAL45      -0.2718
     17  CB        33.0080  -31.2170  181.7650 C.3    45  VAL45       0.0266
     18  CG1       31.8250  -31.1970  180.7840 C.3    45  VAL45       0.0020
     19  CG2       33.8840  -32.4280  181.4770 C.3    45  VAL45       0.0020
     20  N         33.6270  -27.5490  181.9260 N.am   46  GLY46      -0.1942
     21  CA        32.9000  -26.3020  181.8290 C.3    46  GLY46       0.2014
     22  C         32.8860  -25.8200  180.3850 C.2    46  GLY46       0.2640
     23  O         33.1320  -26.5890  179.4470 O.2    46  GLY46      -0.2714
     24  N         32.6260  -24.5340  180.2070 N.am   47  THR47      -0.1936
     25  CA        32.5610  -23.9190  178.8790 C.3    47  THR47       0.2028
     26  C         33.8890  -24.0570  178.1470 C.2    47  THR47       0.2642
     27  O         33.9500  -24.3450  176.9540 O.2    47  THR47      -0.2714
     28  CB        32.3150  -22.4210  179.0540 C.3    47  THR47       0.1808
     29  OG1       31.2150  -22.2280  179.9560 O.3    47  THR47      -0.2208
     30  CG2       32.0290  -21.7620  177.7200 C.3    47  THR47       0.0379
     31  N         34.9700  -23.8340  178.8890 N.am   48  THR48      -0.1950
     32  CA        36.3010  -23.9060  178.2860 C.3    48  THR48       0.1897
     33  C         36.6100  -25.3370  177.8730 C.2    48  THR48       0.2313
     34  O         37.3950  -25.5740  176.9620 O.2    48  THR48      -0.2863
     35  CB        37.3560  -23.3610  179.2750 C.3    48  THR48       0.1794
     36  OG1       36.9360  -22.0590  179.6800 O.3    48  THR48      -0.2208
     37  CG2       38.7330  -23.2190  178.5870 C.3    48  THR48       0.0378
     38  N         31.8840  -28.3310  177.2520 N.3    51  SER51      -0.1217
     39  CA        30.8370  -29.1240  177.8840 C.3    51  SER51       0.1889
     40  C         29.6590  -29.3890  176.9380 C.2    51  SER51       0.2288
     41  O         29.1250  -30.4930  176.9050 O.2    51  SER51      -0.2866
     42  CB        30.3450  -28.4270  179.1520 C.3    51  SER51       0.2089
     43  OG        29.9350  -27.0940  178.8830 O.3    51  SER51      -0.2183
     44  N         32.0370  -28.9300  186.3430 N.3    80  GLY80      -0.1210
     45  CA        30.9780  -28.2330  185.6020 C.3    80  GLY80       0.1956
     46  C         29.7240  -29.0870  185.7160 C.2    80  GLY80       0.2612
     47  O         29.7970  -30.2940  185.4890 O.2    80  GLY80      -0.2717
     48  N         28.5880  -28.5010  186.1020 N.am   81  ALA81      -0.1965
     49  CA        27.3590  -29.3020  186.2390 C.3    81  ALA81       0.1728
     50  C         26.0720  -28.5280  185.9510 C.2    81  ALA81       0.2616
     51  O         24.9860  -28.9640  186.3410 O.2    81  ALA81      -0.2715
     52  CB        27.2790  -29.9170  187.6390 C.3    81  ALA81       0.0334
     53  N         26.1740  -27.3990  185.2660 N.am   82  GLY82      -0.1955
     54  CA        24.9880  -26.5970  185.0140 C.3    82  GLY82       0.1869
     55  C         24.1240  -27.1280  183.8740 C.2    82  GLY82       0.2309
     56  O         24.5950  -27.8390  182.9790 O.2    82  GLY82      -0.2863
     57  N         30.4000  -26.2240  189.8070 N.3   105  LEU105     -0.1245
     58  CA        30.1630  -24.9230  189.1870 C.3   105  LEU105      0.1561
     59  C         28.8800  -25.0570  188.3680 C.2   105  LEU105      0.2260
     60  O         28.7800  -25.9370  187.5080 O.2   105  LEU105     -0.2867
     61  CB        31.3440  -24.5920  188.2560 C.3   105  LEU105      0.0270
     62  CG        31.3020  -23.2480  187.5300 C.3   105  LEU105      0.0019
     63  CD1       31.3020  -22.1330  188.5550 C.3   105  LEU105      0.0001
     64  CD2       32.5120  -23.1190  186.5690 C.3   105  LEU105      0.0001
     65  N         26.2300  -23.1570  185.9480 N.3   107  VAL107     -0.1245
     66  CA        25.9300  -21.9640  185.1690 C.3   107  VAL107      0.1561
     67  C         24.4440  -21.5930  185.2010 C.2   107  VAL107      0.2260
     68  O         23.5640  -22.4620  185.2700 O.2   107  VAL107     -0.2867
     69  CB        26.3970  -22.1150  183.6940 C.3   107  VAL107      0.0252
     70  CG1       25.5270  -23.0900  182.9510 C.3   107  VAL107      0.0019
     71  CG2       26.4240  -20.7560  183.0000 C.3   107  VAL107      0.0019
     72  N         27.2990  -19.3510  188.6420 N.3   137  TYR137     -0.1241
     73  CA        28.1370  -18.8390  187.5560 C.3   137  TYR137      0.1605
     74  C         27.2730  -17.9350  186.6980 C.2   137  TYR137      0.2264
     75  O         26.3280  -18.3980  186.0630 O.2   137  TYR137     -0.2867
     76  CB        28.7400  -19.9970  186.7620 C.3   137  TYR137      0.0534
     77  CG        29.5460  -19.5790  185.5420 C.ar  137  TYR137     -0.0201
     78  CD1       30.0660  -18.2900  185.4250 C.ar  137  TYR137     -0.0009
     79  CD2       29.8050  -20.4830  184.5240 C.ar  137  TYR137     -0.0009
     80  CE1       30.8180  -17.9120  184.2780 C.ar  137  TYR137      0.0417
     81  CE2       30.5590  -20.1180  183.3990 C.ar  137  TYR137      0.0417
     82  CZ        31.0540  -18.8390  183.2870 C.ar  137  TYR137      0.1957
     83  OH        31.7880  -18.4790  182.1660 O.3   137  TYR137     -0.2866
     84  N         30.8600  -17.1240  190.5210 N.3   166  LYS166     -0.1245
     85  CA        31.8530  -16.7790  189.5060 C.3   166  LYS166      0.1561
     86  C         31.2260  -15.7290  188.6010 C.2   166  LYS166      0.2260
     87  O         30.2030  -15.9890  187.9630 O.2   166  LYS166     -0.2867
     88  CB        32.2310  -18.0280  188.7020 C.3   166  LYS166      0.0271
     89  CG        33.1880  -17.7570  187.4890 C.3   166  LYS166      0.0035
     90  CD        33.3170  -19.0070  186.6050 C.3   166  LYS166      0.0206
     91  CE        34.1840  -18.7040  185.3680 C.3   166  LYS166      0.1093
     92  NZ        34.0860  -19.7560  184.3150 N.3   166  LYS166     -0.1314
     93  N         38.5590  -18.3650  188.3760 N.3   205  ILE205     -0.1245
     94  CA        38.4320  -19.5370  187.5170 C.3   205  ILE205      0.1561
     95  C         38.8600  -19.0640  186.1310 C.2   205  ILE205      0.2260
     96  O         38.1490  -18.3130  185.4410 O.2   205  ILE205     -0.2867
     97  CB        37.0000  -20.1230  187.5530 C.3   205  ILE205      0.0252
     98  CG1       36.7580  -20.8110  188.9080 C.3   205  ILE205      0.0019
     99  CG2       36.7680  -21.1000  186.3780 C.3   205  ILE205      0.0019
    100  CD1       35.2740  -21.0450  189.2630 C.3   205  ILE205      0.0001
@<TRIPOS>BOND
     1    41    40    2
     2    40    39    1
     3    27    26    2
     4    34    33    2
     5    38    39    1
     6    30    28    1
     7    33    32    1
     8    39    42    1
     9    26    25    1
    10    26    31   am
    11    32    31    1
    12    32    35    1
    13    37    35    1
    14    25    28    1
    15    25    24    1
    16    43    42    1
    17    28    29    1
    18    35    36    1
    19    23    22    2
    20    24    22   am
    21    22    21    1
    22    18    17    1
    23    19    17    1
    24     4     3    2
    25    14    17    1
    26    14    15    1
    27    14    13    1
    28    21    20    1
    29    20    15   am
    30    15    16    2
    31    83    82    1
    32     3     2    1
    33     5     2    1
    34    70    69    1
    35    56    55    2
    36    71    69    1
    37    82    81   ar
    38    82    80   ar
    39    81    79   ar
    40     2     1    1
    41    69    66    1
    42    55    54    1
    43     9     8    2
    44    80    78   ar
    45    92    91    1
    46    79    77   ar
    47    54    53    1
    48    66    67    1
    49    66    65    1
    50    67    68    2
    51    53    50   am
    52     8     7    1
    53    91    90    1
    54    78    77   ar
    55    96    95    2
    56    47    46    2
    57    77    76    1
    58    45    46    1
    59    45    44    1
    60    46    48   am
    61    11    10    1
    62    50    49    1
    63    50    51    2
    64    75    74    2
    65    48    49    1
    66    95    94    1
    67    49    52    1
    68    99    97    1
    69    10     7    1
    70    10    12    1
    71    64    62    1
    72    90    89    1
    73     7     6    1
    74    74    73    1
    75    76    73    1
    76    89    88    1
    77    60    59    2
    78    94    97    1
    79    94    93    1
    80    62    61    1
    81    62    63    1
    82    97    98    1
    83    73    72    1
    84    87    86    2
    85    61    58    1
    86    59    58    1
    87    86    85    1
    88    88    85    1
    89    98   100    1
    90    58    57    1
    91    85    84    1
