@<TRIPOS>MOLECULE
tmp/3m62A00.pdb
 112 110 0 0 0
SMALL
GASTEIGER

@<TRIPOS>ATOM
      1  N         34.6990    4.3470  -27.8280 N.3   335  ILE335     -0.1231
      2  CA        34.3370    5.1160  -26.6160 C.3   335  ILE335      0.1692
      3  C         33.7380    6.4920  -26.7880 C.2   335  ILE335      0.2593
      4  O         33.2350    7.0400  -25.8250 O.2   335  ILE335     -0.2718
      5  CB        35.4780    5.2250  -25.5740 C.3   335  ILE335      0.0266
      6  CG1       36.7150    5.8860  -26.1870 C.3   335  ILE335      0.0019
      7  CG2       35.7480    3.8290  -24.9330 C.3   335  ILE335      0.0020
      8  CD1       37.7200    6.3890  -25.1270 C.3   335  ILE335      0.0001
      9  N         33.7930    7.0670  -27.9860 N.am  336  SER336     -0.1938
     10  CA        33.2950    8.4230  -28.1820 C.3   336  SER336      0.2055
     11  C         31.8100    8.3460  -28.4540 C.2   336  SER336      0.2643
     12  O         31.1090    9.3690  -28.4420 O.2   336  SER336     -0.2714
     13  CB        33.9660    9.0740  -29.3690 C.3   336  SER336      0.2130
     14  OG        33.3400    8.6810  -30.5880 O.3   336  SER336     -0.2179
     15  N         31.3360    7.1390  -28.7230 N.am  337  TYR337     -0.1973
     16  CA        29.9550    6.9070  -29.0490 C.3   337  TYR337      0.1639
     17  C         29.3290    7.7740  -30.1650 C.2   337  TYR337      0.2290
     18  O         28.1020    7.8480  -30.2470 O.2   337  TYR337     -0.2864
     19  CB        29.1170    6.9410  -27.7770 C.3   337  TYR337      0.0560
     20  CG        29.4270    5.7760  -26.8710 C.ar  337  TYR337     -0.0198
     21  CD1       29.1170    4.4630  -27.2660 C.ar  337  TYR337     -0.0009
     22  CD2       30.0420    5.9720  -25.6430 C.ar  337  TYR337     -0.0009
     23  CE1       29.4070    3.3680  -26.4410 C.ar  337  TYR337      0.0417
     24  CE2       30.3330    4.9100  -24.8070 C.ar  337  TYR337      0.0417
     25  CZ        30.0100    3.5960  -25.2040 C.ar  337  TYR337      0.1957
     26  OH        30.2720    2.5160  -24.3830 O.3   337  TYR337     -0.2866
     27  N         25.8960    0.8380  -23.0870 N.3   484  THR484     -0.1218
     28  CA        25.6020    2.2300  -23.3540 C.3   484  THR484      0.1862
     29  C         24.4170    2.3240  -24.2980 C.2   484  THR484      0.2287
     30  O         23.4200    2.9640  -23.9730 O.2   484  THR484     -0.2866
     31  CB        26.7990    2.8800  -23.9540 C.3   484  THR484      0.1770
     32  OG1       27.9170    2.6630  -23.0690 O.3   484  THR484     -0.2211
     33  CG2       26.5550    4.3730  -24.1720 C.3   484  THR484      0.0375
     34  N         21.3920    9.7180  -23.9010 N.3   496  PHE496     -0.1228
     35  CA        22.5520    9.1160  -23.2630 C.3   496  PHE496      0.1721
     36  C         23.4600    8.4590  -24.2920 C.2   496  PHE496      0.2437
     37  O         22.9720    7.8710  -25.2510 O.2   496  PHE496     -0.2733
     38  CB        22.0570    8.0570  -22.2950 C.3   496  PHE496      0.0547
     39  CG        23.1170    7.4610  -21.4310 C.ar  496  PHE496     -0.0202
     40  CD1       23.3920    8.0030  -20.1720 C.ar  496  PHE496     -0.0042
     41  CD2       23.8080    6.3330  -21.8480 C.ar  496  PHE496     -0.0042
     42  CE1       24.3530    7.4350  -19.3470 C.ar  496  PHE496     -0.0003
     43  CE2       24.7710    5.7420  -21.0250 C.ar  496  PHE496     -0.0003
     44  CZ        25.0390    6.2770  -19.7810 C.ar  496  PHE496     -0.0000
     45  N         24.7890    8.4860  -24.0720 N.am  497  PRO497     -0.2718
     46  CA        25.6130    8.9740  -22.9450 C.3   497  PRO497      0.1535
     47  C         26.0180   10.4640  -23.0570 C.2   497  PRO497      0.2599
     48  O         26.8700   10.9340  -22.2690 O.2   497  PRO497     -0.2715
     49  CB        26.8740    8.1210  -23.0900 C.3   497  PRO497      0.0310
     50  CG        27.0650    8.0960  -24.5870 C.3   497  PRO497      0.0237
     51  CD        25.6410    7.8890  -25.1250 C.3   497  PRO497      0.0939
     52  N         25.4490   11.1670  -24.0420 N.am  498  PHE498     -0.1960
     53  CA        25.6780   12.6020  -24.2270 C.3   498  PHE498      0.1771
     54  C         24.9900   13.4850  -23.1790 C.2   498  PHE498      0.2619
     55  O         25.4430   14.5860  -22.8980 O.2   498  PHE498     -0.2715
     56  CB        25.3220   13.0180  -25.6590 C.3   498  PHE498      0.0574
     57  CG        26.2030   12.3730  -26.6710 C.ar  498  PHE498     -0.0200
     58  CD1       27.4660   12.9020  -26.9420 C.ar  498  PHE498     -0.0042
     59  CD2       25.8230   11.1860  -27.2830 C.ar  498  PHE498     -0.0042
     60  CE1       28.3090   12.2790  -27.8340 C.ar  498  PHE498     -0.0003
     61  CE2       26.6630   10.5550  -28.1640 C.ar  498  PHE498     -0.0003
     62  CZ        27.9080   11.0970  -28.4460 C.ar  498  PHE498     -0.0000
     63  N         23.9010   12.9970  -22.5960 N.am  499  LYS499     -0.1963
     64  CA        23.3310   13.6290  -21.4330 C.3   499  LYS499      0.1728
     65  C         22.9920   12.5360  -20.4700 C.2   499  LYS499      0.2616
     66  O         22.6150   11.4440  -20.8920 O.2   499  LYS499     -0.2715
     67  CB        22.0900   14.4160  -21.8130 C.3   499  LYS499      0.0311
     68  CG        22.4050   15.5870  -22.7310 C.3   499  LYS499      0.0038
     69  CD        21.3170   16.6400  -22.7270 C.3   499  LYS499      0.0206
     70  CE        21.3050   17.3750  -24.0680 C.3   499  LYS499      0.1093
     71  NZ        20.8570   18.7530  -23.8310 N.3   499  LYS499     -0.1314
     72  N         23.1470   12.8270  -19.1810 N.am  500  GLN500     -0.1977
     73  CA        22.8580   11.8880  -18.1170 C.3   500  GLN500      0.1601
     74  C         21.4190   11.3490  -18.2340 C.2   500  GLN500      0.2287
     75  O         20.5490   12.0380  -18.7240 O.2   500  GLN500     -0.2864
     76  CB        23.0650   12.5850  -16.7740 C.3   500  GLN500      0.0394
     77  CG        23.0630   11.6500  -15.5330 C.3   500  GLN500      0.0908
     78  CD        23.9460   10.4200  -15.7240 C.2   500  GLN500      0.2608
     79  OE1       25.0640   10.3480  -15.1940 O.2   500  GLN500     -0.2717
     80  NE2       23.4520    9.4510  -16.4970 N.am  500  GLN500     -0.0878
     81  N         30.5020    1.3650  -18.0190 N.3   559  SER559     -0.1217
     82  CA        29.2660    1.3410  -18.8330 C.3   559  SER559      0.1889
     83  C         28.3380    0.1960  -18.4240 C.2   559  SER559      0.2288
     84  O         27.1170    0.3850  -18.2620 O.2   559  SER559     -0.2866
     85  CB        29.5840    1.2420  -20.2950 C.3   559  SER559      0.2089
     86  OG        30.4400    2.2880  -20.7040 O.3   559  SER559     -0.2183
     87  N         26.9240    0.7150  -14.9360 N.3   562  GLU562     -0.1245
     88  CA        25.8780    1.6970  -15.1440 C.3   562  GLU562      0.1567
     89  C         24.5580    0.9970  -15.5200 C.2   562  GLU562      0.2260
     90  O         23.5130    1.2150  -14.8750 O.2   562  GLU562     -0.2867
     91  CB        26.2810    2.6540  -16.2550 C.3   562  GLU562      0.0388
     92  CG        26.8880    3.9490  -15.8220 C.3   562  GLU562      0.1160
     93  CD        27.7480    4.5770  -16.9480 C.2   562  GLU562      0.3649
     94  OE1       28.7010    5.3250  -16.6470 O.co2 562  GLU562     -0.2457
     95  OE2       27.4740    4.3050  -18.1350 O.co2 562  GLU562     -0.2457
     96  N         28.5730    9.1110  -11.3570 N.3   610  GLU610     -0.1231
     97  CA        27.3600    9.7810  -10.9080 C.3   610  GLU610      0.1699
     98  C         26.0810    8.9450  -11.0560 C.2   610  GLU610      0.2592
     99  O         25.2930    8.8690  -10.1190 O.2   610  GLU610     -0.2718
    100  CB        27.1910   11.1530  -11.5790 C.3   610  GLU610      0.0402
    101  CG        28.1230   12.2550  -11.0100 C.3   610  GLU610      0.1161
    102  CD        28.1450   13.5570  -11.8450 C.2   610  GLU610      0.3649
    103  OE1       27.4330   14.5180  -11.4660 O.co2 610  GLU610     -0.2457
    104  OE2       28.8730   13.6340  -12.8750 O.co2 610  GLU610     -0.2457
    105  N         25.8620    8.3210  -12.2110 N.am  611  LEU611     -0.1980
    106  CA        24.6430    7.5330  -12.3800 C.3   611  LEU611      0.1596
    107  C         24.5790    6.3960  -11.3830 C.2   611  LEU611      0.2287
    108  O         23.5150    6.1010  -10.8430 O.2   611  LEU611     -0.2864
    109  CB        24.5480    6.9400  -13.7690 C.3   611  LEU611      0.0297
    110  CG        23.2800    6.0890  -13.9510 C.3   611  LEU611      0.0022
    111  CD1       22.0430    6.9660  -13.7760 C.3   611  LEU611      0.0001
    112  CD2       23.3160    5.5130  -15.3460 C.3   611  LEU611      0.0001
@<TRIPOS>BOND
     1    14    13    1
     2    18    17    2
     3    17    16    1
     4    13    10    1
     5    16    15    1
     6    16    19    1
     7    15    11   am
     8    11    12    2
     9    11    10    1
    10    62    61   ar
    11    62    60   ar
    12    10     9    1
    13    61    59   ar
    14     9     3   am
    15    60    58   ar
    16     1     2    1
    17    19    20    1
    18    59    57   ar
    19    21    20   ar
    20    21    23   ar
    21    58    57   ar
    22    20    22   ar
    23     3     2    1
    24     3     4    2
    25    57    56    1
    26     2     5    1
    27    23    25   ar
    28     6     5    1
    29     6     8    1
    30    56    53    1
    31    22    24   ar
    32     5     7    1
    33    37    36    2
    34    25    24   ar
    35    25    26    1
    36    51    50    1
    37    51    45    1
    38    50    49    1
    39    29    30    2
    40    29    28    1
    41    36    45   am
    42    36    35    1
    43    53    52    1
    44    53    54    1
    45    33    31    1
    46    45    46    1
    47    70    71    1
    48    70    69    1
    49    52    47   am
    50    31    28    1
    51    31    32    1
    52    34    35    1
    53    28    27    1
    54    35    38    1
    55    54    55    2
    56    54    63   am
    57    49    46    1
    58    47    46    1
    59    47    48    2
    60    68    69    1
    61    68    67    1
    62    63    64    1
    63    38    39    1
    64    41    39   ar
    65    41    43   ar
    66    67    64    1
    67    64    65    1
    68    39    40   ar
    69    43    44   ar
    70    66    65    2
    71    86    85    1
    72    65    72   am
    73    85    82    1
    74    40    42   ar
    75    44    42   ar
    76    72    73    1
    77    82    83    1
    78    82    81    1
    79    75    74    2
    80    83    84    2
    81    74    73    1
    82    95    93   ar
    83    73    76    1
    84    93    94   ar
    85    93    92    1
    86    76    77    1
    87    80    78   am
    88    91    92    1
    89    91    88    1
    90    78    77    1
    91    78    79    2
    92    89    88    1
    93    89    90    2
    94   112   110    1
    95    88    87    1
    96   110   111    1
    97   110   109    1
    98   109   106    1
    99   104   102   ar
   100   106   105    1
   101   106   107    1
   102   105    98   am
   103   102   103   ar
   104   102   101    1
   105   100   101    1
   106   100    97    1
   107   107   108    2
   108    96    97    1
   109    98    97    1
   110    98    99    2
