@<TRIPOS>MOLECULE
tmp/3m67A00.pdb
 188 182 0 0 0
SMALL
GASTEIGER

@<TRIPOS>ATOM
      1  N          8.5640   -0.2630   10.4940 N.3     2  TRP2       -0.1241
      2  CA         7.7540   -1.2070   11.2890 C.3     2  TRP2        0.1605
      3  C          6.8130   -2.0450   10.4430 C.2     2  TRP2        0.2264
      4  O          6.3150   -1.6200    9.3580 O.2     2  TRP2       -0.2867
      5  CB         7.0260   -0.5110   12.4900 C.3     2  TRP2        0.0550
      6  CG         5.8640    0.2620   12.1150 C.ar    2  TRP2        0.0003
      7  CD1        5.7840    1.5820   11.7370 C.ar    2  TRP2        0.0946
      8  CD2        4.5410   -0.2450   12.0840 C.ar    2  TRP2        0.0152
      9  NE1        4.4590    1.9110   11.4620 N.ar    2  TRP2       -0.2442
     10  CE2        3.6860    0.7990   11.6500 C.ar    2  TRP2        0.0810
     11  CE3        4.0160   -1.4920   12.3340 C.ar    2  TRP2        0.0012
     12  CZ2        2.3120    0.6370   11.5310 C.ar    2  TRP2        0.0191
     13  CZ3        2.6030   -1.6620   12.1680 C.ar    2  TRP2        0.0001
     14  CH2        1.7970   -0.6000   11.7770 C.ar    2  TRP2        0.0015
     15  N         -2.9250    0.3630    3.5630 N.3    59  ASN59      -0.1240
     16  CA        -1.7140    1.1660    4.0250 C.3    59  ASN59       0.1653
     17  C         -0.4610    0.3100    4.2850 C.2    59  ASN59       0.2266
     18  O          0.5750    0.7390    4.9030 O.2    59  ASN59      -0.2867
     19  CB        -2.0980    2.0340    5.2530 C.3    59  ASN59       0.1155
     20  CG        -2.5250    1.1840    6.4800 C.2    59  ASN59       0.2627
     21  OD1       -2.3990   -0.0360    6.4860 O.2    59  ASN59      -0.2716
     22  ND2       -2.9560    1.8570    7.5390 N.am   59  ASN59      -0.0877
     23  N         -0.4290   -2.1650    6.2640 N.3    61  HIS61      -0.1241
     24  CA        -0.5760   -2.8130    7.6340 C.3    61  HIS61       0.1621
     25  C         -1.9720   -3.4620    7.7580 C.2    61  HIS61       0.2264
     26  O         -2.1210   -4.5510    8.3970 O.2    61  HIS61      -0.2867
     27  CB        -0.4370   -1.7580    8.7630 C.3    61  HIS61       0.0745
     28  CG         0.7880   -0.8890    8.6300 C.ar   61  HIS61       0.0817
     29  ND1        2.0810   -1.3890    8.7250 N.ar   61  HIS61      -0.2268
     30  CD2        0.9180    0.4470    8.4410 C.ar   61  HIS61       0.1154
     31  CE1        2.9570   -0.4070    8.5870 C.ar   61  HIS61       0.1986
     32  NE2        2.2840    0.7190    8.4000 N.ar   61  HIS61      -0.2212
     33  N         -8.1840    0.5130    5.7510 N.3    64  ASN64      -0.1240
     34  CA        -8.9340    1.4500    6.5610 C.3    64  ASN64       0.1653
     35  C        -10.1150    1.8820    5.7650 C.2    64  ASN64       0.2266
     36  O         -9.9420    2.2950    4.6200 O.2    64  ASN64      -0.2867
     37  CB        -8.1340    2.7680    6.8690 C.3    64  ASN64       0.1155
     38  CG        -7.0200    2.6320    7.8790 C.2    64  ASN64       0.2627
     39  OD1       -6.2310    3.6370    8.0520 O.2    64  ASN64      -0.2716
     40  ND2       -6.9040    1.4840    8.5750 N.am   64  ASN64      -0.0877
     41  N        -12.4990    6.3470   11.2380 N.3    89  GLN89      -0.1245
     42  CA       -12.2470    5.1920   10.3430 C.3    89  GLN89       0.1566
     43  C        -12.4980    3.8820   11.0900 C.2    89  GLN89       0.2260
     44  O        -12.5940    3.9120   12.3220 O.2    89  GLN89      -0.2867
     45  CB       -10.7870    5.2440    9.8250 C.3    89  GLN89       0.0367
     46  CG        -9.7040    5.1490   10.9660 C.3    89  GLN89       0.0905
     47  CD        -8.9630    3.8070   11.0050 C.2    89  GLN89       0.2608
     48  OE1       -9.5410    2.7770   11.1980 O.2    89  GLN89      -0.2717
     49  NE2       -7.7020    3.8500   10.7780 N.am   89  GLN89      -0.0878
     50  N        -10.9300   -0.4150   10.8560 N.3    91  HIS91      -0.1241
     51  CA       -10.0400   -1.3830   10.2410 C.3    91  HIS91       0.1621
     52  C        -10.1970   -2.6740   11.0780 C.2    91  HIS91       0.2264
     53  O        -10.8670   -2.6760   12.1290 O.2    91  HIS91      -0.2867
     54  CB        -8.5690   -0.8520   10.2480 C.3    91  HIS91       0.0745
     55  CG        -8.0510   -0.5960   11.6390 C.ar   91  HIS91       0.0817
     56  ND1       -8.2560    0.5970   12.2990 N.ar   91  HIS91      -0.2268
     57  CD2       -7.4790   -1.4270   12.5300 C.ar   91  HIS91       0.1154
     58  CE1       -7.7450    0.5120   13.5220 C.ar   91  HIS91       0.1986
     59  NE2       -7.3020   -0.7190   13.7150 N.ar   91  HIS91      -0.2212
     60  N         -7.8750   -6.4520   12.3680 N.3    93  HIS93      -0.1241
     61  CA        -6.6080   -7.2250   12.5520 C.3    93  HIS93       0.1621
     62  C         -7.0320   -8.6600   12.4360 C.2    93  HIS93       0.2264
     63  O         -8.0930   -9.0160   12.9710 O.2    93  HIS93      -0.2867
     64  CB        -6.0800   -6.9910   13.9930 C.3    93  HIS93       0.0745
     65  CG        -5.7480   -5.5320   14.2530 C.ar   93  HIS93       0.0817
     66  ND1       -4.4810   -5.0070   14.0190 N.ar   93  HIS93      -0.2268
     67  CD2       -6.5410   -4.4830   14.6030 C.ar   93  HIS93       0.1154
     68  CE1       -4.5010   -3.7080   14.3130 C.ar   93  HIS93       0.1986
     69  NE2       -5.7490   -3.3610   14.6330 N.ar   93  HIS93      -0.2212
     70  N        -11.8790   -2.5520   14.7820 N.3   116  HIS116     -0.1241
     71  CA       -11.6030   -1.3390   15.5380 C.3   116  HIS116      0.1621
     72  C        -12.3050   -0.1660   14.8780 C.2   116  HIS116      0.2264
     73  O        -11.9610    0.1930   13.7140 O.2   116  HIS116     -0.2867
     74  CB       -10.0620   -1.1540   15.6620 C.3   116  HIS116      0.0745
     75  CG        -9.4230   -2.1170   16.6160 C.ar  116  HIS116      0.0817
     76  ND1       -8.0720   -2.4300   16.6010 N.ar  116  HIS116     -0.2268
     77  CD2       -9.9610   -2.8760   17.5950 C.ar  116  HIS116      0.1154
     78  CE1       -7.8050   -3.3040   17.5660 C.ar  116  HIS116      0.1986
     79  NE2       -8.9480   -3.6280   18.1390 N.ar  116  HIS116     -0.2212
     80  N        -12.6100    3.5100   15.2620 N.3   118  VAL118     -0.1245
     81  CA       -11.7520    4.6120   15.8240 C.3   118  VAL118      0.1561
     82  C        -12.5040    5.9640   15.8680 C.2   118  VAL118      0.2260
     83  O        -12.8990    6.4630   14.8200 O.2   118  VAL118     -0.2867
     84  CB       -10.4340    4.7660   15.0040 C.3   118  VAL118      0.0252
     85  CG1       -9.4840    5.8840   15.6040 C.3   118  VAL118      0.0019
     86  CG2       -9.6650    3.4240   14.8960 C.3   118  VAL118      0.0019
     87  N         -8.3980   14.5950   14.6060 N.3   127  PHE127     -0.1227
     88  CA        -7.6810   13.3740   15.0090 C.3   127  PHE127      0.1736
     89  C         -6.2100   13.6520   15.3930 C.2   127  PHE127      0.2596
     90  O         -5.7220   13.1640   16.4000 O.2   127  PHE127     -0.2718
     91  CB        -7.7680   12.3390   13.8770 C.3   127  PHE127      0.0547
     92  CG        -6.9980   11.0830   14.1420 C.ar  127  PHE127     -0.0202
     93  CD1       -7.5960   10.0210   14.8710 C.ar  127  PHE127     -0.0042
     94  CD2       -5.6900   10.9290   13.6740 C.ar  127  PHE127     -0.0042
     95  CE1       -6.8710    8.8560   15.1340 C.ar  127  PHE127     -0.0003
     96  CE2       -4.9670    9.7780   13.9150 C.ar  127  PHE127     -0.0003
     97  CZ        -5.5470    8.7390   14.6230 C.ar  127  PHE127     -0.0000
     98  N         -5.4990   14.4140   14.5450 N.am  128  GLY128     -0.1957
     99  CA        -4.0890   14.6780   14.8100 C.3   128  GLY128      0.1869
    100  C         -3.7750   15.3280   16.1280 C.2   128  GLY128      0.2309
    101  O         -2.7560   15.0600   16.7490 O.2   128  GLY128     -0.2863
    102  N         -4.7270   12.6000   19.2240 N.3   131  VAL131     -0.1245
    103  CA        -3.7510   11.4960   19.5910 C.3   131  VAL131      0.1561
    104  C         -2.6510   11.9390   20.5230 C.2   131  VAL131      0.2260
    105  O         -1.9630   11.1230   21.1480 O.2   131  VAL131     -0.2867
    106  CB        -3.1640   10.7550   18.3390 C.3   131  VAL131      0.0252
    107  CG1       -4.3060   10.1120   17.5980 C.3   131  VAL131      0.0019
    108  CG2       -2.2600   11.6860   17.4960 C.3   131  VAL131      0.0019
    109  N         -8.8210    9.5810   22.1410 N.3   137  LEU137     -0.1245
    110  CA        -9.5140    8.6090   21.2950 C.3   137  LEU137      0.1561
    111  C        -10.4010    7.6520   22.1460 C.2   137  LEU137      0.2260
    112  O        -10.1180    7.3890   23.3360 O.2   137  LEU137     -0.2867
    113  CB        -8.5310    7.7330   20.5010 C.3   137  LEU137      0.0270
    114  CG        -7.5500    8.4720   19.5540 C.3   137  LEU137      0.0019
    115  CD1       -6.8500    7.4460   18.6710 C.3   137  LEU137      0.0001
    116  CD2       -8.2190    9.5240   18.5570 C.3   137  LEU137      0.0001
    117  N        -11.9450    3.7770   21.1610 N.3   139  VAL139     -0.1245
    118  CA       -11.9820    2.7580   20.1160 C.3   139  VAL139      0.1561
    119  C        -12.9930    1.7340   20.5530 C.2   139  VAL139      0.2260
    120  O        -12.8690    1.1480   21.6790 O.2   139  VAL139     -0.2867
    121  CB       -10.6370    2.0720   19.8290 C.3   139  VAL139      0.0252
    122  CG1      -10.8190    0.9460   18.6940 C.3   139  VAL139      0.0019
    123  CG2       -9.6150    3.1440   19.4270 C.3   139  VAL139      0.0019
    124  N         -2.8710    3.1950   21.1730 N.3   194  LEU194     -0.1231
    125  CA        -2.8980    2.6360   19.8520 C.3   194  LEU194      0.1693
    126  C         -2.2050    1.3010   19.9100 C.2   194  LEU194      0.2593
    127  O         -1.2490    1.1640   20.6640 O.2   194  LEU194     -0.2718
    128  CB        -2.0820    3.5180   18.9130 C.3   194  LEU194      0.0284
    129  CG        -2.4340    4.9970   18.7380 C.3   194  LEU194      0.0019
    130  CD1       -1.6110    5.5230   17.5150 C.3   194  LEU194      0.0001
    131  CD2       -3.8640    5.3350   18.5830 C.3   194  LEU194      0.0001
    132  N         -2.6640    0.3170   19.1260 N.am  195  THR195     -0.1939
    133  CA        -1.9410   -0.9500   19.1450 C.3   195  THR195      0.2028
    134  C         -0.9300   -1.0350   17.9870 C.2   195  THR195      0.2643
    135  O         -0.3400   -2.1320   17.7570 O.2   195  THR195     -0.2714
    136  CB        -2.9210   -2.1570   18.9370 C.3   195  THR195      0.1808
    137  OG1       -3.4930   -2.0660   17.6440 O.3   195  THR195     -0.2208
    138  CG2       -3.9990   -2.1910   20.0420 C.3   195  THR195      0.0379
    139  N         -0.8390    0.0360   17.1860 N.am  196  THR196     -0.1937
    140  CA         0.1850    0.1230   16.1180 C.3   196  THR196      0.2013
    141  C          1.1030    1.2670   16.5160 C.2   196  THR196      0.2484
    142  O          0.6770    2.1870   17.2090 O.2   196  THR196     -0.2729
    143  CB        -0.4210    0.4570   14.7340 C.3   196  THR196      0.1807
    144  OG1       -1.1700    1.6980   14.7620 O.3   196  THR196     -0.2208
    145  CG2       -1.3990   -0.6310   14.3020 C.3   196  THR196      0.0379
    146  N          2.3370    1.2770   15.9800 N.am  197  PRO197     -0.2715
    147  CA         3.1290    2.5350   16.0550 C.3   197  PRO197      0.1521
    148  C          2.2810    3.7130   15.5490 C.2   197  PRO197      0.2440
    149  O          1.5470    3.6080   14.5550 O.2   197  PRO197     -0.2731
    150  CB         4.3050    2.2400   15.0780 C.3   197  PRO197      0.0310
    151  CG         4.5760    0.7940   15.3390 C.3   197  PRO197      0.0237
    152  CD         3.0790    0.1820   15.2870 C.3   197  PRO197      0.0939
    153  N          2.4160    4.8870   16.1670 N.am  198  PRO198     -0.2727
    154  CA         3.3080    5.2770   17.2750 C.3   198  PRO198      0.1402
    155  C          2.9280    4.9090   18.7150 C.2   198  PRO198      0.2269
    156  O          3.6060    5.3790   19.6640 O.2   198  PRO198     -0.2865
    157  CB         3.4460    6.8000   17.0740 C.3   198  PRO198      0.0296
    158  CG         2.1900    7.2000   16.4440 C.3   198  PRO198      0.0237
    159  CD         1.6970    6.0330   15.6010 C.3   198  PRO198      0.0939
    160  N          0.7600    5.5970   20.8730 N.3   200  LEU200     -0.1245
    161  CA         0.4480    6.7210   21.7920 C.3   200  LEU200      0.1561
    162  C         -0.6100    6.2720   22.7970 C.2   200  LEU200      0.2260
    163  O         -1.5450    5.5080   22.4490 O.2   200  LEU200     -0.2867
    164  CB        -0.0050    7.9520   20.9250 C.3   200  LEU200      0.0270
    165  CG         1.0860    8.5160   19.9700 C.3   200  LEU200      0.0019
    166  CD1        0.6190    9.5660   18.9280 C.3   200  LEU200      0.0001
    167  CD2        2.2590    9.0920   20.8040 C.3   200  LEU200      0.0001
    168  N         -5.9430    6.2620   24.2430 N.3   203  VAL203     -0.1245
    169  CA        -7.1910    5.5150   23.9790 C.3   203  VAL203      0.1561
    170  C         -8.0060    5.0720   25.2030 C.2   203  VAL203      0.2260
    171  O         -7.5160    4.4410   26.1050 O.2   203  VAL203     -0.2867
    172  CB        -6.9180    4.2480   23.0550 C.3   203  VAL203      0.0252
    173  CG1       -8.3150    3.5590   22.7260 C.3   203  VAL203      0.0019
    174  CG2       -6.0960    4.6820   21.7400 C.3   203  VAL203      0.0019
    175  N        -10.3750    2.2590   25.6660 N.3   205  TRP205     -0.1241
    176  CA       -10.8080    1.0690   24.9440 C.3   205  TRP205      0.1605
    177  C        -12.1820    0.6330   25.4520 C.2   205  TRP205      0.2264
    178  O        -12.4060    0.6130   26.6750 O.2   205  TRP205     -0.2867
    179  CB        -9.8000   -0.1020   25.1900 C.3   205  TRP205      0.0550
    180  CG        -8.6990    0.0800   24.1900 C.ar  205  TRP205      0.0003
    181  CD1       -7.4640    0.6910   24.3760 C.ar  205  TRP205      0.0946
    182  CD2       -8.7600   -0.3250   22.8260 C.ar  205  TRP205      0.0152
    183  NE1       -6.7750    0.6940   23.1830 N.ar  205  TRP205     -0.2442
    184  CE2       -7.5330    0.0440   22.2270 C.ar  205  TRP205      0.0810
    185  CE3       -9.7410   -0.9770   22.0540 C.ar  205  TRP205      0.0012
    186  CZ2       -7.2580   -0.1770   20.8550 C.ar  205  TRP205      0.0191
    187  CZ3       -9.4670   -1.2780   20.7030 C.ar  205  TRP205      0.0001
    188  CH2       -8.2080   -0.8900   20.1070 C.ar  205  TRP205      0.0015
@<TRIPOS>BOND
     1    15    16    1
     2    16    17    1
     3    16    19    1
     4    17    18    2
     5    36    35    2
     6    19    20    1
     7    33    34    1
     8    35    34    1
     9    23    24    1
    10    20    21    2
    11    20    22   am
    12    34    37    1
    13    37    38    1
    14    24    25    1
    15    24    27    1
    16    25    26    2
    17    38    39    2
    18    38    40   am
    19    32    30   ar
    20    32    31   ar
    21    30    28   ar
    22    31    29   ar
    23    28    29   ar
    24    28    27    1
    25     4     3    2
    26    45    42    1
    27    45    46    1
    28    51    54    1
    29    51    50    1
    30    51    52    1
    31    54    55    1
    32    42    43    1
    33    42    41    1
    34     3     2    1
    35     1     2    1
    36    49    47   am
    37    46    47    1
    38    47    48    2
    39    52    53    2
    40    43    44    2
    41     2     5    1
    42     9    10   ar
    43     9     7   ar
    44    12    10   ar
    45    12    14   ar
    46    55    56   ar
    47    55    57   ar
    48    10     8   ar
    49     7     6   ar
    50    14    13   ar
    51     8     6   ar
    52     8    11   ar
    53     6     5    1
    54    13    11   ar
    55    56    58   ar
    56    60    61    1
    57    62    61    1
    58    62    63    2
    59    57    59   ar
    60    61    64    1
    61    58    59   ar
    62    94    96   ar
    63    94    92   ar
    64    73    72    2
    65    91    92    1
    66    91    88    1
    67    96    97   ar
    68    64    65    1
    69    66    65   ar
    70    66    68   ar
    71    92    93   ar
    72    65    67   ar
    73   145   143    1
    74    68    69   ar
    75    98    99    1
    76    98    89   am
    77   149   148    2
    78    67    69   ar
    79    87    88    1
    80    97    95   ar
    81   143   144    1
    82   143   140    1
    83    70    71    1
    84    99   100    1
    85    83    82    2
    86    93    95   ar
    87    72    71    1
    88    86    84    1
    89    84    85    1
    90    84    81    1
    91    88    89    1
    92   150   151    1
    93   150   147    1
    94    80    81    1
    95   152   151    1
    96   152   146    1
    97    89    90    2
    98    71    74    1
    99   148   147    1
   100   148   153   am
   101   159   153    1
   102   159   158    1
   103    74    75    1
   104    81    82    1
   105   146   147    1
   106   146   141   am
   107   140   141    1
   108   140   139    1
   109   100   101    2
   110   153   154    1
   111   158   157    1
   112   141   142    2
   113    76    75   ar
   114    76    78   ar
   115    75    77   ar
   116   157   154    1
   117   139   134   am
   118   154   155    1
   119   108   106    1
   120   130   129    1
   121    78    79   ar
   122    77    79   ar
   123   107   106    1
   124   137   136    1
   125   135   134    2
   126   134   133    1
   127   106   103    1
   128   116   114    1
   129   131   129    1
   130   115   114    1
   131   122   121    1
   132   155   156    2
   133   129   128    1
   134   128   125    1
   135   166   165    1
   136   136   133    1
   137   136   138    1
   138   132   133    1
   139   132   126   am
   140   102   103    1
   141   123   121    1
   142   114   113    1
   143   103   104    1
   144   121   118    1
   145   125   126    1
   146   125   124    1
   147   126   127    2
   148   165   167    1
   149   165   164    1
   150   188   187   ar
   151   188   186   ar
   152   118   119    1
   153   118   117    1
   154   113   110    1
   155   104   105    2
   156   119   120    2
   157   187   185   ar
   158   186   184   ar
   159   160   161    1
   160   164   161    1
   161   110   109    1
   162   110   111    1
   163   174   172    1
   164   161   162    1
   165   185   182   ar
   166   111   112    2
   167   184   182   ar
   168   184   183   ar
   169   163   162    2
   170   173   172    1
   171   182   180   ar
   172   172   169    1
   173   183   181   ar
   174   169   168    1
   175   169   170    1
   176   180   181   ar
   177   180   179    1
   178   176   179    1
   179   176   177    1
   180   176   175    1
   181   170   171    2
   182   177   178    2
