@<TRIPOS>MOLECULE
tmp/3m6aD00.pdb
 179 172 0 0 0
SMALL
GASTEIGER

@<TRIPOS>ATOM
      1  N         44.0310  -28.0590   26.7170 N.3    76  GLU76      -0.1231
      2  CA        44.1990  -27.1460   27.8460 C.3    76  GLU76       0.1699
      3  C         43.0780  -26.1140   28.0400 C.2    76  GLU76       0.2592
      4  O         43.2850  -25.0930   28.6830 O.2    76  GLU76      -0.2718
      5  CB        45.5490  -26.4400   27.7610 C.3    76  GLU76       0.0402
      6  CG        46.7210  -27.3450   27.9890 C.3    76  GLU76       0.1161
      7  CD        48.0340  -26.6400   27.7790 C.2    76  GLU76       0.3649
      8  OE1       48.0670  -25.6560   27.0090 O.co2  76  GLU76      -0.2457
      9  OE2       49.0330  -27.0690   28.3890 O.co2  76  GLU76      -0.2457
     10  N         41.8990  -26.3740   27.4890 N.am   77  HIS77      -0.1962
     11  CA        40.7250  -25.5650   27.7530 C.3    77  HIS77       0.1787
     12  C         39.5440  -26.4650   27.4450 C.2    77  HIS77       0.2620
     13  O         39.5780  -27.1830   26.4620 O.2    77  HIS77      -0.2715
     14  CB        40.6630  -24.3410   26.8320 C.3    77  HIS77       0.0785
     15  CG        41.7880  -23.3680   26.9890 C.ar   77  HIS77       0.0821
     16  ND1       42.9150  -23.4010   26.2010 N.ar   77  HIS77      -0.2267
     17  CD2       41.9360  -22.2940   27.7960 C.ar   77  HIS77       0.1154
     18  CE1       43.7200  -22.4100   26.5330 C.ar   77  HIS77       0.1986
     19  NE2       43.1510  -21.7220   27.5020 N.ar   77  HIS77      -0.2212
     20  N         38.4840  -26.4340   28.2400 N.am   78  HIS78      -0.1973
     21  CA        37.3940  -27.3610   27.9720 C.3    78  HIS78       0.1656
     22  C         36.5260  -26.9140   26.8200 C.2    78  HIS78       0.2291
     23  O         36.7040  -27.3600   25.6890 O.2    78  HIS78      -0.2864
     24  CB        36.5400  -27.5780   29.2010 C.3    78  HIS78       0.0771
     25  CG        35.4240  -28.5520   29.0010 C.ar   78  HIS78       0.0820
     26  ND1       34.1250  -28.1490   28.7690 N.ar   78  HIS78      -0.2267
     27  CD2       35.3960  -29.9020   29.0250 C.ar   78  HIS78       0.1154
     28  CE1       33.3500  -29.2080   28.6430 C.ar   78  HIS78       0.1986
     29  NE2       34.0970  -30.2850   28.7950 N.ar   78  HIS78      -0.2212
     30  N         34.7280  -23.4840   25.0870 N.3    80  LEU80      -0.1245
     31  CA        35.2980  -22.4930   24.2180 C.3    80  LEU80       0.1561
     32  C         35.3010  -22.9760   22.7620 C.2    80  LEU80       0.2260
     33  O         36.1360  -22.5510   21.9600 O.2    80  LEU80      -0.2867
     34  CB        36.7190  -22.1990   24.6870 C.3    80  LEU80       0.0270
     35  CG        36.8320  -21.5920   26.0700 C.3    80  LEU80       0.0019
     36  CD1       38.0250  -20.6960   26.1470 C.3    80  LEU80       0.0001
     37  CD2       35.5880  -20.7730   26.2910 C.3    80  LEU80       0.0001
     38  N         36.8290  -11.7990   34.1010 N.3   111  PRO111     -0.2102
     39  CA        38.0960  -12.4350   34.4410 C.3   111  PRO111      0.1504
     40  C         37.8940  -13.8870   34.8730 C.2   111  PRO111      0.2576
     41  O         36.8690  -14.2350   35.4650 O.2   111  PRO111     -0.2718
     42  CB        38.5770  -11.6030   35.5980 C.3   111  PRO111      0.0282
     43  CG        37.3250  -11.2400   36.2830 C.3   111  PRO111      0.0208
     44  CD        36.3420  -10.9570   35.1930 C.3   111  PRO111      0.0893
     45  N         38.8640  -14.7330   34.5670 N.am  112  GLY112     -0.1943
     46  CA        38.7720  -16.1200   34.9600 C.3   112  GLY112      0.2014
     47  C         38.0780  -17.0180   33.9690 C.2   112  GLY112      0.2639
     48  O         37.5240  -18.0410   34.3490 O.2   112  GLY112     -0.2714
     49  N         38.1100  -16.6580   32.6950 N.am  113  VAL113     -0.1963
     50  CA        37.4570  -17.4900   31.6920 C.3   113  VAL113      0.1727
     51  C         38.4690  -18.0990   30.7690 C.2   113  VAL113      0.2617
     52  O         38.1540  -18.9730   29.9720 O.2   113  VAL113     -0.2715
     53  CB        36.5210  -16.6820   30.8770 C.3   113  VAL113      0.0290
     54  CG1       35.2250  -16.4730   31.6310 C.3   113  VAL113      0.0023
     55  CG2       37.1740  -15.3880   30.5930 C.3   113  VAL113      0.0023
     56  N         39.6990  -17.6260   30.8760 N.am  114  GLY114     -0.1940
     57  CA        40.7710  -18.2670   30.1480 C.3   114  GLY114      0.2014
     58  C         41.5870  -17.3770   29.2430 C.2   114  GLY114      0.2639
     59  O         42.5470  -17.8310   28.6220 O.2   114  GLY114     -0.2714
     60  N         41.2080  -16.1050   29.1560 N.am  115  LYS115     -0.1963
     61  CA        41.8470  -15.2070   28.2020 C.3   115  LYS115      0.1728
     62  C         43.3500  -15.3840   28.2920 C.2   115  LYS115      0.2617
     63  O         43.9330  -15.7980   27.3690 O.2   115  LYS115     -0.2715
     64  CB        41.4450  -13.7630   28.4580 C.3   115  LYS115      0.0311
     65  CG        39.9670  -13.4710   28.3130 C.3   115  LYS115      0.0038
     66  CD        39.5890  -12.1730   29.0710 C.3   115  LYS115      0.0206
     67  CE        39.7760  -12.3010   30.5850 C.3   115  LYS115      0.1093
     68  NZ        39.5240  -11.0100   31.3100 N.3   115  LYS115     -0.1314
     69  N         43.9660  -15.1190   29.4370 N.am  116  THR116     -0.1937
     70  CA        45.4130  -15.2480   29.5430 C.3   116  THR116      0.2028
     71  C         45.8750  -16.6190   29.0780 C.2   116  THR116      0.2642
     72  O         46.8280  -16.7170   28.3600 O.2   116  THR116     -0.2714
     73  CB        45.8890  -15.0080   30.9770 C.3   116  THR116      0.1808
     74  OG1       45.2540  -13.8350   31.5100 O.3   116  THR116     -0.2208
     75  CG2       47.3620  -14.8380   31.0070 C.3   116  THR116      0.0379
     76  N         45.1900  -17.6850   29.4700 N.am  117  SER117     -0.1949
     77  CA        45.6210  -19.0380   29.1090 C.3   117  SER117      0.1924
     78  C         45.4990  -19.3550   27.6340 C.2   117  SER117      0.2314
     79  O         46.3620  -19.9700   27.0710 O.2   117  SER117     -0.2863
     80  CB        44.8580  -20.1020   29.8900 C.3   117  SER117      0.2116
     81  OG        45.0550  -21.3900   29.3270 O.3   117  SER117     -0.2180
     82  N         48.6470  -17.9310   26.0280 N.3   120  LYS120     -0.1245
     83  CA        49.8200  -18.7600   26.2730 C.3   120  LYS120      0.1561
     84  C         49.7530  -19.9440   25.3570 C.2   120  LYS120      0.2260
     85  O         50.7480  -20.3960   24.8470 O.2   120  LYS120     -0.2867
     86  CB        49.8730  -19.2370   27.7280 C.3   120  LYS120      0.0271
     87  CG        50.6590  -18.3440   28.7090 C.3   120  LYS120      0.0035
     88  CD        50.4680  -18.7900   30.1800 C.3   120  LYS120      0.0206
     89  CE        51.1920  -17.8650   31.1650 C.3   120  LYS120      0.1093
     90  NZ        50.8380  -18.1010   32.6020 N.3   120  LYS120     -0.1314
     91  N         48.1990   -7.4450   28.5800 N.3   156  ASP156     -0.1239
     92  CA        47.1830   -8.0500   29.4420 C.3   156  ASP156      0.1674
     93  C         45.9960   -7.1410   29.6050 C.2   156  ASP156      0.2266
     94  O         44.9570   -7.3590   29.0160 O.2   156  ASP156     -0.2867
     95  CB        47.7250   -8.4610   30.8090 C.3   156  ASP156      0.1410
     96  CG        46.8440   -9.4960   31.4870 C.2   156  ASP156      0.3668
     97  OD1       47.3700  -10.3580   32.2290 O.co2 156  ASP156     -0.2456
     98  OD2       45.6200   -9.4510   31.2580 O.co2 156  ASP156     -0.2456
     99  N         43.9980   -8.7350   26.6520 N.3   195  THR195     -0.1218
    100  CA        42.9200   -9.1560   27.5400 C.3   195  THR195      0.1862
    101  C         42.0440   -7.9210   27.7940 C.2   195  THR195      0.2287
    102  O         42.4600   -6.7860   27.5110 O.2   195  THR195     -0.2866
    103  CB        43.4910   -9.6960   28.8670 C.3   195  THR195      0.1770
    104  OG1       44.3690  -10.7870   28.5860 O.3   195  THR195     -0.2211
    105  CG2       42.3880  -10.1460   29.8250 C.3   195  THR195      0.0375
    106  N         30.7270  -19.7560   32.2930 N.3   218  TYR218     -0.1241
    107  CA        30.5690  -21.2150   32.4260 C.3   218  TYR218      0.1605
    108  C         29.3770  -21.7090   33.2920 C.2   218  TYR218      0.2264
    109  O         29.0590  -21.1270   34.3220 O.2   218  TYR218     -0.2867
    110  CB        31.8870  -21.8600   32.9460 C.3   218  TYR218      0.0534
    111  CG        33.1840  -21.6640   32.1240 C.ar  218  TYR218     -0.0201
    112  CD1       33.4440  -22.4110   30.9960 C.ar  218  TYR218     -0.0009
    113  CD2       34.1540  -20.7710   32.5240 C.ar  218  TYR218     -0.0009
    114  CE1       34.5840  -22.2360   30.2930 C.ar  218  TYR218      0.0417
    115  CE2       35.2940  -20.6020   31.8180 C.ar  218  TYR218      0.0417
    116  CZ        35.5050  -21.3260   30.7120 C.ar  218  TYR218      0.1957
    117  OH        36.6770  -21.1240   30.0320 O.3   218  TYR218     -0.2866
    118  N         36.0130  -28.4890   34.2270 N.3   226  ILE226     -0.1245
    119  CA        37.2470  -27.7330   34.1750 C.3   226  ILE226      0.1561
    120  C         38.0530  -28.0570   35.4270 C.2   226  ILE226      0.2260
    121  O         39.2190  -28.3580   35.3560 O.2   226  ILE226     -0.2867
    122  CB        36.9950  -26.2430   34.1320 C.3   226  ILE226      0.0252
    123  CG1       35.9150  -25.8960   33.1550 C.3   226  ILE226      0.0019
    124  CG2       38.1550  -25.5340   33.6450 C.3   226  ILE226      0.0019
    125  CD1       35.9880  -24.4570   32.7920 C.3   226  ILE226      0.0001
    126  N         41.4360  -30.4670   34.3610 N.3   230  HIS230     -0.1226
    127  CA        42.5190  -29.4900   34.1950 C.3   230  HIS230      0.1752
    128  C         42.9290  -28.8160   35.5110 C.2   230  HIS230      0.2595
    129  O         44.0330  -29.0070   35.9930 O.2   230  HIS230     -0.2718
    130  CB        42.1580  -28.4080   33.1700 C.3   230  HIS230      0.0759
    131  CG        41.6650  -28.9320   31.8550 C.ar  230  HIS230      0.0818
    132  ND1       40.6440  -29.8530   31.7500 N.ar  230  HIS230     -0.2268
    133  CD2       42.0210  -28.6280   30.5840 C.ar  230  HIS230      0.1154
    134  CE1       40.4010  -30.1000   30.4770 C.ar  230  HIS230      0.1986
    135  NE2       41.2200  -29.3650   29.7470 N.ar  230  HIS230     -0.2212
    136  N         42.0340  -28.0240   36.0830 N.am  231  LEU231     -0.1980
    137  CA        42.3480  -27.2150   37.2540 C.3   231  LEU231      0.1596
    138  C         43.0220  -27.9850   38.3480 C.2   231  LEU231      0.2287
    139  O         44.1090  -27.6660   38.7420 O.2   231  LEU231     -0.2864
    140  CB        41.0870  -26.5470   37.8010 C.3   231  LEU231      0.0297
    141  CG        40.9610  -25.1860   37.1530 C.3   231  LEU231      0.0022
    142  CD1       39.9050  -24.3170   37.7370 C.3   231  LEU231      0.0001
    143  CD2       42.3180  -24.6090   37.4120 C.3   231  LEU231      0.0001
    144  N         46.5360  -29.7350   37.6710 N.3   234  LYS234     -0.1245
    145  CA        47.5360  -28.6810   37.5470 C.3   234  LYS234      0.1561
    146  C         48.0010  -28.2040   38.9120 C.2   234  LYS234      0.2260
    147  O         49.1860  -27.9660   39.0950 O.2   234  LYS234     -0.2867
    148  CB        46.9880  -27.4990   36.7280 C.3   234  LYS234      0.0271
    149  CG        47.8980  -26.2820   36.6040 C.3   234  LYS234      0.0035
    150  CD        47.2520  -25.2520   35.6830 C.3   234  LYS234      0.0206
    151  CE        48.1380  -24.0230   35.4970 C.3   234  LYS234      0.1093
    152  NZ        48.2240  -23.1580   36.7130 N.3   234  LYS234     -0.1314
    153  N         36.8700  -18.8560   36.4260 N.3   266  VAL266     -0.1231
    154  CA        37.2020  -19.8530   37.4180 C.3   266  VAL266      0.1692
    155  C         38.4240  -19.4920   38.2470 C.2   266  VAL266      0.2591
    156  O         39.0520  -20.3850   38.8130 O.2   266  VAL266     -0.2718
    157  CB        37.3850  -21.2440   36.8100 C.3   266  VAL266      0.0266
    158  CG1       36.0820  -21.7870   36.3310 C.3   266  VAL266      0.0020
    159  CG2       38.3620  -21.2000   35.6920 C.3   266  VAL266      0.0020
    160  N         38.7350  -18.1950   38.3570 N.am  267  ARG267     -0.1980
    161  CA        39.9380  -17.7620   39.0800 C.3   267  ARG267      0.1597
    162  C         39.8250  -18.0150   40.5570 C.2   267  ARG267      0.2287
    163  O         40.7050  -18.6520   41.1630 O.2   267  ARG267     -0.2864
    164  CB        40.2910  -16.2940   38.8230 C.3   267  ARG267      0.0334
    165  CG        41.7250  -15.9520   39.2300 C.3   267  ARG267      0.0492
    166  CD        42.3220  -14.8230   38.3940 C.3   267  ARG267      0.2205
    167  NE        41.4140  -13.6870   38.2770 N.pl3 267  ARG267     -0.0865
    168  CZ        41.0290  -12.9200   39.2950 C.cat 267  ARG267      0.5346
    169  NH1       41.4680  -13.1670   40.5200 N.pl3 267  ARG267      0.1354
    170  NH2       40.1960  -11.9070   39.0890 N.pl3 267  ARG267      0.1354
    171  N         40.0770  -21.5200   41.2680 N.3   270  GLU270     -0.1245
    172  CA        41.4230  -22.0450   41.2240 C.3   270  GLU270      0.1567
    173  C         42.0680  -21.7950   42.5680 C.2   270  GLU270      0.2260
    174  O         42.7540  -22.6680   43.1230 O.2   270  GLU270     -0.2867
    175  CB        42.2420  -21.4080   40.0800 C.3   270  GLU270      0.0388
    176  CG        43.3030  -22.3710   39.4780 C.3   270  GLU270      0.1160
    177  CD        44.4130  -21.6740   38.7100 C.2   270  GLU270      0.3649
    178  OE1       44.3760  -20.4360   38.5250 O.co2 270  GLU270     -0.2457
    179  OE2       45.3430  -22.3840   38.2910 O.co2 270  GLU270     -0.2457
@<TRIPOS>BOND
     1    33    32    2
     2    32    31    1
     3    31    34    1
     4    31    30    1
     5    34    35    1
     6    85    84    2
     7    84    83    1
     8    23    22    2
     9    82    83    1
    10    35    36    1
    11    35    37    1
    12    16    18   ar
    13    16    15   ar
    14    83    86    1
    15    13    12    2
    16    18    19   ar
    17    99   100    1
    18     1     2    1
    19    22    21    1
    20    14    15    1
    21    14    11    1
    22    15    17   ar
    23     8     7   ar
    24    79    78    2
    25    63    62    2
    26    12    11    1
    27    12    20   am
    28    10    11    1
    29    10     3   am
    30    19    17   ar
    31   102   101    2
    32   100   101    1
    33   100   103    1
    34    78    77    1
    35    86    87    1
    36     5     2    1
    37     5     6    1
    38     7     6    1
    39     7     9   ar
    40     2     3    1
    41    21    20    1
    42    21    24    1
    43     3     4    2
    44    61    62    1
    45    61    64    1
    46    61    60    1
    47    62    69   am
    48    65    64    1
    49    65    66    1
    50    72    71    2
    51    91    92    1
    52   104   103    1
    53    59    58    2
    54    28    26   ar
    55    28    29   ar
    56    87    88    1
    57    26    25   ar
    58    29    27   ar
    59   103   105    1
    60    25    27   ar
    61    25    24    1
    62    94    93    2
    63    66    67    1
    64    71    76   am
    65    71    70    1
    66    77    76    1
    67    77    80    1
    68    60    58   am
    69    58    57    1
    70    81    80    1
    71    69    70    1
    72    92    93    1
    73    92    95    1
    74    70    73    1
    75   135   134   ar
    76   135   133   ar
    77    52    51    2
    78   117   116    1
    79    57    56    1
    80    88    89    1
    81   114   116   ar
    82   114   112   ar
    83   134   132   ar
    84   133   131   ar
    85    67    68    1
    86    55    53    1
    87   116   115   ar
    88    51    56   am
    89    51    50    1
    90    95    96    1
    91    53    54    1
    92    53    50    1
    93    73    75    1
    94    73    74    1
    95   112   111   ar
    96    89    90    1
    97    98    96   ar
    98    96    97   ar
    99    50    49    1
   100   132   131   ar
   101   115   113   ar
   102   131   130    1
   103   111   113   ar
   104   111   110    1
   105   106   107    1
   106   107   110    1
   107   107   108    1
   108    49    47   am
   109   125   123    1
   110   123   122    1
   111   130   127    1
   112   108   109    2
   113   124   122    1
   114    47    48    2
   115    47    46    1
   116    38    39    1
   117    38    44    1
   118   122   119    1
   119   119   118    1
   120   119   120    1
   121   127   126    1
   122   127   128    1
   123    39    40    1
   124    39    42    1
   125    45    40   am
   126    45    46    1
   127    40    41    2
   128    44    43    1
   129   121   120    2
   130   151   150    1
   131   151   152    1
   132   128   129    2
   133   128   136   am
   134    42    43    1
   135   150   149    1
   136   159   157    1
   137   136   137    1
   138   158   157    1
   139   153   154    1
   140   149   148    1
   141   148   145    1
   142   157   154    1
   143   141   143    1
   144   141   142    1
   145   141   140    1
   146   137   140    1
   147   137   138    1
   148   154   155    1
   149   145   144    1
   150   145   146    1
   151   155   160   am
   152   155   156    2
   153   167   166    1
   154   167   168    2
   155   179   177   ar
   156   138   139    2
   157   160   161    1
   158   166   165    1
   159   178   177   ar
   160   177   176    1
   161   164   161    1
   162   164   165    1
   163   146   147    2
   164   161   162    1
   165   170   168    1
   166   168   169    1
   167   176   175    1
   168   175   172    1
   169   162   163    2
   170   172   171    1
   171   172   173    1
   172   173   174    2
