@<TRIPOS>MOLECULE
tmp/3m6fA00.pdb
 204 191 0 0 0
SMALL
GASTEIGER

@<TRIPOS>ATOM
      1  N        -14.6390    1.8020   18.7330 N.3     1  MET1       -0.1245
      2  CA       -14.6720    2.7010   17.5450 C.3     1  MET1        0.1570
      3  C        -13.3230    2.7950   16.8600 C.2     1  MET1        0.2261
      4  O        -12.4840    1.9010   16.9970 O.2     1  MET1       -0.2867
      5  CB       -15.0970    4.1460   17.9400 C.3     1  MET1        0.0387
      6  CG       -14.2550    4.7380   19.0550 C.3     1  MET1        0.0595
      7  SD       -14.7050    6.4520   19.2310 S.3     1  MET1       -0.1393
      8  CE       -16.4260    6.2230   19.8040 C.3     1  MET1        0.0692
      9  N        -10.0430    3.8200   17.0590 N.3     3  VAL3       -0.1245
     10  CA        -9.0860    4.2180   18.0860 C.3     3  VAL3        0.1561
     11  C         -7.6520    3.9200   17.6760 C.2     3  VAL3        0.2260
     12  O         -7.3290    2.7980   17.2840 O.2     3  VAL3       -0.2867
     13  CB        -9.3610    3.4950   19.4170 C.3     3  VAL3        0.0252
     14  CG1       -8.2850    3.8480   20.4350 C.3     3  VAL3        0.0019
     15  CG2      -10.7340    3.8880   19.9470 C.3     3  VAL3        0.0019
     16  N         -4.3670    3.5530   19.4630 N.3     5  LEU5       -0.1245
     17  CA        -3.9120    3.4040   20.8440 C.3     5  LEU5        0.1561
     18  C         -2.4220    3.1040   20.8990 C.2     5  LEU5        0.2260
     19  O         -1.9280    2.2340   20.1840 O.2     5  LEU5       -0.2867
     20  CB        -4.7040    2.2890   21.5410 C.3     5  LEU5        0.0270
     21  CG        -4.4140    2.0210   23.0230 C.3     5  LEU5        0.0019
     22  CD1       -5.6520    1.4390   23.6810 C.3     5  LEU5        0.0001
     23  CD2       -3.2370    1.0700   23.1690 C.3     5  LEU5        0.0001
     24  N          0.8340    2.0350   23.3890 N.3     7  PHE7       -0.1241
     25  CA         1.3770    1.5820   24.6660 C.3     7  PHE7        0.1605
     26  C          2.7220    2.2610   24.8610 C.2     7  PHE7        0.2264
     27  O          3.5750    2.2180   23.9770 O.2     7  PHE7       -0.2867
     28  CB         1.5930    0.0660   24.6730 C.3     7  PHE7        0.0534
     29  CG         0.3370   -0.7330   24.4810 C.ar    7  PHE7       -0.0203
     30  CD1       -0.5440   -0.9310   25.5310 C.ar    7  PHE7       -0.0042
     31  CD2        0.0550   -1.3150   23.2550 C.ar    7  PHE7       -0.0042
     32  CE1       -1.6870   -1.7020   25.3610 C.ar    7  PHE7       -0.0003
     33  CE2       -1.0830   -2.0840   23.0810 C.ar    7  PHE7       -0.0003
     34  CZ        -1.9530   -2.2760   24.1380 C.ar    7  PHE7       -0.0000
     35  N          0.9040   -8.4670   28.5340 N.3    26  PHE26      -0.1241
     36  CA        -0.3010   -7.6650   28.7060 C.3    26  PHE26       0.1605
     37  C         -0.6600   -6.9830   27.3950 C.2    26  PHE26       0.2264
     38  O         -1.8160   -7.0040   26.9740 O.2    26  PHE26      -0.2867
     39  CB        -0.0920   -6.6070   29.7960 C.3    26  PHE26       0.0534
     40  CG        -1.2600   -5.6710   29.9630 C.ar   26  PHE26      -0.0203
     41  CD1       -2.4140   -6.0880   30.6160 C.ar   26  PHE26      -0.0042
     42  CD2       -1.2070   -4.3790   29.4610 C.ar   26  PHE26      -0.0042
     43  CE1       -3.4960   -5.2340   30.7640 C.ar   26  PHE26      -0.0003
     44  CE2       -2.2890   -3.5170   29.6070 C.ar   26  PHE26      -0.0003
     45  CZ        -3.4340   -3.9480   30.2590 C.ar   26  PHE26      -0.0000
     46  N         -4.1210   -7.6030   25.0630 N.3    30  VAL30      -0.1245
     47  CA        -5.0150   -6.5320   24.6370 C.3    30  VAL30       0.1561
     48  C         -5.1710   -6.4980   23.1200 C.2    30  VAL30       0.2260
     49  O         -6.2890   -6.4050   22.6060 O.2    30  VAL30      -0.2867
     50  CB        -4.5030   -5.1460   25.1070 C.3    30  VAL30       0.0252
     51  CG1       -5.3190   -4.0460   24.4570 C.3    30  VAL30       0.0019
     52  CG2       -4.6090   -5.0370   26.6260 C.3    30  VAL30       0.0019
     53  N         -7.1140   -9.4050   21.6830 N.3    33  LYS33      -0.1231
     54  CA        -8.5340   -9.2740   21.9510 C.3    33  LYS33       0.1693
     55  C         -9.1760   -8.3180   20.9550 C.2    33  LYS33       0.2591
     56  O        -10.3170   -8.5190   20.5410 O.2    33  LYS33      -0.2718
     57  CB        -8.7480   -8.7590   23.3760 C.3    33  LYS33       0.0285
     58  CG       -10.2040   -8.5370   23.7500 C.3    33  LYS33       0.0035
     59  CD       -10.9620   -9.8530   23.8460 C.3    33  LYS33       0.0206
     60  CE       -12.4450   -9.6120   24.0690 C.3    33  LYS33       0.1093
     61  NZ       -13.1670  -10.8660   24.4210 N.3    33  LYS33      -0.1314
     62  N         -8.4380   -7.2790   20.5660 N.am   34  LEU34      -0.1980
     63  CA        -8.9770   -6.2500   19.6810 C.3    34  LEU34       0.1596
     64  C         -8.5730   -6.4400   18.2210 C.2    34  LEU34       0.2287
     65  O         -8.6740   -5.5150   17.4120 O.2    34  LEU34      -0.2864
     66  CB        -8.5450   -4.8640   20.1670 C.3    34  LEU34       0.0297
     67  CG        -9.1840   -4.4440   21.4920 C.3    34  LEU34       0.0022
     68  CD1       -8.5170   -3.1880   22.0140 C.3    34  LEU34       0.0001
     69  CD2      -10.6760   -4.2120   21.2790 C.3    34  LEU34       0.0001
     70  N         -9.4990   -0.6600   15.9230 N.3    39  TYR39      -0.1241
     71  CA        -8.3100   -0.2700   16.6770 C.3    39  TYR39       0.1605
     72  C         -7.0300   -0.3990   15.8520 C.2    39  TYR39       0.2264
     73  O         -6.8600   -1.3490   15.0860 O.2    39  TYR39      -0.2867
     74  CB        -8.1800   -1.1280   17.9410 C.3    39  TYR39       0.0534
     75  CG        -8.9350   -0.5770   19.1230 C.ar   39  TYR39      -0.0201
     76  CD1      -10.3210   -0.6050   19.1590 C.ar   39  TYR39      -0.0009
     77  CD2       -8.2620   -0.0120   20.1980 C.ar   39  TYR39      -0.0009
     78  CE1      -11.0190   -0.0840   20.2320 C.ar   39  TYR39       0.0417
     79  CE2       -8.9480    0.5090   21.2740 C.ar   39  TYR39       0.0417
     80  CZ       -10.3280    0.4710   21.2860 C.ar   39  TYR39       0.1957
     81  OH       -11.0180    0.9880   22.3550 O.3    39  TYR39      -0.2866
     82  N         -9.7610    8.4020   17.5540 N.3   104  THR104     -0.1218
     83  CA        -9.5550    8.8630   18.9220 C.3   104  THR104      0.1862
     84  C         -8.1680    8.4380   19.3860 C.2   104  THR104      0.2287
     85  O         -7.7970    7.2780   19.2350 O.2   104  THR104     -0.2866
     86  CB       -10.6020    8.2540   19.8750 C.3   104  THR104      0.1770
     87  OG1      -11.9070    8.7020   19.4940 O.3   104  THR104     -0.2211
     88  CG2      -10.3190    8.6660   21.3170 C.3   104  THR104      0.0375
     89  N         -5.5320    7.3830   22.1210 N.3   106  VAL106     -0.1245
     90  CA        -5.4440    6.8100   23.4570 C.3   106  VAL106      0.1561
     91  C         -4.0030    6.4230   23.7640 C.2   106  VAL106      0.2260
     92  O         -3.3260    5.8070   22.9390 O.2   106  VAL106     -0.2867
     93  CB        -6.3380    5.5590   23.5900 C.3   106  VAL106      0.0252
     94  CG1       -6.0890    4.8770   24.9280 C.3   106  VAL106      0.0019
     95  CG2       -7.8000    5.9530   23.4690 C.3   106  VAL106      0.0019
     96  N         -1.6730    4.4970   26.7180 N.3   108  ILE108     -0.1245
     97  CA        -1.6430    3.6590   27.9120 C.3   108  ILE108      0.1561
     98  C         -0.2020    3.6330   28.4230 C.2   108  ILE108      0.2260
     99  O          0.6870    3.1030   27.7570 O.2   108  ILE108     -0.2867
    100  CB        -2.0800    2.2000   27.5910 C.3   108  ILE108      0.0252
    101  CG1       -3.4400    2.1860   26.8750 C.3   108  ILE108      0.0019
    102  CG2       -2.1510    1.3810   28.8740 C.3   108  ILE108      0.0019
    103  CD1       -4.5780    2.8510   27.6550 C.3   108  ILE108      0.0001
    104  N         -6.3800   10.8610   25.3670 N.3   128  ILE128     -0.1245
    105  CA        -6.9610   10.1500   26.4960 C.3   128  ILE128      0.1561
    106  C         -5.8660    9.2890   27.1070 C.2   128  ILE128      0.2260
    107  O         -5.3450    8.3830   26.4570 O.2   128  ILE128     -0.2867
    108  CB        -8.1360    9.2630   26.0390 C.3   128  ILE128      0.0252
    109  CG1       -9.2980   10.1520   25.5930 C.3   128  ILE128      0.0019
    110  CG2       -8.5570    8.3190   27.1560 C.3   128  ILE128      0.0019
    111  CD1      -10.4940    9.3840   25.0990 C.3   128  ILE128      0.0001
    112  N         -4.3590    6.8640   30.1220 N.3   130  TYR130     -0.1241
    113  CA        -4.3800    5.9900   31.2920 C.3   130  TYR130      0.1605
    114  C         -2.9430    5.7580   31.7200 C.2   130  TYR130      0.2264
    115  O         -2.0440    5.6880   30.8790 O.2   130  TYR130     -0.2867
    116  CB        -5.0110    4.6340   30.9560 C.3   130  TYR130      0.0534
    117  CG        -6.5140    4.6390   30.8510 C.ar  130  TYR130     -0.0201
    118  CD1       -7.3040    4.3700   31.9590 C.ar  130  TYR130     -0.0009
    119  CD2       -7.1480    4.8960   29.6380 C.ar  130  TYR130     -0.0009
    120  CE1       -8.6870    4.3510   31.8680 C.ar  130  TYR130      0.0417
    121  CE2       -8.5300    4.8860   29.5370 C.ar  130  TYR130      0.0417
    122  CZ        -9.2940    4.6130   30.6560 C.ar  130  TYR130      0.1957
    123  OH       -10.6740    4.6340   30.5750 O.3   130  TYR130     -0.2866
    124  N         -0.8190    3.0100   34.3230 N.3   132  ILE132     -0.1245
    125  CA        -0.8300    1.8570   35.2090 C.3   132  ILE132      0.1561
    126  C          0.4480    1.8730   36.0420 C.2   132  ILE132      0.2260
    127  O          1.5390    1.6480   35.5230 O.2   132  ILE132     -0.2867
    128  CB        -0.9020    0.5420   34.3950 C.3   132  ILE132      0.0252
    129  CG1       -2.1570    0.5510   33.5160 C.3   132  ILE132      0.0019
    130  CG2       -0.9390   -0.6610   35.3360 C.3   132  ILE132      0.0019
    131  CD1       -2.1960   -0.5630   32.4760 C.3   132  ILE132      0.0001
    132  N        -10.6100    7.0990   37.4420 N.3   157  GLU157     -0.1231
    133  CA       -10.8240    6.2760   36.2600 C.3   157  GLU157      0.1699
    134  C         -9.5230    5.9720   35.5260 C.2   157  GLU157      0.2592
    135  O         -9.3050    4.8470   35.0830 O.2   157  GLU157     -0.2718
    136  CB       -11.8010    6.9630   35.3010 C.3   157  GLU157      0.0402
    137  CG       -11.7960    6.3960   33.8820 C.3   157  GLU157      0.1161
    138  CD       -12.2980    4.9610   33.8080 C.2   157  GLU157      0.3649
    139  OE1      -12.9210    4.4830   34.7800 O.co2 157  GLU157     -0.2457
    140  OE2      -12.0680    4.3090   32.7720 O.co2 157  GLU157     -0.2457
    141  N         -8.6580    6.9740   35.4030 N.am  158  PHE158     -0.1976
    142  CA        -7.5410    6.8870   34.4730 C.3   158  PHE158      0.1639
    143  C         -6.1970    6.4970   35.0820 C.2   158  PHE158      0.2290
    144  O         -5.2220    6.2840   34.3600 O.2   158  PHE158     -0.2864
    145  CB        -7.4200    8.2070   33.7140 C.3   158  PHE158      0.0560
    146  CG        -8.5920    8.4780   32.8220 C.ar  158  PHE158     -0.0200
    147  CD1       -8.7200    7.8180   31.6100 C.ar  158  PHE158     -0.0042
    148  CD2       -9.5870    9.3610   33.2090 C.ar  158  PHE158     -0.0042
    149  CE1       -9.8250    8.0320   30.8000 C.ar  158  PHE158     -0.0003
    150  CE2      -10.6920    9.5800   32.4070 C.ar  158  PHE158     -0.0003
    151  CZ       -10.8160    8.9170   31.2020 C.ar  158  PHE158     -0.0000
    152  N         -4.5360    3.4940   37.2610 N.3   160  LYS160     -0.1245
    153  CA        -4.7060    2.1520   37.8070 C.3   160  LYS160      0.1561
    154  C         -3.4800    1.8180   38.6510 C.2   160  LYS160      0.2260
    155  O         -2.3480    2.0220   38.2180 O.2   160  LYS160     -0.2867
    156  CB        -4.8380    1.1140   36.6800 C.3   160  LYS160      0.0271
    157  CG        -5.7980    1.4830   35.5570 C.3   160  LYS160      0.0035
    158  CD        -7.2340    1.5810   36.0390 C.3   160  LYS160      0.0206
    159  CE        -8.1900    1.7670   34.8640 C.3   160  LYS160      0.1093
    160  NZ        -9.5980    1.9690   35.3060 N.3   160  LYS160     -0.1314
    161  N         -6.0650   -7.2980   35.5600 N.3   171  LEU171     -0.1231
    162  CA        -6.5050   -6.0400   34.9720 C.3   171  LEU171      0.1693
    163  C         -7.0410   -6.2870   33.5720 C.2   171  LEU171      0.2592
    164  O         -8.0210   -5.6710   33.1560 O.2   171  LEU171     -0.2718
    165  CB        -5.3510   -5.0350   34.9050 C.3   171  LEU171      0.0284
    166  CG        -5.6670   -3.7330   34.1600 C.3   171  LEU171      0.0019
    167  CD1       -6.8350   -3.0210   34.8240 C.3   171  LEU171      0.0001
    168  CD2       -4.4370   -2.8450   34.1480 C.3   171  LEU171      0.0001
    169  N         -6.3980   -7.1910   32.8460 N.am  172  PHE172     -0.1976
    170  CA        -6.8410   -7.5010   31.4970 C.3   172  PHE172      0.1639
    171  C         -8.2300   -8.1250   31.5260 C.2   172  PHE172      0.2290
    172  O         -9.0880   -7.7960   30.7060 O.2   172  PHE172     -0.2864
    173  CB        -5.8700   -8.4620   30.8130 C.3   172  PHE172      0.0560
    174  CG        -6.3510   -8.9400   29.4750 C.ar  172  PHE172     -0.0200
    175  CD1       -6.5820   -8.0390   28.4470 C.ar  172  PHE172     -0.0042
    176  CD2       -6.5950  -10.2830   29.2500 C.ar  172  PHE172     -0.0042
    177  CE1       -7.0480   -8.4680   27.2220 C.ar  172  PHE172     -0.0003
    178  CE2       -7.0610  -10.7190   28.0220 C.ar  172  PHE172     -0.0003
    179  CZ        -7.2880   -9.8090   27.0090 C.ar  172  PHE172     -0.0000
    180  N        -10.6020   -5.3930   31.9930 N.3   175  LEU175     -0.1245
    181  CA       -10.6760   -4.5480   30.8010 C.3   175  LEU175      0.1561
    182  C        -11.4520   -5.2380   29.6860 C.2   175  LEU175      0.2260
    183  O        -12.1990   -4.5960   28.9470 O.2   175  LEU175     -0.2867
    184  CB        -9.2740   -4.2230   30.2900 C.3   175  LEU175      0.0270
    185  CG        -8.3750   -3.3510   31.1620 C.3   175  LEU175      0.0019
    186  CD1       -7.0170   -3.2240   30.4930 C.3   175  LEU175      0.0001
    187  CD2       -9.0050   -1.9800   31.3560 C.3   175  LEU175      0.0001
    188  N        -15.1250   -4.3410   29.5210 N.3   178  LYS178     -0.1231
    189  CA       -15.5150   -2.9950   29.1040 C.3   178  LYS178      0.1693
    190  C        -15.6070   -2.8610   27.5890 C.2   178  LYS178      0.2591
    191  O        -15.9690   -1.8070   27.0710 O.2   178  LYS178     -0.2718
    192  CB       -14.5280   -1.9600   29.6550 C.3   178  LYS178      0.0285
    193  CG       -14.3810   -2.0070   31.1640 C.3   178  LYS178      0.0035
    194  CD       -13.6290   -0.8120   31.7220 C.3   178  LYS178      0.0206
    195  CE       -13.0110   -1.1490   33.0720 C.3   178  LYS178      0.1093
    196  NZ       -13.0960   -0.0180   34.0390 N.3   178  LYS178     -0.1314
    197  N        -15.2810   -3.9310   26.8760 N.am  179  ILE179     -0.1980
    198  CA       -15.2950   -3.9010   25.4200 C.3   179  ILE179      0.1595
    199  C        -16.7240   -4.0650   24.9080 C.2   179  ILE179      0.2287
    200  O        -17.3540   -5.0990   25.1210 O.2   179  ILE179     -0.2864
    201  CB       -14.4220   -5.0270   24.8410 C.3   179  ILE179      0.0276
    202  CG1      -12.9960   -4.9040   25.3730 C.3   179  ILE179      0.0022
    203  CG2      -14.4210   -4.9510   23.3260 C.3   179  ILE179      0.0022
    204  CD1      -12.1070   -6.0620   24.9920 C.3   179  ILE179      0.0001
@<TRIPOS>BOND
     1    73    72    2
     2    72    71    1
     3    70    71    1
     4    71    74    1
     5     3     4    2
     6     3     2    1
     7     9    10    1
     8    12    11    2
     9    65    64    2
    10     2     5    1
    11     2     1    1
    12    82    83    1
    13    11    10    1
    14     5     6    1
    15    74    75    1
    16    10    13    1
    17    64    63    1
    18    83    84    1
    19    83    86    1
    20     6     7    1
    21    75    76   ar
    22    75    77   ar
    23    76    78   ar
    24     7     8    1
    25    85    84    2
    26    13    15    1
    27    13    14    1
    28    16    17    1
    29    87    86    1
    30    63    66    1
    31    63    62    1
    32    86    88    1
    33    66    67    1
    34    19    18    2
    35    77    79   ar
    36    78    80   ar
    37    56    55    2
    38    62    55   am
    39    17    18    1
    40    17    20    1
    41    55    54    1
    42    79    80   ar
    43    69    67    1
    44    80    81    1
    45    67    68    1
    46    20    21    1
    47    53    54    1
    48    54    57    1
    49    89    90    1
    50    49    48    2
    51    92    91    2
    52    21    23    1
    53    21    22    1
    54    33    31   ar
    55    33    34   ar
    56    48    47    1
    57    31    29   ar
    58   203   201    1
    59    57    58    1
    60    24    25    1
    61    90    93    1
    62    90    91    1
    63    95    93    1
    64    93    94    1
    65    58    59    1
    66    59    60    1
    67    27    26    2
    68    60    61    1
    69    34    32   ar
    70    51    50    1
    71    29    28    1
    72    29    30   ar
    73    47    46    1
    74    47    50    1
    75    25    28    1
    76    25    26    1
    77   201   202    1
    78   201   198    1
    79   199   200    2
    80   199   198    1
    81   204   202    1
    82   111   109    1
    83    50    52    1
    84    32    30   ar
    85   104   105    1
    86   198   197    1
    87   109   108    1
    88   108   105    1
    89   108   110    1
    90   107   106    2
    91   105   106    1
    92    96    97    1
    93   101   100    1
    94   101   103    1
    95   197   190   am
    96    38    37    2
    97   179   177   ar
    98   179   178   ar
    99   191   190    2
   100   177   175   ar
   101    37    36    1
   102   190   189    1
   103   100    97    1
   104   100   102    1
   105    99    98    2
   106    97    98    1
   107   178   176   ar
   108   175   174   ar
   109    35    36    1
   110    36    39    1
   111   183   182    2
   112   189   188    1
   113   189   192    1
   114   176   174   ar
   115    42    44   ar
   116    42    40   ar
   117   174   173    1
   118   121   119   ar
   119   121   122   ar
   120    44    45   ar
   121   119   117   ar
   122   192   193    1
   123   182   181    1
   124    39    40    1
   125    40    41   ar
   126   112   113    1
   127    45    43   ar
   128   184   181    1
   129   184   185    1
   130   186   185    1
   131   123   122    1
   132    41    43   ar
   133   122   120   ar
   134   172   171    2
   135   149   151   ar
   136   149   147   ar
   137   181   180    1
   138   173   170    1
   139   117   116    1
   140   117   118   ar
   141   115   114    2
   142   116   113    1
   143   185   187    1
   144   193   194    1
   145   151   150   ar
   146   113   114    1
   147   170   171    1
   148   170   169    1
   149   147   146   ar
   150   194   195    1
   151   120   118   ar
   152   150   148   ar
   153   131   129    1
   154   140   138   ar
   155   146   148   ar
   156   146   145    1
   157   169   163   am
   158   195   196    1
   159   164   163    2
   160   129   128    1
   161   163   162    1
   162   145   142    1
   163   138   137    1
   164   138   139   ar
   165   137   136    1
   166   168   166    1
   167   166   167    1
   168   166   165    1
   169   124   125    1
   170   144   143    2
   171   128   125    1
   172   128   130    1
   173   142   143    1
   174   142   141    1
   175   159   160    1
   176   159   158    1
   177   165   162    1
   178   162   161    1
   179   135   134    2
   180   125   126    1
   181   136   133    1
   182   141   134   am
   183   127   126    2
   184   134   133    1
   185   157   158    1
   186   157   156    1
   187   133   132    1
   188   156   153    1
   189   152   153    1
   190   153   154    1
   191   155   154    2
