@<TRIPOS>MOLECULE
tmp/3m6gA01.pdb
 143 137 0 0 0
SMALL
GASTEIGER

@<TRIPOS>ATOM
      1  N         -3.3300  -33.4260  -50.5050 N.3   115  TYR115     -0.1241
      2  CA        -4.7460  -33.6780  -50.3610 C.3   115  TYR115      0.1605
      3  C         -5.4370  -32.3220  -50.3930 C.2   115  TYR115      0.2264
      4  O         -4.8660  -31.3280  -49.9430 O.2   115  TYR115     -0.2867
      5  CB        -5.0090  -34.3970  -49.0350 C.3   115  TYR115      0.0534
      6  CG        -6.4360  -34.8480  -48.8120 C.ar  115  TYR115     -0.0201
      7  CD1       -6.9040  -36.0490  -49.3460 C.ar  115  TYR115     -0.0009
      8  CD2       -7.3060  -34.0850  -48.0250 C.ar  115  TYR115     -0.0009
      9  CE1       -8.2290  -36.4620  -49.1350 C.ar  115  TYR115      0.0417
     10  CE2       -8.6160  -34.4840  -47.7980 C.ar  115  TYR115      0.0417
     11  CZ        -9.0740  -35.6700  -48.3470 C.ar  115  TYR115      0.1957
     12  OH       -10.3740  -36.0530  -48.0880 O.3   115  TYR115     -0.2866
     13  N        -15.2240  -30.9550  -38.8670 N.3   125  TYR125     -0.1227
     14  CA       -14.3180  -31.8890  -38.2030 C.3   125  TYR125      0.1736
     15  C        -13.7030  -31.2880  -36.9330 C.2   125  TYR125      0.2595
     16  O        -13.6720  -31.9360  -35.8770 O.2   125  TYR125     -0.2718
     17  CB       -13.2050  -32.3150  -39.1710 C.3   125  TYR125      0.0548
     18  CG       -13.6560  -33.1540  -40.3410 C.ar  125  TYR125     -0.0200
     19  CD1      -14.9340  -33.7300  -40.3650 C.ar  125  TYR125     -0.0009
     20  CD2      -12.7880  -33.4180  -41.4150 C.ar  125  TYR125     -0.0009
     21  CE1      -15.3410  -34.5230  -41.4260 C.ar  125  TYR125      0.0417
     22  CE2      -13.1980  -34.2120  -42.4950 C.ar  125  TYR125      0.0417
     23  CZ       -14.4680  -34.7620  -42.4820 C.ar  125  TYR125      0.1957
     24  OH       -14.9110  -35.5540  -43.5200 O.3   125  TYR125     -0.2866
     25  N        -13.2520  -30.0410  -37.0200 N.am  126  ALA126     -0.1966
     26  CA       -12.6470  -29.3730  -35.8640 C.3   126  ALA126      0.1728
     27  C        -13.6120  -29.2340  -34.6610 C.2   126  ALA126      0.2617
     28  O        -13.1550  -29.1030  -33.5020 O.2   126  ALA126     -0.2715
     29  CB       -12.0820  -27.9940  -36.2610 C.3   126  ALA126      0.0334
     30  N        -14.9220  -29.2450  -34.9320 N.am  127  SER127     -0.1936
     31  CA       -15.9480  -29.2090  -33.8720 C.3   127  SER127      0.2055
     32  C        -16.2860  -30.6190  -33.3630 C.2   127  SER127      0.2644
     33  O        -17.1550  -30.7740  -32.5100 O.2   127  SER127     -0.2714
     34  CB       -17.2450  -28.5210  -34.3600 C.3   127  SER127      0.2130
     35  OG       -17.9670  -29.3800  -35.2550 O.3   127  SER127     -0.2179
     36  N        -15.6060  -31.6320  -33.8970 N.am  128  GLY128     -0.1939
     37  CA       -15.8040  -33.0320  -33.4910 C.3   128  GLY128      0.2014
     38  C        -17.0220  -33.7120  -34.1050 C.2   128  GLY128      0.2639
     39  O        -17.5420  -34.6670  -33.5250 O.2   128  GLY128     -0.2714
     40  N        -17.4860  -33.2230  -35.2670 N.am  129  ARG129     -0.1963
     41  CA       -18.6820  -33.7720  -35.9490 C.3   129  ARG129      0.1729
     42  C        -18.3740  -34.1940  -37.3820 C.2   129  ARG129      0.2616
     43  O        -17.4820  -33.6410  -38.0020 O.2   129  ARG129     -0.2715
     44  CB       -19.7530  -32.6730  -36.0820 C.3   129  ARG129      0.0348
     45  CG       -20.4880  -32.3830  -34.8340 C.3   129  ARG129      0.0492
     46  CD       -20.7180  -30.9190  -34.6740 C.3   129  ARG129      0.2205
     47  NE       -21.5390  -30.7220  -33.4880 N.pl3 129  ARG129     -0.0865
     48  CZ       -21.0850  -30.3120  -32.3240 C.cat 129  ARG129      0.5346
     49  NH1      -19.8040  -30.0030  -32.1640 N.pl3 129  ARG129      0.1354
     50  NH2      -21.9330  -30.1690  -31.3200 N.pl3 129  ARG129      0.1354
     51  N        -19.1740  -35.0950  -37.9470 N.am  130  THR130     -0.1951
     52  CA       -19.1050  -35.3330  -39.4030 C.3   130  THR130      0.1897
     53  C        -20.4450  -35.0570  -40.1040 C.2   130  THR130      0.2313
     54  O        -20.5440  -35.1450  -41.3310 O.2   130  THR130     -0.2863
     55  CB       -18.6170  -36.7570  -39.7520 C.3   130  THR130      0.1794
     56  OG1      -19.4940  -37.6920  -39.1380 O.3   130  THR130     -0.2208
     57  CG2      -17.1960  -37.0030  -39.2230 C.3   130  THR130      0.0378
     58  N        -22.2740  -37.0520  -42.9840 N.3   149  GLU149     -0.1231
     59  CA       -21.1810  -38.0190  -42.8080 C.3   149  GLU149      0.1699
     60  C        -19.9600  -37.6920  -43.6700 C.2   149  GLU149      0.2592
     61  O        -19.4400  -38.5580  -44.3670 O.2   149  GLU149     -0.2718
     62  CB       -21.6910  -39.4380  -43.0680 C.3   149  GLU149      0.0402
     63  CG       -22.9080  -39.7830  -42.2040 C.3   149  GLU149      0.1161
     64  CD       -23.3450  -41.2290  -42.3140 C.2   149  GLU149      0.3649
     65  OE1      -23.4810  -41.7330  -43.4430 O.co2 149  GLU149     -0.2457
     66  OE2      -23.5890  -41.8650  -41.2600 O.co2 149  GLU149     -0.2457
     67  N        -19.5090  -36.4390  -43.6250 N.am  150  GLY150     -0.1957
     68  CA       -18.3100  -36.0210  -44.3500 C.3   150  GLY150      0.1869
     69  C        -18.5470  -35.4580  -45.7400 C.2   150  GLY150      0.2309
     70  O        -17.6950  -34.7720  -46.2960 O.2   150  GLY150     -0.2863
     71  N        -23.1740  -24.0100  -32.6020 N.3   312  ILE312     -0.1245
     72  CA       -21.8600  -24.2220  -32.0260 C.3   312  ILE312      0.1561
     73  C        -20.9340  -23.1320  -32.5610 C.2   312  ILE312      0.2260
     74  O        -20.7150  -23.0320  -33.7720 O.2   312  ILE312     -0.2867
     75  CB       -21.3280  -25.6240  -32.3400 C.3   312  ILE312      0.0252
     76  CG1      -22.2650  -26.7060  -31.7570 C.3   312  ILE312      0.0019
     77  CG2      -19.8970  -25.8020  -31.7980 C.3   312  ILE312      0.0019
     78  CD1      -23.1990  -27.3900  -32.8030 C.3   312  ILE312      0.0001
     79  N        -17.2120  -22.1130  -31.8060 N.3   314  PRO314     -0.2116
     80  CA       -15.9360  -22.2820  -31.0990 C.3   314  PRO314      0.1372
     81  C        -15.1740  -20.9580  -30.9350 C.2   314  PRO314      0.2244
     82  O        -15.1890  -20.1220  -31.8380 O.2   314  PRO314     -0.2868
     83  CB       -15.1580  -23.2730  -31.9960 C.3   314  PRO314      0.0268
     84  CG       -16.2280  -24.0170  -32.7480 C.3   314  PRO314      0.0207
     85  CD       -17.3050  -22.9870  -32.9970 C.3   314  PRO314      0.0892
     86  N         -7.4460  -25.6860  -38.2560 N.3   323  ILE323     -0.1245
     87  CA        -7.4010  -26.6560  -37.1520 C.3   323  ILE323      0.1561
     88  C         -7.9330  -28.0020  -37.5800 C.2   323  ILE323      0.2260
     89  O         -7.3460  -29.0660  -37.2900 O.2   323  ILE323     -0.2867
     90  CB        -8.1750  -26.1060  -35.9020 C.3   323  ILE323      0.0252
     91  CG1       -7.3730  -24.9420  -35.2890 C.3   323  ILE323      0.0019
     92  CG2       -8.4350  -27.2280  -34.8760 C.3   323  ILE323      0.0019
     93  CD1       -8.1900  -24.0030  -34.3230 C.3   323  ILE323      0.0001
     94  N         -5.8650  -31.5730  -37.4590 N.3   327  ILE327     -0.1231
     95  CA        -6.3870  -32.7990  -36.8930 C.3   327  ILE327      0.1692
     96  C         -6.4210  -33.8800  -37.9680 C.2   327  ILE327      0.2591
     97  O         -5.8390  -34.9520  -37.7800 O.2   327  ILE327     -0.2718
     98  CB        -7.8100  -32.5920  -36.3070 C.3   327  ILE327      0.0266
     99  CG1       -7.7490  -31.6000  -35.1160 C.3   327  ILE327      0.0019
    100  CG2       -8.4600  -33.9380  -35.9510 C.3   327  ILE327      0.0020
    101  CD1       -9.0960  -31.0020  -34.7330 C.3   327  ILE327      0.0001
    102  N         -7.0870  -33.5990  -39.0910 N.am  328  LEU328     -0.1980
    103  CA        -7.2280  -34.6090  -40.1420 C.3   328  LEU328      0.1596
    104  C         -5.8930  -35.2080  -40.5870 C.2   328  LEU328      0.2287
    105  O         -5.7420  -36.4230  -40.6050 O.2   328  LEU328     -0.2864
    106  CB        -7.9770  -34.0370  -41.3540 C.3   328  LEU328      0.0297
    107  CG        -8.2670  -34.9730  -42.5430 C.3   328  LEU328      0.0022
    108  CD1       -9.2040  -36.1400  -42.1530 C.3   328  LEU328      0.0001
    109  CD2       -8.8610  -34.1510  -43.6340 C.3   328  LEU328      0.0001
    110  N         -4.2270  -37.9010  -38.2310 N.3   331  LEU331     -0.1245
    111  CA        -4.8610  -39.2050  -37.9760 C.3   331  LEU331      0.1561
    112  C         -4.1860  -40.3610  -38.7120 C.2   331  LEU331      0.2260
    113  O         -3.8730  -40.2620  -39.9010 O.2   331  LEU331     -0.2867
    114  CB        -6.3490  -39.1660  -38.3510 C.3   331  LEU331      0.0270
    115  CG        -7.2410  -38.1020  -37.6830 C.3   331  LEU331      0.0019
    116  CD1       -8.6740  -38.2260  -38.2000 C.3   331  LEU331      0.0001
    117  CD2       -7.2050  -38.2460  -36.1640 C.3   331  LEU331      0.0001
    118  N         -5.6120  -43.0420  -39.5070 N.3   333  THR333     -0.1203
    119  CA        -6.6170  -43.4480  -40.4960 C.3   333  THR333      0.1994
    120  C         -6.6090  -42.5640  -41.7430 C.2   333  THR333      0.2617
    121  O         -7.1160  -42.9770  -42.7900 O.2   333  THR333     -0.2717
    122  CB        -8.0390  -43.4350  -39.9130 C.3   333  THR333      0.1784
    123  OG1       -8.3070  -42.1250  -39.4000 O.3   333  THR333     -0.2211
    124  CG2       -8.1690  -44.4530  -38.7890 C.3   333  THR333      0.0376
    125  N         -6.0350  -41.3580  -41.6460 N.am  334  PHE334     -0.1975
    126  CA        -5.9330  -40.4670  -42.8220 C.3   334  PHE334      0.1639
    127  C         -4.7480  -40.7900  -43.7440 C.2   334  PHE334      0.2290
    128  O         -4.7540  -40.4060  -44.9080 O.2   334  PHE334     -0.2864
    129  CB        -5.8550  -38.9970  -42.3920 C.3   334  PHE334      0.0560
    130  CG        -5.7290  -38.0320  -43.5330 C.ar  334  PHE334     -0.0200
    131  CD1       -6.8210  -37.7680  -44.3600 C.ar  334  PHE334     -0.0042
    132  CD2       -4.5200  -37.3860  -43.7890 C.ar  334  PHE334     -0.0042
    133  CE1       -6.7170  -36.8700  -45.4250 C.ar  334  PHE334     -0.0003
    134  CE2       -4.3970  -36.5010  -44.8540 C.ar  334  PHE334     -0.0003
    135  CZ        -5.5130  -36.2410  -45.6790 C.ar  334  PHE334     -0.0000
    136  N         -5.0750  -41.8320  -47.2610 N.3   337  MET337     -0.1245
    137  CA        -5.8220  -40.9140  -48.1380 C.3   337  MET337      0.1570
    138  C         -4.9510  -39.9030  -48.8800 C.2   337  MET337      0.2261
    139  O         -5.4020  -39.2940  -49.8550 O.2   337  MET337     -0.2867
    140  CB        -6.9300  -40.1760  -47.3720 C.3   337  MET337      0.0387
    141  CG        -7.8530  -41.0770  -46.5650 C.3   337  MET337      0.0595
    142  SD        -9.2940  -40.1710  -45.9520 S.3   337  MET337     -0.1393
    143  CE       -10.2640  -40.0420  -47.4360 C.3   337  MET337      0.0692
@<TRIPOS>BOND
     1     1     2    1
     2     3     2    1
     3     3     4    2
     4     2     5    1
     5   139   138    2
     6     7     9   ar
     7     7     6   ar
     8     9    11   ar
     9     5     6    1
    10   138   137    1
    11     6     8   ar
    12    11    12    1
    13    11    10   ar
    14   137   140    1
    15   137   136    1
    16     8    10   ar
    17   143   142    1
    18   140   141    1
    19   141   142    1
    20    70    69    2
    21    69    68    1
    22   135   133   ar
    23   135   134   ar
    24   133   131   ar
    25   128   127    2
    26   134   132   ar
    27    61    60    2
    28   131   130   ar
    29    68    67    1
    30   132   130   ar
    31   127   126    1
    32    60    67   am
    33    60    59    1
    34   109   107    1
    35   130   129    1
    36    24    23    1
    37    65    64   ar
    38    62    59    1
    39    62    63    1
    40    58    59    1
    41   126   129    1
    42   126   125    1
    43   121   120    2
    44   107   108    1
    45   107   106    1
    46    22    23   ar
    47    22    20   ar
    48    23    21   ar
    49    64    63    1
    50    64    66   ar
    51   120   125   am
    52   120   119    1
    53    21    19   ar
    54    20    18   ar
    55   106   103    1
    56    54    53    2
    57   105   104    2
    58   104   103    1
    59   119   122    1
    60   119   118    1
    61    19    18   ar
    62    18    17    1
    63   103   102    1
    64    53    52    1
    65   122   123    1
    66   122   124    1
    67   113   112    2
    68    55    52    1
    69    55    57    1
    70    55    56    1
    71    52    51    1
    72    17    14    1
    73   102    96   am
    74    13    14    1
    75   112   111    1
    76   114   111    1
    77   114   115    1
    78    86    87    1
    79   110   111    1
    80    14    15    1
    81   116   115    1
    82    43    42    2
    83    96    97    2
    84    96    95    1
    85    51    42   am
    86   115   117    1
    87    88    89    2
    88    88    87    1
    89    94    95    1
    90    42    41    1
    91    87    90    1
    92    25    15   am
    93    25    26    1
    94    15    16    2
    95    95    98    1
    96    98   100    1
    97    98    99    1
    98    29    26    1
    99    44    41    1
   100    44    45    1
   101    41    40    1
   102    90    91    1
   103    90    92    1
   104    26    27    1
   105    91    93    1
   106    40    38   am
   107    35    34    1
   108    99   101    1
   109    30    27   am
   110    30    31    1
   111    45    46    1
   112    46    47    1
   113    27    28    2
   114    34    31    1
   115    38    39    2
   116    38    37    1
   117    36    37    1
   118    36    32   am
   119    31    32    1
   120    74    73    2
   121    47    48    2
   122    32    33    2
   123    85    84    1
   124    85    79    1
   125    78    76    1
   126    84    83    1
   127    71    72    1
   128    73    72    1
   129    75    72    1
   130    75    77    1
   131    75    76    1
   132    48    49    1
   133    48    50    1
   134    83    80    1
   135    82    81    2
   136    79    80    1
   137    80    81    1
