@<TRIPOS>MOLECULE
tmp/3m6hA00.pdb
 137 129 0 0 0
SMALL
GASTEIGER

@<TRIPOS>ATOM
      1  N        -14.9900  -11.0890    5.7040 N.3    42  SER42      -0.1217
      2  CA       -14.5040  -10.7930    7.0570 C.3    42  SER42       0.1889
      3  C        -15.4110   -9.9110    7.8810 C.2    42  SER42       0.2288
      4  O        -15.1060   -9.6600    9.0410 O.2    42  SER42      -0.2866
      5  CB       -13.1590  -10.0850    6.9910 C.3    42  SER42       0.2089
      6  OG       -12.1340  -11.0060    6.6150 O.3    42  SER42      -0.2183
      7  N        -16.4390  -10.7640   11.5220 N.3    45  LYS45      -0.1245
      8  CA       -15.5100  -10.6040   12.6520 C.3    45  LYS45       0.1561
      9  C        -15.9260   -9.5290   13.6450 C.2    45  LYS45       0.2260
     10  O        -15.5470   -9.6050   14.8120 O.2    45  LYS45      -0.2867
     11  CB       -14.0760  -10.3440   12.1710 C.3    45  LYS45       0.0271
     12  CG       -13.4770  -11.5330   11.4120 C.3    45  LYS45       0.0035
     13  CD       -12.2280  -11.1260   10.6650 C.3    45  LYS45       0.0206
     14  CE       -11.8360  -12.1910    9.6710 C.3    45  LYS45       0.1093
     15  NZ       -10.6480  -11.7190    8.9370 N.3    45  LYS45      -0.1314
     16  N         -4.9870  -19.0080    6.3740 N.3    74  SER74      -0.1202
     17  CA        -5.6100  -17.8870    5.6810 C.3    74  SER74       0.2020
     18  C         -4.7530  -16.6240    5.9310 C.2    74  SER74       0.2619
     19  O         -3.8090  -16.6660    6.7260 O.2    74  SER74      -0.2717
     20  CB        -7.0460  -17.6950    6.2030 C.3    74  SER74       0.2103
     21  OG        -7.0410  -17.3850    7.6000 O.3    74  SER74      -0.2182
     22  N         -5.0750  -15.5320    5.2350 N.am   75  ILE75      -0.1965
     23  CA        -4.4230  -14.2240    5.4330 C.3    75  ILE75       0.1727
     24  C         -4.4660  -13.8630    6.9220 C.2    75  ILE75       0.2617
     25  O         -5.5530  -13.7730    7.5140 O.2    75  ILE75      -0.2715
     26  CB        -5.0860  -13.1140    4.5510 C.3    75  ILE75       0.0290
     27  CG1       -4.7680  -13.3540    3.0710 C.3    75  ILE75       0.0022
     28  CG2       -4.5680  -11.6850    4.9490 C.3    75  ILE75       0.0023
     29  CD1       -5.7430  -12.6880    2.0870 C.3    75  ILE75       0.0001
     30  N         -3.2790  -13.6970    7.5130 N.am   76  SER76      -0.1936
     31  CA        -3.1070  -13.5200    8.9630 C.3    76  SER76       0.2040
     32  C         -1.9140  -12.5820    9.2680 C.2    76  SER76       0.2485
     33  O         -0.8580  -13.0570    9.7500 O.2    76  SER76      -0.2729
     34  CB        -2.8540  -14.8840    9.6320 C.3    76  SER76       0.2129
     35  OG        -3.8840  -15.8130    9.3360 O.3    76  SER76      -0.2179
     36  N         -2.0680  -11.2690    9.0170 N.am   77  PRO77      -0.2726
     37  CA        -0.9260  -10.3390    9.0940 C.3    77  PRO77       0.1402
     38  C         -0.3210  -10.2440   10.4890 C.2    77  PRO77       0.2269
     39  O          0.8610   -9.9090   10.6270 O.2    77  PRO77      -0.2865
     40  CB        -1.5350   -8.9710    8.7090 C.3    77  PRO77       0.0296
     41  CG        -2.8720   -9.2910    8.0730 C.3    77  PRO77       0.0237
     42  CD        -3.3270  -10.5620    8.7210 C.3    77  PRO77       0.0939
     43  N          0.6660  -14.5450   12.1830 N.3    80  GLN80      -0.1245
     44  CA         1.9300  -15.0880   11.6460 C.3    80  GLN80       0.1566
     45  C          3.1490  -14.6000   12.4590 C.2    80  GLN80       0.2260
     46  O          4.0940  -15.3630   12.6770 O.2    80  GLN80      -0.2867
     47  CB         2.0830  -14.7920   10.1380 C.3    80  GLN80       0.0367
     48  CG         2.0770  -13.2970    9.7180 C.3    80  GLN80       0.0905
     49  CD         3.4670  -12.6710    9.6780 C.2    80  GLN80       0.2608
     50  OE1        4.4920  -13.3730    9.7100 O.2    80  GLN80      -0.2717
     51  NE2        3.5120  -11.3500    9.5880 N.am   80  GLN80      -0.0878
     52  N         -6.8040   -5.6890   11.6000 N.3    99  TYR99      -0.1227
     53  CA        -6.0210   -6.2430   10.4680 C.3    99  TYR99       0.1736
     54  C         -6.7480   -7.2980    9.6430 C.2    99  TYR99       0.2596
     55  O         -6.1970   -7.8120    8.6630 O.2    99  TYR99      -0.2718
     56  CB        -4.6660   -6.7790   10.9470 C.3    99  TYR99       0.0548
     57  CG        -3.7400   -5.6470   11.3390 C.ar   99  TYR99      -0.0200
     58  CD1       -3.6920   -5.1780   12.6600 C.ar   99  TYR99      -0.0009
     59  CD2       -2.9500   -5.0200   10.3830 C.ar   99  TYR99      -0.0009
     60  CE1       -2.8400   -4.1320   13.0160 C.ar   99  TYR99       0.0417
     61  CE2       -2.1030   -3.9620   10.7240 C.ar   99  TYR99       0.0417
     62  CZ        -2.0650   -3.5160   12.0340 C.ar   99  TYR99       0.1957
     63  OH        -1.2190   -2.4690   12.3550 O.3    99  TYR99      -0.2866
     64  N         -7.9850   -7.5900   10.0350 N.am  100  SER100     -0.1952
     65  CA        -8.8110   -8.6320    9.4230 C.3   100  SER100      0.1924
     66  C         -8.0460   -9.9470    9.3730 C.2   100  SER100      0.2314
     67  O         -8.0090  -10.6270    8.3500 O.2   100  SER100     -0.2863
     68  CB        -9.3200   -8.2210    8.0400 C.3   100  SER100      0.2116
     69  OG       -10.4430   -9.0300    7.6740 O.3   100  SER100     -0.2180
     70  N         -7.2520  -13.6240    9.6510 N.3   102  GLY102     -0.1225
     71  CA        -8.0950  -14.8250    9.5150 C.3   102  GLY102      0.1811
     72  C         -7.8780  -15.8870   10.5890 C.2   102  GLY102      0.2280
     73  O         -8.8310  -16.5190   11.0550 O.2   102  GLY102     -0.2866
     74  N        -12.3640  -19.7670    8.2900 N.3   140  GLU140     -0.1231
     75  CA       -11.3880  -19.3140    7.3040 C.3   140  GLU140      0.1684
     76  C        -10.5060  -20.4860    6.8520 C.2   140  GLU140      0.2434
     77  O        -10.1270  -21.3450    7.6740 O.2   140  GLU140     -0.2733
     78  CB       -10.5150  -18.1860    7.8880 C.3   140  GLU140      0.0402
     79  CG       -11.2870  -17.0050    8.4880 C.3   140  GLU140      0.1161
     80  CD       -11.6090  -15.9160    7.4720 C.2   140  GLU140      0.3649
     81  OE1      -11.6200  -16.1940    6.2540 O.co2 140  GLU140     -0.2457
     82  OE2      -11.8670  -14.7680    7.8920 O.co2 140  GLU140     -0.2457
     83  N        -10.1610  -20.5330    5.5490 N.am  141  PRO141     -0.2729
     84  CA       -10.5420  -19.6260    4.4610 C.3   141  PRO141      0.1401
     85  C        -11.8370  -20.0000    3.7070 C.2   141  PRO141      0.2269
     86  O        -12.2830  -19.2380    2.8410 O.2   141  PRO141     -0.2865
     87  CB        -9.3630  -19.7710    3.5050 C.3   141  PRO141      0.0296
     88  CG        -9.0200  -21.1980    3.6080 C.3   141  PRO141      0.0237
     89  CD        -9.2240  -21.5690    5.0650 C.3   141  PRO141      0.0939
     90  N        -15.1320  -17.6360    2.5880 N.3   144  ASN144     -0.1240
     91  CA       -15.0740  -16.6360    1.4940 C.3   144  ASN144      0.1653
     92  C        -15.2530  -17.2140    0.0690 C.2   144  ASN144      0.2266
     93  O        -15.2760  -16.4410   -0.9510 O.2   144  ASN144     -0.2867
     94  CB       -13.7220  -15.9160    1.5230 C.3   144  ASN144      0.1155
     95  CG       -13.3790  -15.3840    2.8960 C.2   144  ASN144      0.2627
     96  OD1      -13.9600  -14.3850    3.3540 O.2   144  ASN144     -0.2716
     97  ND2      -12.4360  -16.0470    3.5720 N.am  144  ASN144     -0.0877
     98  N         -7.7230   -1.3420    7.6780 N.3   190  THR190     -0.1218
     99  CA        -7.9500   -1.9200    6.3520 C.3   190  THR190      0.1862
    100  C         -8.9610   -1.1420    5.5040 C.2   190  THR190      0.2287
    101  O         -9.2250   -1.5330    4.3660 O.2   190  THR190     -0.2866
    102  CB        -8.4560   -3.3700    6.4510 C.3   190  THR190      0.1770
    103  OG1       -9.7520   -3.3640    7.0580 O.3   190  THR190     -0.2211
    104  CG2       -7.4810   -4.2790    7.2240 C.3   190  THR190      0.0375
    105  N        -12.5420    2.6370    1.4360 N.3   194  ARG194     -0.1245
    106  CA       -13.9110    2.1750    1.2630 C.3   194  ARG194      0.1563
    107  C        -14.9250    3.2150    1.7580 C.2   194  ARG194      0.2260
    108  O        -14.9960    4.3210    1.1960 O.2   194  ARG194     -0.2867
    109  CB       -14.0900    0.7390    1.8160 C.3   194  ARG194      0.0307
    110  CG       -13.1820   -0.2610    1.0410 C.3   194  ARG194      0.0489
    111  CD       -13.1160   -1.6780    1.6410 C.3   194  ARG194      0.2205
    112  NE       -12.1840   -2.5240    0.8880 N.pl3 194  ARG194     -0.0865
    113  CZ       -12.2660   -3.8530    0.7740 C.cat 194  ARG194      0.5346
    114  NH1      -11.3370   -4.5000    0.0810 N.pl3 194  ARG194      0.1354
    115  NH2      -13.2820   -4.5350    1.3200 N.pl3 194  ARG194      0.1354
    116  N        -14.0410   -4.3440    7.2750 N.3   209  THR209     -0.1203
    117  CA       -14.0760   -4.6400    5.8440 C.3   209  THR209      0.1994
    118  C        -14.2350   -6.1330    5.6100 C.2   209  THR209      0.2618
    119  O        -14.1240   -6.9340    6.5340 O.2   209  THR209     -0.2717
    120  CB       -12.7510   -4.1700    5.1710 C.3   209  THR209      0.1784
    121  OG1      -11.6410   -4.7550    5.8780 O.3   209  THR209     -0.2211
    122  CG2      -12.6170   -2.6250    5.1970 C.3   209  THR209      0.0376
    123  N        -14.5040   -6.4990    4.3650 N.am  210  GLY210     -0.1942
    124  CA       -14.4570   -7.8860    3.9330 C.3   210  GLY210      0.2014
    125  C        -14.0440   -7.9120    2.4850 C.2   210  GLY210      0.2640
    126  O        -14.3630   -6.9920    1.7060 O.2   210  GLY210     -0.2714
    127  N        -13.3080   -8.9590    2.1320 N.am  211  THR211     -0.1936
    128  CA       -12.7870   -9.1570    0.7840 C.3   211  THR211      0.2028
    129  C        -12.7630  -10.6770    0.5460 C.2   211  THR211      0.2642
    130  O        -12.4870  -11.4360    1.4660 O.2   211  THR211     -0.2714
    131  CB       -11.3630   -8.5110    0.6340 C.3   211  THR211      0.1808
    132  OG1      -11.4240   -7.1180    1.0100 O.3   211  THR211     -0.2208
    133  CG2      -10.8680   -8.6120   -0.8170 C.3   211  THR211      0.0379
    134  N        -13.1310  -11.1070   -0.6550 N.am  212  GLY212     -0.1954
    135  CA       -13.1350  -12.5180   -1.0040 C.3   212  GLY212      0.1869
    136  C        -13.1200  -12.7800   -2.5040 C.2   212  GLY212      0.2309
    137  O        -12.9020  -11.8730   -3.3160 O.2   212  GLY212     -0.2863
@<TRIPOS>BOND
     1   137   136    2
     2   136   135    1
     3   135   134    1
     4    93    92    2
     5   133   131    1
     6   134   129   am
     7    92    91    1
     8   114   113    1
     9   129   128    1
    10   129   130    2
    11   131   128    1
    12   131   132    1
    13   113   112    2
    14   113   115    1
    15   128   127    1
    16   112   111    1
    17   110   111    1
    18   110   109    1
    19   108   107    2
    20   106   105    1
    21   106   107    1
    22   106   109    1
    23    91    94    1
    24    91    90    1
    25    94    95    1
    26   126   125    2
    27    29    27    1
    28   127   125   am
    29   125   124    1
    30    86    85    2
    31    95    96    2
    32    95    97   am
    33    27    26    1
    34    87    88    1
    35    87    84    1
    36    88    89    1
    37    85    84    1
    38   124   123    1
    39   123   118   am
    40   101   100    2
    41    84    83    1
    42    26    28    1
    43    26    23    1
    44    89    83    1
    45   120   122    1
    46   120   117    1
    47   120   121    1
    48    22    23    1
    49    22    18   am
    50    23    24    1
    51   100    99    1
    52    83    76   am
    53   118   117    1
    54   118   119    2
    55    17    18    1
    56    17    20    1
    57    17    16    1
    58     1     2    1
    59   117   116    1
    60    18    19    2
    61    20    21    1
    62    81    80   ar
    63    99   102    1
    64    99    98    1
    65   102   103    1
    66   102   104    1
    67     6     5    1
    68    76    75    1
    69    76    77    2
    70    24    30   am
    71    24    25    2
    72     5     2    1
    73     2     3    1
    74    75    78    1
    75    75    74    1
    76    80    82   ar
    77    80    79    1
    78    30    31    1
    79    69    68    1
    80     3     4    2
    81    78    79    1
    82    68    65    1
    83    41    40    1
    84    41    42    1
    85    67    66    2
    86    55    54    2
    87    40    37    1
    88    42    36    1
    89    15    14    1
    90    31    32    1
    91    31    34    1
    92    36    37    1
    93    36    32   am
    94    37    38    1
    95    32    33    2
    96    35    34    1
    97    66    65    1
    98    65    64    1
    99    71    70    1
   100    71    72    1
   101    51    49   am
   102    54    64   am
   103    54    53    1
   104    14    13    1
   105    49    50    2
   106    49    48    1
   107    48    47    1
   108    47    44    1
   109    59    61   ar
   110    59    57   ar
   111    53    56    1
   112    53    52    1
   113    38    39    2
   114    72    73    2
   115    13    12    1
   116    61    62   ar
   117    56    57    1
   118    57    58   ar
   119    12    11    1
   120     7     8    1
   121    44    43    1
   122    44    45    1
   123    62    63    1
   124    62    60   ar
   125    11     8    1
   126    45    46    2
   127     8     9    1
   128    58    60   ar
   129     9    10    2
