@<TRIPOS>MOLECULE
tmp/3m6lA00.pdb
 143 136 0 0 0
SMALL
GASTEIGER

@<TRIPOS>ATOM
      1  N         -6.0220   -4.4470  -51.4130 N.3    26  HIS26      -0.1241
      2  CA        -5.3430   -5.7400  -51.3400 C.3    26  HIS26       0.1621
      3  C         -6.3800   -6.7870  -51.5000 C.2    26  HIS26       0.2264
      4  O         -7.1000   -7.1230  -50.5720 O.2    26  HIS26      -0.2867
      5  CB        -4.6400   -5.8900  -49.9950 C.3    26  HIS26       0.0745
      6  CG        -3.6330   -4.8160  -49.7350 C.ar   26  HIS26       0.0817
      7  ND1       -3.9850   -3.5440  -49.3030 N.ar   26  HIS26      -0.2268
      8  CD2       -2.2690   -4.8490  -49.7720 C.ar   26  HIS26       0.1154
      9  CE1       -2.8720   -2.8320  -49.1440 C.ar   26  HIS26       0.1986
     10  NE2       -1.8280   -3.6090  -49.4070 N.ar   26  HIS26      -0.2212
     11  N         -5.0850  -11.5040  -50.2290 N.3    29  ALA29      -0.1245
     12  CA        -5.3280  -12.0990  -48.9250 C.3    29  ALA29       0.1562
     13  C         -6.8040  -12.3450  -48.6850 C.2    29  ALA29       0.2260
     14  O         -7.2000  -13.4190  -48.1900 O.2    29  ALA29      -0.2867
     15  CB        -4.7320  -11.2710  -47.7840 C.3    29  ALA29       0.0290
     16  N         -3.9480   -5.4350  -44.0880 N.3    65  HIS65      -0.1241
     17  CA        -4.2100   -5.2140  -45.5140 C.3    65  HIS65       0.1621
     18  C         -5.3460   -6.0460  -46.0190 C.2    65  HIS65       0.2264
     19  O         -5.8260   -5.7570  -47.1320 O.2    65  HIS65      -0.2867
     20  CB        -2.9510   -5.4500  -46.3500 C.3    65  HIS65       0.0745
     21  CG        -2.3640   -6.7880  -46.1270 C.ar   65  HIS65       0.0817
     22  ND1       -2.4910   -7.8130  -47.0250 N.ar   65  HIS65      -0.2268
     23  CD2       -1.6970   -7.2880  -45.0680 C.ar   65  HIS65       0.1154
     24  CE1       -1.9270   -8.9000  -46.5240 C.ar   65  HIS65       0.1986
     25  NE2       -1.4450   -8.6150  -45.3290 N.ar   65  HIS65      -0.2212
     26  N         -6.6450    0.3170  -43.7650 N.3    99  HIS99      -0.1241
     27  CA        -6.3880   -0.6130  -42.7020 C.3    99  HIS99       0.1621
     28  C         -7.3310   -0.4030  -41.5100 C.2    99  HIS99       0.2264
     29  O         -7.8580    0.6890  -41.3510 O.2    99  HIS99      -0.2867
     30  CB        -4.8830   -0.4870  -42.2440 C.3    99  HIS99       0.0745
     31  CG        -3.9230   -0.8360  -43.3100 C.ar   99  HIS99       0.0817
     32  ND1       -3.5490    0.0460  -44.3210 N.ar   99  HIS99      -0.2268
     33  CD2       -3.3530   -2.0360  -43.6210 C.ar   99  HIS99       0.1154
     34  CE1       -2.7240   -0.5910  -45.1390 C.ar   99  HIS99       0.1986
     35  NE2       -2.6010   -1.8480  -44.7460 N.ar   99  HIS99      -0.2212
     36  N         -2.1270   -3.1280  -39.3060 N.3   112  GLY112     -0.1210
     37  CA        -1.4840   -2.3790  -40.4250 C.3   112  GLY112      0.1940
     38  C          0.0410   -2.5480  -40.3440 C.2   112  GLY112      0.2454
     39  O          0.6240   -3.0480  -41.2550 O.2   112  GLY112     -0.2732
     40  N          0.6300   -2.2990  -39.2090 N.am  113  PRO113     -0.2717
     41  CA         2.0410   -2.5900  -39.0320 C.3   113  PRO113      0.1535
     42  C          2.1530   -4.0540  -38.6870 C.2   113  PRO113      0.2595
     43  O          1.5720   -4.5180  -37.7130 O.2   113  PRO113     -0.2716
     44  CB         2.4540   -1.7040  -37.8560 C.3   113  PRO113      0.0310
     45  CG         1.3610   -0.6590  -37.8380 C.3   113  PRO113      0.0237
     46  CD         0.1380   -1.3270  -38.2000 C.3   113  PRO113      0.0939
     47  N          2.8830   -4.8050  -39.4690 N.am  114  LEU114     -0.2031
     48  CA         2.8380   -6.2530  -39.3370 C.3   114  LEU114      0.1282
     49  C          3.4520   -6.7110  -38.0360 C.3   114  LEU114      0.2036
     50  O          4.3880   -6.0740  -37.4110 O.3   114  LEU114     -0.2185
     51  CB         3.5350   -6.8800  -40.5120 C.3   114  LEU114      0.0244
     52  CG         2.8080   -6.7850  -41.8480 C.3   114  LEU114      0.0018
     53  CD1        3.8410   -7.0900  -42.9770 C.3   114  LEU114      0.0001
     54  CD2        1.6630   -7.7920  -41.9110 C.3   114  LEU114      0.0001
     55  N         -0.2730  -13.6530  -41.5390 N.3   148  GLY148     -0.1210
     56  CA         0.3600  -14.1170  -42.7440 C.3   148  GLY148      0.1956
     57  C          1.8580  -14.2550  -42.5230 C.2   148  GLY148      0.2612
     58  O          2.3820  -14.1500  -41.4350 O.2   148  GLY148     -0.2717
     59  N          2.5410  -14.4560  -43.6400 N.am  149  ASP149     -0.1959
     60  CA         4.0510  -14.5630  -43.6830 C.3   149  ASP149      0.1840
     61  C          4.7020  -13.3830  -43.0520 C.2   149  ASP149      0.2623
     62  O          5.6990  -13.5210  -42.3160 O.2   149  ASP149     -0.2715
     63  CB         4.5160  -14.6790  -45.1110 C.3   149  ASP149      0.1450
     64  CG         4.0150  -15.9970  -45.7450 C.2   149  ASP149      0.3671
     65  OD1        4.3170  -17.1010  -45.2340 O.co2 149  ASP149     -0.2456
     66  OD2        3.2590  -15.9850  -46.7290 O.co2 149  ASP149     -0.2456
     67  N          4.2230  -12.2260  -43.3870 N.am  150  GLY150     -0.1940
     68  CA         4.7910  -10.9970  -42.9570 C.3   150  GLY150      0.2014
     69  C          4.7620  -10.8850  -41.4250 C.2   150  GLY150      0.2638
     70  O          5.7460  -10.4620  -40.7680 O.2   150  GLY150     -0.2714
     71  N          3.6350  -11.2380  -40.8480 N.am  151  ASP151     -0.1971
     72  CA         3.5270  -11.1840  -39.3810 C.3   151  ASP151      0.1709
     73  C          4.5780  -12.0980  -38.7050 C.2   151  ASP151      0.2293
     74  O          5.1500  -11.7740  -37.6640 O.2   151  ASP151     -0.2864
     75  CB         2.1560  -11.5980  -38.9310 C.3   151  ASP151      0.1436
     76  CG         1.0830  -10.6580  -39.3870 C.2   151  ASP151      0.3671
     77  OD1        1.0380   -9.5130  -38.8760 O.co2 151  ASP151     -0.2456
     78  OD2        0.2660  -11.0440  -40.2610 O.co2 151  ASP151     -0.2456
     79  N          8.3330  -11.0140  -38.4760 N.3   154  GLU154     -0.1245
     80  CA         8.6420   -9.8980  -37.5320 C.3   154  GLU154      0.1567
     81  C          8.9980  -10.4220  -36.1700 C.2   154  GLU154      0.2260
     82  O          8.2970  -11.2980  -35.6230 O.2   154  GLU154     -0.2867
     83  CB         7.4910   -8.9240  -37.4220 C.3   154  GLU154      0.0388
     84  CG         7.2880   -8.0810  -38.6140 C.3   154  GLU154      0.1160
     85  CD         8.3010   -6.9300  -38.7120 C.2   154  GLU154      0.3649
     86  OE1        9.1560   -6.8150  -37.8090 O.co2 154  GLU154     -0.2457
     87  OE2        8.2240   -6.1640  -39.7390 O.co2 154  GLU154     -0.2457
     88  N         -2.0200  -17.9890  -42.5100 N.3   177  ASP177     -0.1239
     89  CA        -2.2660  -18.0830  -43.9400 C.3   177  ASP177      0.1674
     90  C         -0.9350  -18.2790  -44.6380 C.2   177  ASP177      0.2266
     91  O         -0.2370  -17.3290  -45.0060 O.2   177  ASP177     -0.2867
     92  CB        -2.9380  -16.7670  -44.4240 C.3   177  ASP177      0.1410
     93  CG        -3.3820  -16.8050  -45.8670 C.2   177  ASP177      0.3668
     94  OD1       -3.5120  -17.9400  -46.4320 O.co2 177  ASP177     -0.2456
     95  OD2       -3.5810  -15.6820  -46.4740 O.co2 177  ASP177     -0.2456
     96  N          0.6060  -18.9640  -47.7940 N.3   179  ASN179     -0.1240
     97  CA         0.4180  -18.9300  -49.2180 C.3   179  ASN179      0.1653
     98  C          1.7060  -18.8550  -50.1090 C.2   179  ASN179      0.2266
     99  O          1.6400  -18.7370  -51.3860 O.2   179  ASN179     -0.2867
    100  CB        -0.6140  -17.8620  -49.5910 C.3   179  ASN179      0.1155
    101  CG        -0.1000  -16.4480  -49.3420 C.2   179  ASN179      0.2627
    102  OD1        1.1080  -16.2300  -49.1470 O.2   179  ASN179     -0.2716
    103  ND2       -1.0550  -15.4490  -49.2740 N.am  179  ASN179     -0.0877
    104  N          3.7450  -16.6260  -50.7110 N.3   181  ILE181     -0.1231
    105  CA         3.9570  -15.4010  -51.5040 C.3   181  ILE181      0.1692
    106  C          4.0840  -14.1660  -50.6330 C.2   181  ILE181      0.2593
    107  O          3.3870  -14.0690  -49.6490 O.2   181  ILE181     -0.2718
    108  CB         2.7570  -15.1820  -52.4810 C.3   181  ILE181      0.0266
    109  CG1        2.8170  -16.2940  -53.5840 C.3   181  ILE181      0.0019
    110  CG2        2.7150  -13.6750  -53.0070 C.3   181  ILE181      0.0020
    111  CD1        3.7490  -15.9850  -54.6950 C.3   181  ILE181      0.0001
    112  N          5.0100  -13.2730  -50.9680 N.am  182  SER182     -0.1938
    113  CA         5.0430  -11.9240  -50.3520 C.3   182  SER182      0.2055
    114  C          5.2590  -10.9500  -51.4060 C.2   182  SER182      0.2642
    115  O          5.1900  -11.2910  -52.5690 O.2   182  SER182     -0.2714
    116  CB         6.1350  -11.8630  -49.2640 C.3   182  SER182      0.2130
    117  OG         7.4500  -11.9730  -49.7380 O.3   182  SER182     -0.2179
    118  N          5.5080   -9.6760  -51.0780 N.am  183  ILE183     -0.1977
    119  CA         5.5500   -8.6630  -52.1000 C.3   183  ILE183      0.1596
    120  C          6.7120   -8.8910  -53.1140 C.2   183  ILE183      0.2287
    121  O          6.5690   -8.6230  -54.3040 O.2   183  ILE183     -0.2864
    122  CB         5.6950   -7.2680  -51.4220 C.3   183  ILE183      0.0276
    123  CG1        4.4260   -6.9570  -50.6180 C.3   183  ILE183      0.0022
    124  CG2        6.0640   -6.2170  -52.4500 C.3   183  ILE183      0.0022
    125  CD1        4.4430   -5.5610  -49.9140 C.3   183  ILE183      0.0001
    126  N         -2.8100  -17.5790  -52.7000 N.3   238  ILE238     -0.1245
    127  CA        -3.1510  -16.1480  -52.7440 C.3   238  ILE238      0.1561
    128  C         -4.0950  -15.8760  -53.9300 C.2   238  ILE238      0.2260
    129  O         -3.9390  -16.4570  -55.0050 O.2   238  ILE238     -0.2867
    130  CB        -1.8810  -15.2380  -52.7210 C.3   238  ILE238      0.0252
    131  CG1       -2.3090  -13.7860  -52.4340 C.3   238  ILE238      0.0019
    132  CG2       -1.2030  -15.2660  -54.0260 C.3   238  ILE238      0.0019
    133  CD1       -1.0960  -12.8630  -52.1560 C.3   238  ILE238      0.0001
    134  N         -1.1240   -9.2800  -54.4660 N.3   252  HIS252     -0.1241
    135  CA        -1.0090   -8.8480  -53.0640 C.3   252  HIS252      0.1621
    136  C         -1.6810   -7.5070  -52.8190 C.2   252  HIS252      0.2264
    137  O         -2.4210   -7.3490  -51.8230 O.2   252  HIS252     -0.2867
    138  CB         0.4760   -8.8020  -52.6100 C.3   252  HIS252      0.0745
    139  CG         0.6620   -8.0210  -51.3610 C.ar  252  HIS252      0.0817
    140  ND1        0.3400   -8.5400  -50.1470 N.ar  252  HIS252     -0.2268
    141  CD2        0.9440   -6.7090  -51.1450 C.ar  252  HIS252      0.1154
    142  CE1        0.4810   -7.6130  -49.2000 C.ar  252  HIS252      0.1986
    143  NE2        0.8330   -6.4810  -49.7840 N.ar  252  HIS252     -0.2212
@<TRIPOS>BOND
     1   129   128    2
     2   111   109    1
     3   134   135    1
     4   121   120    2
     5   132   130    1
     6   128   127    1
     7   109   108    1
     8   120   119    1
     9   135   136    1
    10   135   138    1
    11   110   108    1
    12   136   137    2
    13   127   130    1
    14   127   126    1
    15   130   131    1
    16   138   139    1
    17   115   114    2
    18   108   105    1
    19   124   122    1
    20   131   133    1
    21   119   122    1
    22   119   118    1
    23   105   104    1
    24   105   106    1
    25     3     2    1
    26     3     4    2
    27   122   123    1
    28     1     2    1
    29   114   118   am
    30   114   113    1
    31    99    98    2
    32   139   141   ar
    33   139   140   ar
    34     2     5    1
    35   141   143   ar
    36   112   106   am
    37   112   113    1
    38   106   107    2
    39   123   125    1
    40   113   116    1
    41    11    12    1
    42   140   142   ar
    43    98    97    1
    44     5     6    1
    45   143   142   ar
    46     8     6   ar
    47     8    10   ar
    48   117   116    1
    49     6     7   ar
    50   100   101    1
    51   100    97    1
    52    10     9   ar
    53   101   103   am
    54   101   102    2
    55     7     9   ar
    56    97    96    1
    57    12    13    1
    58    12    15    1
    59    13    14    2
    60    19    18    2
    61    22    24   ar
    62    22    21   ar
    63    66    64   ar
    64    24    25   ar
    65    95    93   ar
    66    94    93   ar
    67    20    21    1
    68    20    17    1
    69    21    23   ar
    70    18    17    1
    71    93    92    1
    72    64    65   ar
    73    64    63    1
    74    17    16    1
    75    25    23   ar
    76    34    35   ar
    77    34    32   ar
    78    63    60    1
    79    91    90    2
    80    35    33   ar
    81    90    89    1
    82    92    89    1
    83    32    31   ar
    84    89    88    1
    85    26    27    1
    86    60    59    1
    87    60    61    1
    88    59    57   am
    89    33    31   ar
    90    67    61   am
    91    67    68    1
    92    31    30    1
    93    61    62    2
    94    53    52    1
    95    68    69    1
    96    56    57    1
    97    56    55    1
    98    27    30    1
    99    27    28    1
   100    57    58    2
   101    54    52    1
   102    52    51    1
   103    28    29    2
   104    69    71   am
   105    69    70    2
   106    39    38    2
   107    71    72    1
   108    51    48    1
   109    37    38    1
   110    37    36    1
   111    38    40   am
   112    78    76   ar
   113    87    85   ar
   114    47    48    1
   115    47    42   am
   116    76    75    1
   117    76    77   ar
   118    72    75    1
   119    72    73    1
   120    48    49    1
   121    40    41    1
   122    40    46    1
   123    41    42    1
   124    41    44    1
   125    85    84    1
   126    85    86   ar
   127    73    74    2
   128    42    43    2
   129    84    83    1
   130    79    80    1
   131    46    45    1
   132    49    50    1
   133    44    45    1
   134    80    83    1
   135    80    81    1
   136    81    82    2
