@<TRIPOS>MOLECULE
tmp/3m6qA00.pdb
 160 156 0 0 0
SMALL
GASTEIGER

@<TRIPOS>ATOM
      1  N          7.7290  -13.8450  -34.3870 N.3    40  ASP40      -0.1225
      2  CA         6.9900  -14.6610  -35.2850 C.3    40  ASP40       0.1805
      3  C          5.8700  -15.3990  -34.5650 C.2    40  ASP40       0.2598
      4  O          5.7720  -16.6760  -34.6510 O.2    40  ASP40      -0.2718
      5  CB         7.9510  -15.6060  -36.0340 C.3    40  ASP40       0.1424
      6  CG         7.1920  -16.4760  -37.0450 C.2    40  ASP40       0.3668
      7  OD1        6.3030  -15.8670  -37.7090 O.co2  40  ASP40      -0.2456
      8  OD2        7.4890  -17.7150  -37.1580 O.co2  40  ASP40      -0.2456
      9  N          4.8330  -14.8120  -33.9580 N.am   41  GLN41      -0.1965
     10  CA         3.7830  -15.4540  -33.1950 C.3    41  GLN41       0.1733
     11  C          2.4670  -15.0590  -33.7310 C.2    41  GLN41       0.2616
     12  O          2.4140  -14.2530  -34.5430 O.2    41  GLN41      -0.2715
     13  CB         3.8810  -15.1540  -31.6850 C.3    41  GLN41       0.0408
     14  CG         5.1940  -15.4570  -30.9910 C.3    41  GLN41       0.0908
     15  CD         5.6090  -16.9380  -30.8340 C.2    41  GLN41       0.2608
     16  OE1        5.1940  -17.6790  -29.9090 O.2    41  GLN41      -0.2717
     17  NE2        6.5170  -17.3420  -31.6800 N.am   41  GLN41      -0.0878
     18  N          1.3680  -15.7100  -33.3380 N.am   42  ILE42      -0.1963
     19  CA         0.0610  -15.4160  -33.8520 C.3    42  ILE42       0.1727
     20  C         -0.7540  -14.6260  -32.8550 C.2    42  ILE42       0.2617
     21  O         -1.7480  -14.1230  -33.2010 O.2    42  ILE42      -0.2715
     22  CB        -0.7580  -16.7530  -34.2120 C.3    42  ILE42       0.0290
     23  CG1       -0.0990  -17.9660  -33.5790 C.3    42  ILE42       0.0022
     24  CG2       -0.8970  -16.9770  -35.7000 C.3    42  ILE42       0.0023
     25  CD1       -1.0330  -19.0440  -33.1610 C.3    42  ILE42       0.0001
     26  N         -0.3580  -14.5530  -31.5830 N.am   43  GLY43      -0.1940
     27  CA        -0.9990  -13.6470  -30.6560 C.3    43  GLY43       0.2014
     28  C         -0.0480  -13.2300  -29.5480 C.2    43  GLY43       0.2638
     29  O          1.0880  -13.7080  -29.4680 O.2    43  GLY43      -0.2714
     30  N         -0.5120  -12.3500  -28.6770 N.am   44  LEU44      -0.1977
     31  CA         0.2630  -11.8640  -27.5380 C.3    44  LEU44       0.1596
     32  C         -0.7030  -11.2390  -26.5160 C.2    44  LEU44       0.2287
     33  O         -1.6230  -10.4940  -26.9130 O.2    44  LEU44      -0.2864
     34  CB         1.2610  -10.7670  -28.0480 C.3    44  LEU44       0.0297
     35  CG         2.4870  -10.3200  -27.1730 C.3    44  LEU44       0.0022
     36  CD1        3.5200  -11.3950  -27.0750 C.3    44  LEU44       0.0001
     37  CD2        3.1260   -9.0330  -27.6420 C.3    44  LEU44       0.0001
     38  N          2.6680  -10.6380  -20.9170 N.3    48  GLN48      -0.1245
     39  CA         3.8610  -11.1890  -21.6390 C.3    48  GLN48       0.1566
     40  C          4.8480  -10.0920  -21.9680 C.2    48  GLN48       0.2260
     41  O          6.0040  -10.3690  -22.2360 O.2    48  GLN48      -0.2867
     42  CB         3.4670  -11.9180  -22.9130 C.3    48  GLN48       0.0367
     43  CG         2.7160  -13.2760  -22.6030 C.3    48  GLN48       0.0905
     44  CD         2.5620  -14.1250  -23.8570 C.2    48  GLN48       0.2608
     45  OE1        1.7730  -13.7770  -24.7400 O.2    48  GLN48      -0.2717
     46  NE2        3.3190  -15.2600  -23.9470 N.am   48  GLN48      -0.0878
     47  N         -3.9370  -30.4540  -29.8360 N.3    87  PHE87      -0.1227
     48  CA        -3.1910  -29.6140  -30.7430 C.3    87  PHE87       0.1736
     49  C         -1.9090  -29.2450  -30.0200 C.2    87  PHE87       0.2595
     50  O         -1.8200  -29.2530  -28.7680 O.2    87  PHE87      -0.2718
     51  CB        -4.0040  -28.3880  -31.1070 C.3    87  PHE87       0.0547
     52  CG        -3.4700  -27.6350  -32.3050 C.ar   87  PHE87      -0.0202
     53  CD1       -2.9270  -26.3610  -32.1570 C.ar   87  PHE87      -0.0042
     54  CD2       -3.5590  -28.1950  -33.6060 C.ar   87  PHE87      -0.0042
     55  CE1       -2.4710  -25.6740  -33.2560 C.ar   87  PHE87      -0.0003
     56  CE2       -3.0960  -27.5020  -34.7080 C.ar   87  PHE87      -0.0003
     57  CZ        -2.5620  -26.2240  -34.5150 C.ar   87  PHE87      -0.0000
     58  N         -0.8980  -28.9820  -30.8060 N.am   88  ASP88      -0.1960
     59  CA         0.4250  -28.7680  -30.2910 C.3    88  ASP88       0.1840
     60  C          0.6600  -27.2040  -30.0410 C.2    88  ASP88       0.2622
     61  O          0.3540  -26.3680  -30.8780 O.2    88  ASP88      -0.2715
     62  CB         1.3550  -29.3850  -31.3290 C.3    88  ASP88       0.1450
     63  CG         2.5220  -30.0520  -30.7260 C.2    88  ASP88       0.3671
     64  OD1        3.6310  -29.4610  -30.9130 O.co2  88  ASP88      -0.2456
     65  OD2        2.3190  -31.1280  -30.0800 O.co2  88  ASP88      -0.2456
     66  N          1.1210  -26.8130  -28.8560 N.am   89  GLU89      -0.1963
     67  CA         1.2580  -25.4050  -28.5000 C.3    89  GLU89       0.1733
     68  C          2.6370  -25.0930  -28.0180 C.2    89  GLU89       0.2617
     69  O          3.2590  -25.9090  -27.3880 O.2    89  GLU89      -0.2715
     70  CB         0.2860  -25.0420  -27.3770 C.3    89  GLU89       0.0429
     71  CG        -1.1590  -24.9510  -27.7700 C.3    89  GLU89       0.1163
     72  CD        -2.0070  -24.2730  -26.7140 C.2    89  GLU89       0.3649
     73  OE1       -3.2360  -24.5250  -26.7110 O.co2  89  GLU89      -0.2457
     74  OE2       -1.4550  -23.4820  -25.8860 O.co2  89  GLU89      -0.2457
     75  N          3.1080  -23.8890  -28.2980 N.am   90  GLY90      -0.1940
     76  CA         4.3020  -23.3790  -27.6530 C.3    90  GLY90       0.2014
     77  C          3.8580  -22.0130  -27.1770 C.2    90  GLY90       0.2639
     78  O          2.7520  -21.5250  -27.4930 O.2    90  GLY90      -0.2714
     79  N          4.6840  -21.3710  -26.3890 N.am   91  CYS91      -0.1953
     80  CA         4.3270  -20.0660  -25.8680 C.3    91  CYS91       0.1843
     81  C          5.6220  -19.2950  -25.7980 C.2    91  CYS91       0.2625
     82  O          6.6730  -19.8560  -25.4150 O.2    91  CYS91      -0.2714
     83  CB         3.6880  -20.2430  -24.4930 C.3    91  CYS91       0.0997
     84  SG         3.7130  -18.8220  -23.4720 S.3    91  CYS91      -0.0797
     85  N          5.5140  -17.9890  -26.0350 N.am   92  LEU92      -0.1977
     86  CA         6.6590  -17.0930  -26.0240 C.3    92  LEU92       0.1596
     87  C          7.4180  -17.0100  -24.6830 C.2    92  LEU92       0.2287
     88  O          8.6630  -16.9120  -24.6460 O.2    92  LEU92      -0.2864
     89  CB         6.2450  -15.7300  -26.5200 C.3    92  LEU92       0.0297
     90  CG         7.4130  -14.8620  -27.0410 C.3    92  LEU92       0.0022
     91  CD1        8.3730  -15.5310  -28.0540 C.3    92  LEU92       0.0001
     92  CD2        6.9100  -13.5320  -27.5820 C.3    92  LEU92       0.0001
     93  N          7.4860  -27.0240  -26.4310 N.3    98  TYR98      -0.1241
     94  CA         6.3100  -27.3540  -27.2210 C.3    98  TYR98       0.1605
     95  C          5.7540  -28.7010  -26.8160 C.2    98  TYR98       0.2264
     96  O          6.5450  -29.6270  -26.4810 O.2    98  TYR98      -0.2867
     97  CB         6.6260  -27.4200  -28.7430 C.3    98  TYR98       0.0534
     98  CG         7.3330  -26.2040  -29.2420 C.ar   98  TYR98      -0.0201
     99  CD1        6.6920  -24.9400  -29.2160 C.ar   98  TYR98      -0.0009
    100  CD2        8.6350  -26.2770  -29.7010 C.ar   98  TYR98      -0.0009
    101  CE1        7.3810  -23.7460  -29.6280 C.ar   98  TYR98       0.0417
    102  CE2        9.3000  -25.1110  -30.1350 C.ar   98  TYR98       0.0417
    103  CZ         8.6590  -23.8570  -30.0860 C.ar   98  TYR98       0.1957
    104  OH         9.3050  -22.7110  -30.5250 O.3    98  TYR98      -0.2866
    105  N         -7.9870  -22.2920  -35.7680 N.3   126  LEU126     -0.1245
    106  CA        -6.7650  -21.7840  -35.1510 C.3   126  LEU126      0.1561
    107  C         -6.9710  -20.4820  -34.3950 C.2   126  LEU126      0.2260
    108  O         -6.3970  -20.2940  -33.3190 O.2   126  LEU126     -0.2867
    109  CB        -5.7050  -21.5520  -36.1910 C.3   126  LEU126      0.0270
    110  CG        -4.2910  -21.3710  -35.6460 C.3   126  LEU126      0.0019
    111  CD1       -3.7460  -22.6280  -35.0260 C.3   126  LEU126      0.0001
    112  CD2       -3.4470  -20.9880  -36.8480 C.3   126  LEU126      0.0001
    113  N         -8.2530  -21.3840  -31.0440 N.3   129  ARG129     -0.1231
    114  CA        -7.1550  -21.9920  -30.3040 C.3   129  ARG129      0.1694
    115  C         -6.1330  -21.0030  -29.7390 C.2   129  ARG129      0.2591
    116  O         -5.6260  -21.2040  -28.6560 O.2   129  ARG129     -0.2718
    117  CB        -6.4290  -22.9740  -31.1660 C.3   129  ARG129      0.0321
    118  CG        -5.3110  -23.6180  -30.4720 C.3   129  ARG129      0.0489
    119  CD        -5.8140  -24.2910  -29.1910 C.3   129  ARG129      0.2205
    120  NE        -5.0110  -25.4150  -28.7430 N.pl3 129  ARG129     -0.0865
    121  CZ        -5.4650  -26.6430  -28.6490 C.cat 129  ARG129      0.5346
    122  NH1       -6.7170  -26.9130  -28.9520 N.pl3 129  ARG129      0.1354
    123  NH2       -4.6520  -27.6070  -28.2710 N.pl3 129  ARG129      0.1354
    124  N         -5.8080  -19.9710  -30.5410 N.am  130  ILE130     -0.1980
    125  CA        -4.9590  -18.8750  -30.1060 C.3   130  ILE130      0.1595
    126  C         -5.6240  -17.9540  -29.0960 C.2   130  ILE130      0.2287
    127  O         -4.9470  -17.4470  -28.1870 O.2   130  ILE130     -0.2864
    128  CB        -4.5840  -17.9130  -31.2500 C.3   130  ILE130      0.0276
    129  CG1       -4.0220  -18.6600  -32.4890 C.3   130  ILE130      0.0022
    130  CG2       -3.5910  -16.9550  -30.7400 C.3   130  ILE130      0.0022
    131  CD1       -4.1000  -17.7450  -33.8260 C.3   130  ILE130      0.0001
    132  N         -5.5460  -19.6700  -25.6740 N.3   133  HIS133     -0.1226
    133  CA        -4.1660  -19.5100  -25.1140 C.3   133  HIS133      0.1752
    134  C         -3.9130  -18.1250  -24.5300 C.2   133  HIS133      0.2595
    135  O         -3.3800  -17.9340  -23.4410 O.2   133  HIS133     -0.2718
    136  CB        -3.1310  -19.7950  -26.1900 C.3   133  HIS133      0.0759
    137  CG        -1.7100  -19.7950  -25.7110 C.ar  133  HIS133      0.0818
    138  ND1       -0.9760  -20.9640  -25.5690 N.ar  133  HIS133     -0.2268
    139  CD2       -0.8930  -18.7810  -25.3400 C.ar  133  HIS133      0.1154
    140  CE1        0.2400  -20.6630  -25.1560 C.ar  133  HIS133      0.1986
    141  NE2        0.3160  -19.3390  -25.0170 N.ar  133  HIS133     -0.2212
    142  N         -4.2320  -17.1110  -25.3010 N.am  134  GLU134     -0.1979
    143  CA        -3.9760  -15.7410  -24.8740 C.3   134  GLU134      0.1602
    144  C         -4.8880  -15.2770  -23.7380 C.2   134  GLU134      0.2287
    145  O         -4.5040  -14.4560  -22.9100 O.2   134  GLU134     -0.2864
    146  CB        -4.2100  -14.8730  -26.0400 C.3   134  GLU134      0.0415
    147  CG        -3.1780  -15.1610  -27.0960 C.3   134  GLU134      0.1163
    148  CD        -1.7510  -15.2440  -26.5620 C.2   134  GLU134      0.3649
    149  OE1       -1.0240  -16.1620  -27.0070 O.co2 134  GLU134     -0.2457
    150  OE2       -1.3090  -14.3830  -25.7430 O.co2 134  GLU134     -0.2457
    151  N         -3.8780  -16.2220  -20.4060 N.3   137  HIS137     -0.1241
    152  CA        -2.8320  -15.4650  -19.8570 C.3   137  HIS137      0.1621
    153  C         -3.5170  -14.3810  -19.1520 C.2   137  HIS137      0.2264
    154  O         -3.0520  -13.9370  -18.1420 O.2   137  HIS137     -0.2867
    155  CB        -1.9880  -14.8900  -20.9640 C.3   137  HIS137      0.0745
    156  CG        -0.7770  -15.7080  -21.3540 C.ar  137  HIS137      0.0817
    157  ND1        0.2680  -15.9610  -20.5020 N.ar  137  HIS137     -0.2268
    158  CD2       -0.3980  -16.1870  -22.5550 C.ar  137  HIS137      0.1154
    159  CE1        1.1640  -16.7070  -21.1210 C.ar  137  HIS137      0.1986
    160  NE2        0.8050  -16.8150  -22.3850 N.ar  137  HIS137     -0.2212
@<TRIPOS>BOND
     1     7     6   ar
     2     8     6   ar
     3     6     5    1
     4   112   110    1
     5   109   110    1
     6   109   106    1
     7     5     2    1
     8   105   106    1
     9    24    22    1
    10   110   111    1
    11     2     3    1
    12     2     1    1
    13   106   107    1
    14    56    57   ar
    15    56    54   ar
    16     4     3    2
    17     3     9   am
    18    12    11    2
    19    57    55   ar
    20   107   108    2
    21    22    19    1
    22    22    23    1
    23     9    10    1
    24    19    18    1
    25    19    20    1
    26   131   129    1
    27    11    18   am
    28    11    10    1
    29    54    52   ar
    30    23    25    1
    31    55    53   ar
    32    21    20    2
    33    10    13    1
    34    20    26   am
    35   129   128    1
    36    52    53   ar
    37    52    51    1
    38    13    14    1
    39    17    15   am
    40    26    27    1
    41    62    63    1
    42    62    59    1
    43   128   130    1
    44   128   125    1
    45   117   118    1
    46   117   114    1
    47    51    48    1
    48   113   114    1
    49    14    15    1
    50    64    63   ar
    51    61    60    2
    52    15    16    2
    53    58    59    1
    54    58    49   am
    55    48    49    1
    56    48    47    1
    57    63    65   ar
    58    27    28    1
    59   124   125    1
    60   124   115   am
    61   104   103    1
    62   118   119    1
    63   114   115    1
    64    59    60    1
    65   102   103   ar
    66   102   100   ar
    67   125   126    1
    68   103   101   ar
    69    60    66   am
    70    49    50    2
    71   115   116    2
    72   100    98   ar
    73   101    99   ar
    74    28    29    2
    75    28    30   am
    76    98    99   ar
    77    98    97    1
    78   119   120    1
    79   126   127    2
    80   122   121    1
    81    66    67    1
    82    97    94    1
    83   120   121    2
    84    30    31    1
    85   121   123    1
    86    67    68    1
    87    67    70    1
    88    75    68   am
    89    75    76    1
    90    91    90    1
    91    34    31    1
    92    34    35    1
    93    68    69    2
    94    71    70    1
    95    71    72    1
    96    76    77    1
    97    37    35    1
    98    92    90    1
    99    31    32    1
   100    78    77    2
   101    94    95    1
   102    94    93    1
   103    77    79   am
   104    35    36    1
   105   147   148    1
   106   147   146    1
   107    90    89    1
   108   149   148   ar
   109    33    32    2
   110    95    96    2
   111    72    73   ar
   112    72    74   ar
   113   148   150   ar
   114    89    86    1
   115    79    80    1
   116   136   137    1
   117   136   133    1
   118   146   143    1
   119    85    86    1
   120    85    81   am
   121    86    87    1
   122    80    81    1
   123    80    83    1
   124    81    82    2
   125   137   138   ar
   126   137   139   ar
   127   132   133    1
   128   138   140   ar
   129   139   141   ar
   130   142   143    1
   131   142   134   am
   132   140   141   ar
   133   133   134    1
   134   143   144    1
   135    45    44    2
   136    87    88    2
   137   134   135    2
   138    83    84    1
   139    46    44   am
   140    44    43    1
   141   144   145    2
   142    42    43    1
   143    42    39    1
   144   158   160   ar
   145   158   156   ar
   146   160   159   ar
   147    41    40    2
   148    40    39    1
   149    39    38    1
   150   156   155    1
   151   156   157   ar
   152   159   157   ar
   153   155   152    1
   154   151   152    1
   155   152   153    1
   156   153   154    2
