@<TRIPOS>MOLECULE
tmp/3m6sG00.pdb
 83 80 0 0 0
SMALL
GASTEIGER

@<TRIPOS>ATOM
      1  N        -23.3150  -90.3670  -49.6870 N.3    54  LYS54      -0.1245
      2  CA       -22.5130  -91.0050  -50.7350 C.3    54  LYS54       0.1561
      3  C        -21.5560  -90.1120  -51.5240 C.2    54  LYS54       0.2260
      4  O        -20.7010  -90.6260  -52.2420 O.2    54  LYS54      -0.2867
      5  CB       -23.4390  -91.6140  -51.7860 C.3    54  LYS54       0.0271
      6  CG       -24.1630  -92.8840  -51.3920 C.3    54  LYS54       0.0035
      7  CD       -25.5620  -92.9450  -52.0370 C.3    54  LYS54       0.0206
      8  CE       -25.5260  -93.1430  -53.5600 C.3    54  LYS54       0.1093
      9  NZ       -25.1290  -94.5000  -53.9740 N.3    54  LYS54      -0.1314
     10  N        -23.6090  -85.4640  -60.1830 N.3    64  ASN64      -0.1226
     11  CA       -23.3560  -86.8840  -60.4020 C.3    64  ASN64       0.1770
     12  C        -24.6790  -87.6450  -60.2380 C.2    64  ASN64       0.2439
     13  O        -25.4950  -87.3010  -59.3870 O.2    64  ASN64      -0.2733
     14  CB       -22.2950  -87.3380  -59.4030 C.3    64  ASN64       0.1168
     15  CG       -21.9650  -88.7880  -59.4900 C.2    64  ASN64       0.2627
     16  OD1      -22.8220  -89.6280  -59.4140 O.2    64  ASN64      -0.2716
     17  ND2      -20.6990  -89.0900  -59.5810 N.am   64  ASN64      -0.0877
     18  N        -24.9240  -88.6560  -61.0810 N.am   65  PRO65      -0.2718
     19  CA       -26.2050  -89.3500  -61.0230 C.3    65  PRO65       0.1535
     20  C        -26.5490  -90.0130  -59.6960 C.2    65  PRO65       0.2598
     21  O        -27.7250  -90.2100  -59.4120 O.2    65  PRO65      -0.2715
     22  CB       -26.0660  -90.4010  -62.1110 C.3    65  PRO65       0.0310
     23  CG       -25.1790  -89.7770  -63.0870 C.3    65  PRO65       0.0237
     24  CD       -24.1410  -89.1080  -62.2390 C.3    65  PRO65       0.0939
     25  N        -25.5480  -90.3140  -58.8830 N.am   66  GLU66      -0.1978
     26  CA       -25.7680  -90.9400  -57.5950 C.3    66  GLU66       0.1602
     27  C        -26.1620  -89.9660  -56.4930 C.2    66  GLU66       0.2287
     28  O        -26.5210  -90.3840  -55.3860 O.2    66  GLU66      -0.2864
     29  CB       -24.5170  -91.7090  -57.1670 C.3    66  GLU66       0.0415
     30  CG       -24.0740  -92.8210  -58.1060 C.3    66  GLU66       0.1163
     31  CD       -24.9330  -94.0510  -57.9890 C.2    66  GLU66       0.3649
     32  OE1      -25.3370  -94.3480  -56.8490 O.co2  66  GLU66      -0.2457
     33  OE2      -25.2000  -94.7100  -59.0240 O.co2  66  GLU66      -0.2457
     34  N        -17.8320  -90.6480  -51.9650 N.3    86  ASP86      -0.1225
     35  CA       -16.9650  -91.2890  -52.9080 C.3    86  ASP86       0.1805
     36  C        -17.3170  -90.9490  -54.3260 C.2    86  ASP86       0.2598
     37  O        -16.4770  -91.0210  -55.2060 O.2    86  ASP86      -0.2718
     38  CB       -17.1320  -92.7890  -52.7250 C.3    86  ASP86       0.1424
     39  CG       -15.9150  -93.4440  -52.1000 C.2    86  ASP86       0.3668
     40  OD1      -15.8260  -94.7090  -52.1280 O.co2  86  ASP86      -0.2456
     41  OD2      -15.0440  -92.7060  -51.5980 O.co2  86  ASP86      -0.2456
     42  N        -18.5810  -90.6310  -54.5500 N.am   87  ASN87      -0.1960
     43  CA       -19.0610  -90.2830  -55.8650 C.3    87  ASN87       0.1819
     44  C        -18.8580  -88.8090  -56.0670 C.2    87  ASN87       0.2621
     45  O        -19.4590  -87.9840  -55.3830 O.2    87  ASN87      -0.2715
     46  CB       -20.5130  -90.7210  -56.0460 C.3    87  ASN87       0.1195
     47  CG       -20.6260  -92.1980  -56.1280 C.2    87  ASN87       0.2630
     48  OD1      -21.0050  -92.8420  -55.1770 O.2    87  ASN87      -0.2716
     49  ND2      -20.2640  -92.7530  -57.2620 N.am   87  ASN87      -0.0877
     50  N        -17.9690  -88.5040  -57.0080 N.am   88  GLY88      -0.1954
     51  CA       -17.5200  -87.1370  -57.3090 C.3    88  GLY88       0.1869
     52  C        -17.4950  -86.8970  -58.7940 C.2    88  GLY88       0.2309
     53  O        -18.5310  -87.0300  -59.4610 O.2    88  GLY88      -0.2863
     54  N        -17.1370  -88.3150  -62.0540 N.3    90  CYS90      -0.1235
     55  CA       -17.1500  -89.6610  -62.6120 C.3    90  CYS90       0.1677
     56  C        -16.4440  -89.7640  -63.9590 C.2    90  CYS90       0.2270
     57  O        -15.9260  -90.8190  -64.3050 O.2    90  CYS90      -0.2867
     58  CB       -18.5540  -90.2530  -62.6520 C.3    90  CYS90       0.0956
     59  SG       -19.8320  -89.1320  -63.3140 S.3    90  CYS90      -0.0801
     60  N        -20.1880  -92.6400  -66.2220 N.3   136  CYS136     -0.1221
     61  CA       -21.2290  -92.1270  -65.3420 C.3   136  CYS136      0.1794
     62  C        -22.5410  -92.9030  -65.4930 C.2   136  CYS136      0.2443
     63  O        -23.4820  -92.4040  -66.0720 O.2   136  CYS136     -0.2733
     64  CB       -21.4700  -90.6320  -65.5890 C.3   136  CYS136      0.0970
     65  SG       -19.9930  -89.5890  -65.4070 S.3   136  CYS136     -0.0800
     66  N        -22.6170  -94.1240  -64.9470 N.am  137  PRO137     -0.2729
     67  CA       -23.8380  -94.8930  -65.1160 C.3   137  PRO137      0.1401
     68  C        -24.9760  -94.4750  -64.1910 C.2   137  PRO137      0.2269
     69  O        -24.7460  -94.1260  -63.0390 O.2   137  PRO137     -0.2865
     70  CB       -23.3940  -96.3210  -64.7810 C.3   137  PRO137      0.0296
     71  CG       -22.2670  -96.1670  -63.8790 C.3   137  PRO137      0.0237
     72  CD       -21.5820  -94.8960  -64.2290 C.3   137  PRO137      0.0939
     73  N        -11.7130  -95.1760  -64.7660 N.3   221  ARG221     -0.1245
     74  CA       -13.1030  -95.5500  -65.0210 C.3   221  ARG221      0.1563
     75  C        -13.3290  -95.7980  -66.5020 C.2   221  ARG221      0.2260
     76  O        -14.2860  -95.2660  -67.0810 O.2   221  ARG221     -0.2867
     77  CB       -14.0580  -94.4940  -64.4700 C.3   221  ARG221      0.0307
     78  CG       -13.8520  -94.1950  -62.9870 C.3   221  ARG221      0.0489
     79  CD       -14.7530  -93.0660  -62.4600 C.3   221  ARG221      0.2205
     80  NE       -16.1560  -93.3310  -62.7140 N.pl3 221  ARG221     -0.0865
     81  CZ       -16.9350  -94.0470  -61.9160 C.cat 221  ARG221      0.5346
     82  NH1      -16.4570  -94.5610  -60.7980 N.pl3 221  ARG221      0.1354
     83  NH2      -18.2020  -94.2580  -62.2430 N.pl3 221  ARG221      0.1354
@<TRIPOS>BOND
     1    76    75    2
     2    75    74    1
     3    60    61    1
     4    63    62    2
     5    64    65    1
     6    64    61    1
     7    62    61    1
     8    62    66   am
     9    65    59    1
    10    67    66    1
    11    67    70    1
    12    67    68    1
    13    74    73    1
    14    74    77    1
    15    66    72    1
    16    70    71    1
    17    77    78    1
    18    57    56    2
    19    72    71    1
    20    68    69    2
    21    56    55    1
    22    59    58    1
    23    23    24    1
    24    23    22    1
    25    78    79    1
    26    80    79    1
    27    80    81    2
    28    58    55    1
    29    55    54    1
    30    83    81    1
    31    24    18    1
    32    22    19    1
    33    81    82    1
    34    18    19    1
    35    18    12   am
    36    19    20    1
    37    11    12    1
    38    11    10    1
    39    11    14    1
    40    12    13    2
    41    20    21    2
    42    20    25   am
    43    17    15   am
    44    15    16    2
    45    15    14    1
    46    53    52    2
    47    33    31   ar
    48    25    26    1
    49    52    51    1
    50    30    31    1
    51    30    29    1
    52    31    32   ar
    53    26    29    1
    54    26    27    1
    55    51    50    1
    56    49    47   am
    57    50    44   am
    58    27    28    2
    59    47    46    1
    60    47    48    2
    61    44    43    1
    62    44    45    2
    63    46    43    1
    64    43    42    1
    65    37    36    2
    66    42    36   am
    67    36    35    1
    68     9     8    1
    69     8     7    1
    70    35    38    1
    71    35    34    1
    72    38    39    1
    73     4     3    2
    74    40    39   ar
    75    39    41   ar
    76     7     6    1
    77     5     6    1
    78     5     2    1
    79     3     2    1
    80     2     1    1
