@<TRIPOS>MOLECULE
tmp/3m73A03.pdb
 98 95 0 0 0
SMALL
GASTEIGER

@<TRIPOS>ATOM
      1  N         13.4190  -38.5280  -14.3740 N.3    59  TYR59      -0.1241
      2  CA        14.6120  -39.1570  -14.8900 C.3    59  TYR59       0.1605
      3  C         14.4810  -40.6720  -14.9540 C.2    59  TYR59       0.2264
      4  O         14.9800  -41.3000  -15.8880 O.2    59  TYR59      -0.2867
      5  CB        15.8500  -38.7550  -14.0830 C.3    59  TYR59       0.0534
      6  CG        17.1450  -38.9240  -14.8820 C.ar   59  TYR59      -0.0201
      7  CD1       17.6060  -37.9420  -15.7600 C.ar   59  TYR59      -0.0009
      8  CD2       17.8700  -40.0910  -14.8000 C.ar   59  TYR59      -0.0009
      9  CE1       18.7740  -38.1550  -16.4930 C.ar   59  TYR59       0.0417
     10  CE2       19.0090  -40.3020  -15.5450 C.ar   59  TYR59       0.0417
     11  CZ        19.4660  -39.3430  -16.3700 C.ar   59  TYR59       0.1957
     12  OH        20.6350  -39.5770  -17.1200 O.3    59  TYR59      -0.2866
     13  N         15.0290  -42.8950  -18.2420 N.3    63  LEU63      -0.1245
     14  CA        15.7850  -44.1370  -18.2950 C.3    63  LEU63       0.1561
     15  C         15.0180  -45.3190  -18.8650 C.2    63  LEU63       0.2260
     16  O         15.5500  -46.1390  -19.6000 O.2    63  LEU63      -0.2867
     17  CB        16.1960  -44.5300  -16.9050 C.3    63  LEU63       0.0270
     18  CG        17.3910  -43.8060  -16.3960 C.3    63  LEU63       0.0019
     19  CD1       17.4540  -43.9780  -14.8940 C.3    63  LEU63       0.0001
     20  CD2       18.6710  -44.3160  -17.0610 C.3    63  LEU63       0.0001
     21  N         16.0580  -44.5850  -23.0900 N.3    67  PHE67      -0.1241
     22  CA        17.3610  -44.9810  -22.6490 C.3    67  PHE67       0.1605
     23  C         18.4870  -44.5030  -23.5640 C.2    67  PHE67       0.2264
     24  O         19.5610  -44.1320  -23.0850 O.2    67  PHE67      -0.2867
     25  CB        17.4310  -46.4750  -22.4370 C.3    67  PHE67       0.0534
     26  CG        18.6930  -46.8990  -21.8350 C.ar   67  PHE67      -0.0203
     27  CD1       18.9290  -46.6650  -20.4900 C.ar   67  PHE67      -0.0042
     28  CD2       19.6940  -47.4230  -22.6050 C.ar   67  PHE67      -0.0042
     29  CE1       20.1010  -47.0220  -19.9170 C.ar   67  PHE67      -0.0003
     30  CE2       20.8820  -47.7820  -22.0400 C.ar   67  PHE67      -0.0003
     31  CZ        21.0750  -47.6030  -20.6720 C.ar   67  PHE67      -0.0000
     32  N         19.7980  -41.1710  -22.5560 N.3    70  VAL70      -0.1231
     33  CA        20.6810  -41.2670  -21.4050 C.3    70  VAL70       0.1692
     34  C         22.0330  -41.8030  -21.8330 C.2    70  VAL70       0.2591
     35  O         23.0750  -41.3120  -21.3950 O.2    70  VAL70      -0.2718
     36  CB        20.0570  -42.1490  -20.3100 C.3    70  VAL70       0.0266
     37  CG1       21.0410  -42.3450  -19.1790 C.3    70  VAL70       0.0020
     38  CG2       18.7630  -41.5340  -19.8060 C.3    70  VAL70       0.0020
     39  N         22.0340  -42.8420  -22.6430 N.am   71  ARG71      -0.1980
     40  CA        23.3070  -43.4320  -23.0520 C.3    71  ARG71       0.1597
     41  C         24.1780  -42.4030  -23.7430 C.2    71  ARG71       0.2287
     42  O         25.3870  -42.3560  -23.5070 O.2    71  ARG71      -0.2864
     43  CB        23.0340  -44.6230  -23.9600 C.3    71  ARG71       0.0334
     44  CG        24.2200  -45.3740  -24.3940 C.3    71  ARG71       0.0492
     45  CD        23.8730  -46.4110  -25.3830 C.3    71  ARG71       0.2205
     46  NE        24.9960  -47.1050  -25.9830 N.pl3  71  ARG71      -0.0865
     47  CZ        24.9670  -47.6700  -27.1870 C.cat  71  ARG71       0.5346
     48  NH1       23.8520  -47.6440  -27.9070 N.pl3  71  ARG71       0.1354
     49  NH2       26.0610  -48.2650  -27.6710 N.pl3  71  ARG71       0.1354
     50  N         25.6390  -40.0020  -21.2370 N.3    74  TYR74      -0.1227
     51  CA        26.6060  -40.7130  -20.4210 C.3    74  TYR74       0.1736
     52  C         27.9490  -40.8620  -21.1270 C.2    74  TYR74       0.2595
     53  O         28.9980  -40.6620  -20.5130 O.2    74  TYR74      -0.2718
     54  CB        26.0290  -42.0890  -20.0440 C.3    74  TYR74       0.0548
     55  CG        27.0000  -42.9610  -19.2650 C.ar   74  TYR74      -0.0200
     56  CD1       27.1670  -42.8060  -17.8960 C.ar   74  TYR74      -0.0009
     57  CD2       27.7930  -43.8680  -19.8960 C.ar   74  TYR74      -0.0009
     58  CE1       28.0610  -43.5700  -17.1840 C.ar   74  TYR74       0.0417
     59  CE2       28.7240  -44.6410  -19.1930 C.ar   74  TYR74       0.0417
     60  CZ        28.8540  -44.4700  -17.8380 C.ar   74  TYR74       0.1957
     61  OH        29.7630  -45.2210  -17.1080 O.3    74  TYR74      -0.2866
     62  N         27.9270  -41.2090  -22.4040 N.am   75  HIS75      -0.1975
     63  CA        29.1700  -41.4380  -23.1480 C.3    75  HIS75       0.1656
     64  C         29.8050  -40.1650  -23.6550 C.2    75  HIS75       0.2291
     65  O         30.9430  -40.1890  -24.0780 O.2    75  HIS75      -0.2864
     66  CB        28.9610  -42.4710  -24.2610 C.3    75  HIS75       0.0771
     67  CG        28.7340  -43.8560  -23.7410 C.ar   75  HIS75       0.0820
     68  ND1       29.6690  -44.5570  -23.0140 N.ar   75  HIS75      -0.2267
     69  CD2       27.6550  -44.6640  -23.8320 C.ar   75  HIS75       0.1154
     70  CE1       29.1930  -45.7510  -22.7070 C.ar   75  HIS75       0.1986
     71  NE2       27.9590  -45.8300  -23.1680 N.ar   75  HIS75      -0.2212
     72  N         25.0980  -35.8260  -15.0380 N.3    83  ILE83      -0.1245
     73  CA        24.4910  -36.9660  -14.3720 C.3    83  ILE83       0.1561
     74  C         24.9010  -37.0010  -12.8930 C.2    83  ILE83       0.2260
     75  O         24.1480  -37.4730  -12.0390 O.2    83  ILE83      -0.2867
     76  CB        24.8270  -38.2860  -15.1090 C.3    83  ILE83       0.0252
     77  CG1       24.2240  -38.2850  -16.5060 C.3    83  ILE83       0.0019
     78  CG2       24.3850  -39.5210  -14.3140 C.3    83  ILE83       0.0019
     79  CD1       24.7450  -39.3660  -17.4010 C.3    83  ILE83       0.0001
     80  N         22.5860  -36.0590   -9.9760 N.3    86  ILE86      -0.1245
     81  CA        21.5950  -36.9720   -9.4010 C.3    86  ILE86       0.1561
     82  C         22.0670  -37.4970   -8.0360 C.2    86  ILE86       0.2260
     83  O         21.3920  -37.2910   -7.0460 O.2    86  ILE86      -0.2867
     84  CB        21.2020  -38.0520  -10.4140 C.3    86  ILE86       0.0252
     85  CG1       20.5370  -37.3790  -11.6160 C.3    86  ILE86       0.0019
     86  CG2       20.3000  -39.0640   -9.7510 C.3    86  ILE86       0.0019
     87  CD1       20.2450  -38.3070  -12.7840 C.3    86  ILE86       0.0001
     88  N         30.0520  -43.8860  -10.3860 N.3   119  PHE119     -0.1241
     89  CA        29.9640  -43.0980  -11.5880 C.3   119  PHE119      0.1605
     90  C         31.3160  -42.5500  -12.0200 C.2   119  PHE119      0.2264
     91  O         31.7160  -42.6880  -13.1730 O.2   119  PHE119     -0.2867
     92  CB        28.9770  -41.9360  -11.3660 C.3   119  PHE119      0.0534
     93  CG        28.7600  -41.0870  -12.5820 C.ar  119  PHE119     -0.0203
     94  CD1       28.0480  -41.5580  -13.6420 C.ar  119  PHE119     -0.0042
     95  CD2       29.2390  -39.8160  -12.6720 C.ar  119  PHE119     -0.0042
     96  CE1       27.8050  -40.7590  -14.7620 C.ar  119  PHE119     -0.0003
     97  CE2       29.0140  -39.0380  -13.7940 C.ar  119  PHE119     -0.0003
     98  CZ        28.3050  -39.5270  -14.8370 C.ar  119  PHE119     -0.0000
@<TRIPOS>BOND
     1    48    47    1
     2    49    47    1
     3    47    46    2
     4    46    45    1
     5    45    44    1
     6    44    43    1
     7    66    67    1
     8    66    63    1
     9    65    64    2
    10    43    40    1
    11    69    67   ar
    12    69    71   ar
    13    41    42    2
    14    41    40    1
    15    67    68   ar
    16    64    63    1
    17    23    24    2
    18    23    22    1
    19    71    70   ar
    20    63    62    1
    21    21    22    1
    22    40    39    1
    23    68    70   ar
    24    22    25    1
    25    39    34   am
    26    28    30   ar
    27    28    26   ar
    28    32    33    1
    29    25    26    1
    30    62    52   am
    31    30    31   ar
    32    26    27   ar
    33    34    33    1
    34    34    35    2
    35    33    36    1
    36    50    51    1
    37    52    53    2
    38    52    51    1
    39    31    29   ar
    40    27    29   ar
    41    51    54    1
    42    36    38    1
    43    36    37    1
    44    54    55    1
    45    57    55   ar
    46    57    59   ar
    47    16    15    2
    48    55    56   ar
    49    59    60   ar
    50    15    14    1
    51    14    13    1
    52    14    17    1
    53    56    58   ar
    54    60    58   ar
    55    60    61    1
    56    79    77    1
    57    12    11    1
    58    20    18    1
    59    17    18    1
    60    77    76    1
    61     9    11   ar
    62     9     7   ar
    63    18    19    1
    64    11    10   ar
    65     4     3    2
    66     7     6   ar
    67    10     8   ar
    68    76    73    1
    69    76    78    1
    70    72    73    1
    71     3     2    1
    72     2     1    1
    73     2     5    1
    74     6     8   ar
    75     6     5    1
    76    98    96   ar
    77    98    97   ar
    78    96    94   ar
    79    73    74    1
    80    97    95   ar
    81    94    93   ar
    82    91    90    2
    83    74    75    2
    84    87    85    1
    85    95    93   ar
    86    93    92    1
    87    90    89    1
    88    85    84    1
    89    89    92    1
    90    89    88    1
    91    84    86    1
    92    84    81    1
    93    80    81    1
    94    81    82    1
    95    82    83    2
