@<TRIPOS>MOLECULE
tmp/3m73A02.pdb
 96 93 0 0 0
SMALL
GASTEIGER

@<TRIPOS>ATOM
      1  N         25.6390  -40.0020  -21.2370 N.3    74  TYR74      -0.1227
      2  CA        26.6060  -40.7130  -20.4210 C.3    74  TYR74       0.1736
      3  C         27.9490  -40.8620  -21.1270 C.2    74  TYR74       0.2595
      4  O         28.9980  -40.6620  -20.5130 O.2    74  TYR74      -0.2718
      5  CB        26.0290  -42.0890  -20.0440 C.3    74  TYR74       0.0548
      6  CG        27.0000  -42.9610  -19.2650 C.ar   74  TYR74      -0.0200
      7  CD1       27.1670  -42.8060  -17.8960 C.ar   74  TYR74      -0.0009
      8  CD2       27.7930  -43.8680  -19.8960 C.ar   74  TYR74      -0.0009
      9  CE1       28.0610  -43.5700  -17.1840 C.ar   74  TYR74       0.0417
     10  CE2       28.7240  -44.6410  -19.1930 C.ar   74  TYR74       0.0417
     11  CZ        28.8540  -44.4700  -17.8380 C.ar   74  TYR74       0.1957
     12  OH        29.7630  -45.2210  -17.1080 O.3    74  TYR74      -0.2866
     13  N         27.9270  -41.2090  -22.4040 N.am   75  HIS75      -0.1975
     14  CA        29.1700  -41.4380  -23.1480 C.3    75  HIS75       0.1656
     15  C         29.8050  -40.1650  -23.6550 C.2    75  HIS75       0.2291
     16  O         30.9430  -40.1890  -24.0780 O.2    75  HIS75      -0.2864
     17  CB        28.9610  -42.4710  -24.2610 C.3    75  HIS75       0.0771
     18  CG        28.7340  -43.8560  -23.7410 C.ar   75  HIS75       0.0820
     19  ND1       29.6690  -44.5570  -23.0140 N.ar   75  HIS75      -0.2267
     20  CD2       27.6550  -44.6640  -23.8320 C.ar   75  HIS75       0.1154
     21  CE1       29.1930  -45.7510  -22.7070 C.ar   75  HIS75       0.1986
     22  NE2       27.9590  -45.8300  -23.1680 N.ar   75  HIS75      -0.2212
     23  N         25.0980  -35.8260  -15.0380 N.3    83  ILE83      -0.1245
     24  CA        24.4910  -36.9660  -14.3720 C.3    83  ILE83       0.1561
     25  C         24.9010  -37.0010  -12.8930 C.2    83  ILE83       0.2260
     26  O         24.1480  -37.4730  -12.0390 O.2    83  ILE83      -0.2867
     27  CB        24.8270  -38.2860  -15.1090 C.3    83  ILE83       0.0252
     28  CG1       24.2240  -38.2850  -16.5060 C.3    83  ILE83       0.0019
     29  CG2       24.3850  -39.5210  -14.3140 C.3    83  ILE83       0.0019
     30  CD1       24.7450  -39.3660  -17.4010 C.3    83  ILE83       0.0001
     31  N         22.5860  -36.0590   -9.9760 N.3    86  ILE86      -0.1231
     32  CA        21.5950  -36.9720   -9.4010 C.3    86  ILE86       0.1678
     33  C         22.0670  -37.4970   -8.0360 C.2    86  ILE86       0.2434
     34  O         21.3920  -37.2910   -7.0460 O.2    86  ILE86      -0.2733
     35  CB        21.2020  -38.0520  -10.4140 C.3    86  ILE86       0.0265
     36  CG1       20.5370  -37.3790  -11.6160 C.3    86  ILE86       0.0019
     37  CG2       20.3000  -39.0640   -9.7510 C.3    86  ILE86       0.0020
     38  CD1       20.2450  -38.3070  -12.7840 C.3    86  ILE86       0.0001
     39  N         23.2350  -38.1530   -7.9630 N.am   87  PRO87      -0.2729
     40  CA        23.6890  -38.5630   -6.6180 C.3    87  PRO87       0.1401
     41  C         24.0190  -37.4050   -5.6800 C.2    87  PRO87       0.2269
     42  O         23.8080  -37.5070   -4.4720 O.2    87  PRO87      -0.2865
     43  CB        24.9000  -39.4770   -6.8980 C.3    87  PRO87       0.0296
     44  CG        25.3710  -39.0570   -8.2510 C.3    87  PRO87       0.0237
     45  CD        24.0950  -38.7240   -9.0090 C.3    87  PRO87       0.0939
     46  N         26.7510  -44.2830   -5.4340 N.3   115  GLY115     -0.1225
     47  CA        26.4330  -43.9280   -6.8020 C.3   115  GLY115      0.1811
     48  C         27.4550  -42.9980   -7.4300 C.2   115  GLY115      0.2280
     49  O         27.8950  -43.1900   -8.5550 O.2   115  GLY115     -0.2866
     50  N         30.8750  -44.8060   -7.8700 N.3   118  LEU118     -0.1231
     51  CA        30.8090  -45.7180   -8.9980 C.3   118  LEU118      0.1693
     52  C         30.8350  -44.9610  -10.3190 C.2   118  LEU118      0.2592
     53  O         31.5180  -45.3410  -11.2650 O.2   118  LEU118     -0.2718
     54  CB        29.5400  -46.5670   -8.9140 C.3   118  LEU118      0.0284
     55  CG        29.3170  -47.5260  -10.0600 C.3   118  LEU118      0.0019
     56  CD1       30.4520  -48.5470  -10.1470 C.3   118  LEU118      0.0001
     57  CD2       27.9660  -48.2240   -9.8510 C.3   118  LEU118      0.0001
     58  N         30.0520  -43.8860  -10.3860 N.am  119  PHE119     -0.1976
     59  CA        29.9640  -43.0980  -11.5880 C.3   119  PHE119      0.1639
     60  C         31.3160  -42.5500  -12.0200 C.2   119  PHE119      0.2290
     61  O         31.7160  -42.6880  -13.1730 O.2   119  PHE119     -0.2864
     62  CB        28.9770  -41.9360  -11.3660 C.3   119  PHE119      0.0560
     63  CG        28.7600  -41.0870  -12.5820 C.ar  119  PHE119     -0.0200
     64  CD1       28.0480  -41.5580  -13.6420 C.ar  119  PHE119     -0.0042
     65  CD2       29.2390  -39.8160  -12.6720 C.ar  119  PHE119     -0.0042
     66  CE1       27.8050  -40.7590  -14.7620 C.ar  119  PHE119     -0.0003
     67  CE2       29.0140  -39.0380  -13.7940 C.ar  119  PHE119     -0.0003
     68  CZ        28.3050  -39.5270  -14.8370 C.ar  119  PHE119     -0.0000
     69  N         33.7560  -45.3070  -13.0780 N.3   122  LEU122     -0.1231
     70  CA        33.4690  -45.7940  -14.4270 C.3   122  LEU122      0.1693
     71  C         33.8120  -44.7890  -15.5060 C.2   122  LEU122      0.2591
     72  O         34.4080  -45.1590  -16.5110 O.2   122  LEU122     -0.2718
     73  CB        32.0020  -46.1690  -14.5620 C.3   122  LEU122      0.0284
     74  CG        31.6010  -47.4110  -13.7750 C.3   122  LEU122      0.0019
     75  CD1       30.1030  -47.6100  -13.7710 C.3   122  LEU122      0.0001
     76  CD2       32.3030  -48.6180  -14.3350 C.3   122  LEU122      0.0001
     77  N         33.4140  -43.5280  -15.3380 N.am  123  ARG123     -0.1980
     78  CA        33.4970  -42.5560  -16.4230 C.3   123  ARG123      0.1597
     79  C         34.6320  -41.5790  -16.3850 C.2   123  ARG123      0.2287
     80  O         35.1980  -41.2810  -17.4360 O.2   123  ARG123     -0.2864
     81  CB        32.2030  -41.7790  -16.5260 C.3   123  ARG123      0.0334
     82  CG        31.1470  -42.6500  -17.0310 C.3   123  ARG123      0.0492
     83  CD        31.4060  -43.0090  -18.4930 C.3   123  ARG123      0.2205
     84  NE        31.2890  -41.8110  -19.3070 N.pl3 123  ARG123     -0.0865
     85  CZ        32.2190  -41.2930  -20.1030 C.cat 123  ARG123      0.5346
     86  NH1       33.3680  -41.9220  -20.3230 N.pl3 123  ARG123      0.1354
     87  NH2       31.9700  -40.1600  -20.7250 N.pl3 123  ARG123      0.1354
     88  N         37.7250  -43.4270  -17.3790 N.3   126  GLU126     -0.1245
     89  CA        37.6900  -43.8540  -18.7680 C.3   126  GLU126      0.1567
     90  C         38.2420  -42.7780  -19.6980 C.2   126  GLU126      0.2260
     91  O         38.7900  -43.1080  -20.7740 O.2   126  GLU126     -0.2867
     92  CB        36.2440  -44.1920  -19.1640 C.3   126  GLU126      0.0388
     93  CG        36.1140  -44.8310  -20.4880 C.3   126  GLU126      0.1160
     94  CD        34.6980  -45.2740  -20.7830 C.2   126  GLU126      0.3649
     95  OE1       33.7080  -44.7730  -20.1790 O.co2 126  GLU126     -0.2457
     96  OE2       34.5520  -46.1130  -21.7150 O.co2 126  GLU126     -0.2457
@<TRIPOS>BOND
     1    17    18    1
     2    17    14    1
     3    16    15    2
     4    20    18   ar
     5    20    22   ar
     6    18    19   ar
     7    15    14    1
     8    22    21   ar
     9    14    13    1
    10    19    21   ar
    11    13     3   am
    12    96    94   ar
    13     1     2    1
    14     3     4    2
    15     3     2    1
    16    94    93    1
    17    94    95   ar
    18    91    90    2
    19    87    85    1
    20    93    92    1
    21     2     5    1
    22    86    85    1
    23    85    84    2
    24     5     6    1
    25     8     6   ar
    26     8    10   ar
    27    90    89    1
    28    84    83    1
    29     6     7   ar
    30    10    11   ar
    31    92    89    1
    32    89    88    1
    33    83    82    1
    34     7     9   ar
    35    11     9   ar
    36    11    12    1
    37    80    79    2
    38    30    28    1
    39    82    81    1
    40    81    78    1
    41    72    71    2
    42    28    27    1
    43    78    79    1
    44    78    77    1
    45    71    77   am
    46    71    70    1
    47    27    24    1
    48    27    29    1
    49    23    24    1
    50    68    66   ar
    51    68    67   ar
    52    66    64   ar
    53    73    70    1
    54    73    74    1
    55    70    69    1
    56    24    25    1
    57    76    74    1
    58    67    65   ar
    59    74    75    1
    60    64    63   ar
    61    61    60    2
    62    25    26    2
    63    38    36    1
    64    65    63   ar
    65    63    62    1
    66    60    59    1
    67    36    35    1
    68    59    62    1
    69    59    58    1
    70    53    52    2
    71    35    37    1
    72    35    32    1
    73    58    52   am
    74    52    51    1
    75    56    55    1
    76    55    57    1
    77    55    54    1
    78    31    32    1
    79    32    33    1
    80    45    44    1
    81    45    39    1
    82    51    54    1
    83    51    50    1
    84    49    48    2
    85    44    43    1
    86    33    39   am
    87    33    34    2
    88    39    40    1
    89    48    47    1
    90    43    40    1
    91    47    46    1
    92    40    41    1
    93    41    42    2
