@<TRIPOS>MOLECULE
tmp/3m7nF00.pdb
 154 145 0 0 0
SMALL
GASTEIGER

@<TRIPOS>ATOM
      1  N         53.2950  -43.3750   38.8250 N.3    74  MET74      -0.1245
      2  CA        54.2370  -43.3640   39.9280 C.3    74  MET74       0.1570
      3  C         53.5140  -43.3050   41.2550 C.2    74  MET74       0.2261
      4  O         52.8130  -42.3330   41.5360 O.2    74  MET74      -0.2867
      5  CB        55.1970  -42.1860   39.8110 C.3    74  MET74       0.0387
      6  CG        56.1320  -42.2810   38.6110 C.3    74  MET74       0.0595
      7  SD        57.6360  -41.3480   38.9100 S.3    74  MET74      -0.1393
      8  CE        57.0410  -39.7250   38.5030 C.3    74  MET74       0.0692
      9  N         58.9510  -41.7850   45.3280 N.3    79  VAL79      -0.1231
     10  CA        59.9430  -40.7300   45.1640 C.3    79  VAL79       0.1692
     11  C         60.3240  -40.0330   46.4830 C.2    79  VAL79       0.2591
     12  O         59.6490  -40.1830   47.5060 O.2    79  VAL79      -0.2718
     13  CB        59.4620  -39.6970   44.1380 C.3    79  VAL79       0.0266
     14  CG1       59.4020  -40.3240   42.7480 C.3    79  VAL79       0.0020
     15  CG2       58.0960  -39.1570   44.5340 C.3    79  VAL79       0.0020
     16  N         61.4120  -39.2710   46.4490 N.am   80  GLU80      -0.1979
     17  CA        61.9990  -38.7020   47.6640 C.3    80  GLU80       0.1602
     18  C         61.0320  -37.7970   48.4160 C.2    80  GLU80       0.2287
     19  O         60.9300  -37.8710   49.6360 O.2    80  GLU80      -0.2864
     20  CB        63.2910  -37.9460   47.3520 C.3    80  GLU80       0.0415
     21  CG        64.5420  -38.5700   47.9470 C.3    80  GLU80       0.1163
     22  CD        65.7970  -37.7860   47.6110 C.2    80  GLU80       0.3649
     23  OE1       65.6800  -36.7280   46.9580 O.co2  80  GLU80      -0.2457
     24  OE2       66.8990  -38.2290   47.9970 O.co2  80  GLU80      -0.2457
     25  N         54.7050  -37.6420   46.0520 N.3    83  LYS83      -0.1231
     26  CA        54.1640  -37.1640   44.7950 C.3    83  LYS83       0.1693
     27  C         52.6490  -37.2110   44.8000 C.2    83  LYS83       0.2591
     28  O         52.0520  -38.2540   44.9980 O.2    83  LYS83      -0.2718
     29  CB        54.7090  -37.9820   43.6260 C.3    83  LYS83       0.0285
     30  CG        54.4170  -37.3490   42.2790 C.3    83  LYS83       0.0035
     31  CD        54.8540  -38.2290   41.1170 C.3    83  LYS83       0.0206
     32  CE        54.5590  -37.5380   39.7890 C.3    83  LYS83       0.1093
     33  NZ        54.1160  -38.5380   38.7590 N.3    83  LYS83      -0.1314
     34  N         52.0240  -36.0690   44.5850 N.am   84  ARG84      -0.1980
     35  CA        50.5770  -36.0210   44.5760 C.3    84  ARG84       0.1597
     36  C         50.0980  -36.9010   43.4420 C.2    84  ARG84       0.2287
     37  O         50.5180  -36.7210   42.3000 O.2    84  ARG84      -0.2864
     38  CB        50.1030  -34.5830   44.3850 C.3    84  ARG84       0.0334
     39  CG        48.6120  -34.4160   44.2320 C.3    84  ARG84       0.0492
     40  CD        48.2520  -32.9390   44.2720 C.3    84  ARG84       0.2205
     41  NE        49.2560  -32.1160   43.5950 N.pl3  84  ARG84      -0.0865
     42  CZ        49.2790  -31.8850   42.2850 C.cat  84  ARG84       0.5346
     43  NH1       50.2330  -31.1240   41.7620 N.pl3  84  ARG84       0.1354
     44  NH2       48.3470  -32.4150   41.4980 N.pl3  84  ARG84       0.1354
     45  N         50.5830  -36.5400   35.4600 N.3    88  ASP88      -0.1225
     46  CA        51.0720  -35.2380   35.0610 C.3    88  ASP88       0.1805
     47  C         51.5680  -35.3610   33.6240 C.2    88  ASP88       0.2598
     48  O         51.4590  -36.4360   33.0270 O.2    88  ASP88      -0.2718
     49  CB        52.1590  -34.7500   36.0200 C.3    88  ASP88       0.1424
     50  CG        53.2520  -35.7740   36.2450 C.2    88  ASP88       0.3668
     51  OD1       54.2000  -35.4740   37.0050 O.co2  88  ASP88      -0.2456
     52  OD2       53.1740  -36.8690   35.6590 O.co2  88  ASP88      -0.2456
     53  N         52.0890  -34.2710   33.0650 N.am   89  ARG89      -0.1966
     54  CA        52.4120  -34.2280   31.6390 C.3    89  ARG89       0.1729
     55  C         53.4410  -35.3000   31.3060 C.2    89  ARG89       0.2616
     56  O         53.3560  -35.9640   30.2680 O.2    89  ARG89      -0.2715
     57  CB        52.9540  -32.8540   31.2400 C.3    89  ARG89       0.0348
     58  CG        52.2360  -31.7070   31.8950 C.3    89  ARG89       0.0492
     59  CD        52.0820  -30.5150   30.9700 C.3    89  ARG89       0.2205
     60  NE        53.3460  -29.9200   30.5450 N.pl3  89  ARG89      -0.0865
     61  CZ        53.4560  -29.1610   29.4570 C.cat  89  ARG89       0.5346
     62  NH1       54.6320  -28.6370   29.1110 N.pl3  89  ARG89       0.1354
     63  NH2       52.3820  -28.9350   28.7030 N.pl3  89  ARG89       0.1354
     64  N         54.4090  -35.4660   32.2040 N.am   90  ARG90      -0.1977
     65  CA        55.4880  -36.4140   31.9910 C.3    90  ARG90       0.1597
     66  C         54.9890  -37.8610   31.9490 C.2    90  ARG90       0.2287
     67  O         55.3950  -38.6400   31.0800 O.2    90  ARG90      -0.2864
     68  CB        56.5550  -36.2480   33.0610 C.3    90  ARG90       0.0334
     69  CG        57.5660  -37.3390   33.0480 C.3    90  ARG90       0.0492
     70  CD        58.5790  -37.1340   34.1380 C.3    90  ARG90       0.2205
     71  NE        59.2620  -38.3820   34.4650 N.pl3  90  ARG90      -0.0865
     72  CZ        58.7140  -39.3460   35.2000 C.cat  90  ARG90       0.5346
     73  NH1       59.3930  -40.4500   35.4600 N.pl3  90  ARG90       0.1354
     74  NH2       57.4750  -39.2040   35.6730 N.pl3  90  ARG90       0.1354
     75  N         61.1260  -45.3910   42.6140 N.3   125  ALA125     -0.1231
     76  CA        61.7190  -44.8400   41.3940 C.3   125  ALA125      0.1694
     77  C         63.1760  -44.4880   41.5650 C.2   125  ALA125      0.2592
     78  O         63.6060  -44.0360   42.6190 O.2   125  ALA125     -0.2718
     79  CB        60.9480  -43.6260   40.8970 C.3   125  ALA125      0.0304
     80  N         63.9320  -44.7160   40.5060 N.am  126  ASP126     -0.1960
     81  CA        65.2690  -44.1730   40.3790 C.3   126  ASP126      0.1840
     82  C         65.3920  -43.7890   38.9130 C.2   126  ASP126      0.2622
     83  O         64.3870  -43.7570   38.1880 O.2   126  ASP126     -0.2715
     84  CB        66.3140  -45.2200   40.7650 C.3   126  ASP126      0.1450
     85  CG        67.6320  -44.5950   41.1890 C.2   126  ASP126      0.3671
     86  OD1       67.8770  -44.4920   42.4060 O.co2 126  ASP126     -0.2456
     87  OD2       68.4160  -44.1880   40.3080 O.co2 126  ASP126     -0.2456
     88  N         66.6020  -43.5150   38.4520 N.am  127  ALA127     -0.1963
     89  CA        66.7710  -43.1590   37.0510 C.3   127  ALA127      0.1728
     90  C         66.3320  -44.3230   36.1770 C.2   127  ALA127      0.2617
     91  O         66.4560  -45.4730   36.5660 O.2   127  ALA127     -0.2715
     92  CB        68.2120  -42.8010   36.7710 C.3   127  ALA127      0.0334
     93  N         65.8060  -44.0240   34.9990 N.am  128  GLY128     -0.1940
     94  CA        65.4260  -45.0510   34.0440 C.3   128  GLY128      0.2014
     95  C         64.1900  -45.8780   34.3510 C.2   128  GLY128      0.2640
     96  O         64.0110  -46.9680   33.7730 O.2   128  GLY128     -0.2714
     97  N         63.3300  -45.3720   35.2400 N.am  129  SER129     -0.1935
     98  CA        62.0820  -46.0650   35.5620 C.3   129  SER129      0.2055
     99  C         61.2070  -46.4140   34.3340 C.2   129  SER129      0.2642
    100  O         60.5900  -47.4920   34.2960 O.2   129  SER129     -0.2714
    101  CB        61.2700  -45.3080   36.6330 C.3   129  SER129      0.2130
    102  OG        60.8910  -43.9990   36.2070 O.3   129  SER129     -0.2179
    103  N         61.1480  -45.5340   33.3340 N.am  130  ARG130     -0.1977
    104  CA        60.3090  -45.8130   32.1580 C.3   130  ARG130      0.1597
    105  C         60.8760  -47.0100   31.3760 C.2   130  ARG130      0.2287
    106  O         60.1780  -47.7250   30.6710 O.2   130  ARG130     -0.2864
    107  CB        60.2120  -44.5830   31.2480 C.3   130  ARG130      0.0334
    108  CG        61.2340  -44.5520   30.1100 C.3   130  ARG130      0.0492
    109  CD        61.2010  -43.2330   29.3330 C.3   130  ARG130      0.2205
    110  NE        61.3500  -42.0490   30.1780 N.pl3 130  ARG130     -0.0865
    111  CZ        61.0000  -40.8260   29.7940 C.cat 130  ARG130      0.5346
    112  NH1       60.4790  -40.6350   28.5900 N.pl3 130  ARG130      0.1354
    113  NH2       61.1500  -39.7920   30.6100 N.pl3 130  ARG130      0.1354
    114  N         70.7780  -42.2460   39.3630 N.3   170  LYS170     -0.1245
    115  CA        70.1690  -40.9600   39.6800 C.3   170  LYS170      0.1561
    116  C         71.1220  -39.7750   39.5900 C.2   170  LYS170      0.2260
    117  O         70.8040  -38.7610   38.9720 O.2   170  LYS170     -0.2867
    118  CB        69.5280  -41.0050   41.0670 C.3   170  LYS170      0.0271
    119  CG        68.7100  -39.7730   41.3960 C.3   170  LYS170      0.0035
    120  CD        67.6370  -40.0690   42.4440 C.3   170  LYS170      0.0206
    121  CE        66.7750  -38.8320   42.7280 C.3   170  LYS170      0.1093
    122  NZ        67.4880  -37.7900   43.5470 N.3   170  LYS170     -0.1314
    123  N         71.9920  -39.0700   35.9700 N.3   173  ASP173     -0.1225
    124  CA        70.8990  -38.4190   35.2850 C.3   173  ASP173      0.1805
    125  C         70.9450  -36.9240   35.5570 C.2   173  ASP173      0.2597
    126  O         71.0440  -36.1250   34.6410 O.2   173  ASP173     -0.2718
    127  CB        69.5840  -38.9780   35.8020 C.3   173  ASP173      0.1424
    128  CG        68.7020  -39.4580   34.7060 C.2   173  ASP173      0.3668
    129  OD1       69.2500  -39.9610   33.6920 O.co2 173  ASP173     -0.2456
    130  OD2       67.4670  -39.3250   34.8620 O.co2 173  ASP173     -0.2456
    131  N         70.9050  -36.5620   36.8340 N.am  174  ASN174     -0.1974
    132  CA        70.8150  -35.1680   37.2380 C.3   174  ASN174      0.1688
    133  C         72.0430  -34.3420   36.9220 C.2   174  ASN174      0.2292
    134  O         71.9200  -33.1700   36.6000 O.2   174  ASN174     -0.2864
    135  CB        70.5230  -35.0550   38.7390 C.3   174  ASN174      0.1181
    136  CG        69.1920  -35.6740   39.1260 C.2   174  ASN174      0.2629
    137  OD1       68.3140  -35.8890   38.2780 O.2   174  ASN174     -0.2716
    138  ND2       69.0340  -35.9730   40.4140 N.am  174  ASN174     -0.0877
    139  N         70.7980  -37.9080   28.6470 N.3   179  ASP179     -0.1239
    140  CA        70.0980  -39.1360   28.9960 C.3   179  ASP179      0.1674
    141  C         69.3120  -39.5940   27.7920 C.2   179  ASP179      0.2266
    142  O         68.6050  -38.8010   27.1940 O.2   179  ASP179     -0.2867
    143  CB        69.1330  -38.9260   30.1680 C.3   179  ASP179      0.1410
    144  CG        68.4800  -40.2330   30.6220 C.2   179  ASP179      0.3668
    145  OD1       67.2750  -40.2420   30.9230 O.co2 179  ASP179     -0.2456
    146  OD2       69.1730  -41.2680   30.6510 O.co2 179  ASP179     -0.2456
    147  N         67.5900  -36.2870   25.7100 N.3   200  ASP200     -0.1239
    148  CA        67.7320  -34.8900   26.1280 C.3   200  ASP200      0.1674
    149  C         69.1740  -34.6970   26.5910 C.2   200  ASP200      0.2266
    150  O         69.8000  -35.6340   27.0820 O.2   200  ASP200     -0.2867
    151  CB        66.7630  -34.5550   27.2740 C.3   200  ASP200      0.1410
    152  CG        65.3080  -34.6140   26.8390 C.2   200  ASP200      0.3668
    153  OD1       64.8060  -33.5970   26.3020 O.co2 200  ASP200     -0.2456
    154  OD2       64.6690  -35.6830   27.0000 O.co2 200  ASP200     -0.2456
@<TRIPOS>BOND
     1   147   148    1
     2   148   149    1
     3   148   151    1
     4   153   152   ar
     5   149   150    2
     6   152   154   ar
     7   152   151    1
     8   142   141    2
     9   141   140    1
    10   112   111    1
    11   139   140    1
    12    63    61    1
    13   140   143    1
    14    62    61    1
    15   109   108    1
    16   109   110    1
    17    61    60    2
    18   111   110    2
    19   111   113    1
    20   108   107    1
    21   143   144    1
    22    56    55    2
    23    60    59    1
    24   144   146   ar
    25   144   145   ar
    26   106   105    2
    27    59    58    1
    28    67    66    2
    29    57    54    1
    30    57    58    1
    31   107   104    1
    32    55    54    1
    33    55    64   am
    34   105   104    1
    35    54    53    1
    36    66    65    1
    37    65    64    1
    38    65    68    1
    39   104   103    1
    40    48    47    2
    41    69    68    1
    42    69    70    1
    43    53    47   am
    44   103    99   am
    45    47    46    1
    46   129   128   ar
    47    96    95    2
    48    94    95    1
    49    94    93    1
    50    70    71    1
    51   100    99    2
    52    99    98    1
    53    95    97   am
    54    71    72    2
    55   126   125    2
    56   128   130   ar
    57   128   127    1
    58    93    90   am
    59    46    45    1
    60    46    49    1
    61    72    73    1
    62    72    74    1
    63    97    98    1
    64   124   125    1
    65   124   127    1
    66   124   123    1
    67   125   131   am
    68    98   101    1
    69    52    50   ar
    70    49    50    1
    71    90    91    2
    72    90    89    1
    73   102   101    1
    74    50    51   ar
    75   134   133    2
    76    92    89    1
    77   131   132    1
    78   133   132    1
    79    89    88    1
    80   132   135    1
    81    83    82    2
    82   137   136    2
    83    88    82   am
    84     8     7    1
    85     6     7    1
    86     6     5    1
    87   135   136    1
    88    33    32    1
    89     1     2    1
    90    82    81    1
    91   117   116    2
    92   136   138   am
    93   114   115    1
    94   116   115    1
    95   115   118    1
    96    32    31    1
    97     5     2    1
    98     2     3    1
    99    87    85   ar
   100    81    80    1
   101    81    84    1
   102    80    77   am
   103    84    85    1
   104    79    76    1
   105   118   119    1
   106    31    30    1
   107    85    86   ar
   108     3     4    2
   109    76    77    1
   110    76    75    1
   111   119   120    1
   112    44    42    1
   113    77    78    2
   114    43    42    1
   115    30    29    1
   116    42    41    2
   117    37    36    2
   118   120   121    1
   119   121   122    1
   120    14    13    1
   121    36    35    1
   122    41    40    1
   123    29    26    1
   124    13    15    1
   125    13    10    1
   126    39    40    1
   127    39    38    1
   128    38    35    1
   129    35    34    1
   130    34    27   am
   131    26    27    1
   132    26    25    1
   133    27    28    2
   134    10     9    1
   135    10    11    1
   136    16    11   am
   137    16    17    1
   138    11    12    2
   139    23    22   ar
   140    20    17    1
   141    20    21    1
   142    22    21    1
   143    22    24   ar
   144    17    18    1
   145    18    19    2
