@<TRIPOS>MOLECULE
tmp/3m7nE00.pdb
 143 134 0 0 0
SMALL
GASTEIGER

@<TRIPOS>ATOM
      1  N         26.1910  -29.7210   51.0550 N.3    76  MET76      -0.1245
      2  CA        26.1160  -28.6260   51.9900 C.3    76  MET76       0.1570
      3  C         26.2780  -27.3150   51.2230 C.2    76  MET76       0.2261
      4  O         27.1700  -27.1860   50.3840 O.2    76  MET76      -0.2867
      5  CB        27.2050  -28.7620   53.0550 C.3    76  MET76       0.0387
      6  CG        27.3430  -30.1640   53.6190 C.3    76  MET76       0.0595
      7  SD        28.6120  -30.2530   54.9010 S.3    76  MET76      -0.1393
      8  CE        27.8760  -29.2910   56.2220 C.3    76  MET76       0.0692
      9  N         27.8360  -23.7090   57.0910 N.3    81  VAL81      -0.1231
     10  CA        28.8130  -23.9860   58.1360 C.3    81  VAL81       0.1692
     11  C         29.5080  -22.7360   58.6650 C.2    81  VAL81       0.2591
     12  O         29.3620  -21.6470   58.1270 O.2    81  VAL81      -0.2718
     13  CB        29.8780  -25.0020   57.6720 C.3    81  VAL81       0.0266
     14  CG1       29.2710  -26.3810   57.5270 C.3    81  VAL81       0.0020
     15  CG2       30.4990  -24.5550   56.3710 C.3    81  VAL81       0.0020
     16  N         30.2770  -22.9120   59.7290 N.am   82  GLU82      -0.1979
     17  CA        30.8840  -21.7930   60.4350 C.3    82  GLU82       0.1602
     18  C         31.8150  -20.9880   59.5230 C.2    82  GLU82       0.2287
     19  O         31.7930  -19.7560   59.5330 O.2    82  GLU82      -0.2864
     20  CB        31.6260  -22.2970   61.6790 C.3    82  GLU82       0.0415
     21  CG        30.7190  -22.6320   62.8940 C.3    82  GLU82       0.1163
     22  CD        30.0080  -24.0070   62.8400 C.2    82  GLU82       0.3649
     23  OE1       30.3430  -24.8760   61.9930 O.co2  82  GLU82      -0.2457
     24  OE2       29.1030  -24.2160   63.6840 O.co2  82  GLU82      -0.2457
     25  N         32.1870  -22.7530   53.0490 N.3    85  LYS85      -0.1245
     26  CA        32.7920  -23.9600   52.4930 C.3    85  LYS85       0.1561
     27  C         32.6830  -24.0070   50.9680 C.2    85  LYS85       0.2260
     28  O         31.5850  -23.9220   50.4260 O.2    85  LYS85      -0.2867
     29  CB        32.1330  -25.1970   53.0990 C.3    85  LYS85       0.0271
     30  CG        32.7300  -26.4940   52.6290 C.3    85  LYS85       0.0035
     31  CD        31.7810  -27.6540   52.8180 C.3    85  LYS85       0.0206
     32  CE        32.4560  -28.9440   52.3880 C.3    85  LYS85       0.1093
     33  NZ        31.5430  -29.7900   51.5630 N.3    85  LYS85      -0.1314
     34  N         33.0110  -33.0400   48.4070 N.3    90  ASP90      -0.1225
     35  CA        34.2620  -33.4880   48.9700 C.3    90  ASP90       0.1805
     36  C         34.1310  -34.9710   49.3320 C.2    90  ASP90       0.2598
     37  O         33.0850  -35.5940   49.1310 O.2    90  ASP90      -0.2718
     38  CB        34.6650  -32.6210   50.1710 C.3    90  ASP90       0.1424
     39  CG        33.6320  -32.6280   51.2930 C.2    90  ASP90       0.3668
     40  OD1       33.8030  -31.8380   52.2360 O.co2  90  ASP90      -0.2456
     41  OD2       32.6670  -33.4160   51.2560 O.co2  90  ASP90      -0.2456
     42  N         35.1960  -35.5430   49.8530 N.am   91  ARG91      -0.1966
     43  CA        35.1890  -36.9630   50.1530 C.3    91  ARG91       0.1729
     44  C         34.1210  -37.3190   51.1870 C.2    91  ARG91       0.2616
     45  O         33.4200  -38.3230   51.0480 O.2    91  ARG91      -0.2715
     46  CB        36.5910  -37.3950   50.5820 C.3    91  ARG91       0.0348
     47  CG        37.5900  -37.1430   49.4730 C.3    91  ARG91       0.0492
     48  CD        38.9980  -37.0810   49.9730 C.3    91  ARG91       0.2205
     49  NE        39.5650  -38.4120   50.1030 N.pl3  91  ARG91      -0.0865
     50  CZ        40.0780  -38.8820   51.2350 C.cat  91  ARG91       0.5346
     51  NH1       40.0910  -38.1170   52.3190 N.pl3  91  ARG91       0.1354
     52  NH2       40.5810  -40.1120   51.2800 N.pl3  91  ARG91       0.1354
     53  N         33.9740  -36.4620   52.1920 N.am   92  ARG92      -0.1977
     54  CA        32.9720  -36.6580   53.2340 C.3    92  ARG92       0.1597
     55  C         31.5470  -36.6770   52.6460 C.2    92  ARG92       0.2287
     56  O         30.7570  -37.5680   52.9600 O.2    92  ARG92      -0.2864
     57  CB        33.1270  -35.6000   54.3410 C.3    92  ARG92       0.0334
     58  CG        32.0030  -35.6020   55.3560 C.3    92  ARG92       0.0492
     59  CD        32.1630  -34.4970   56.3930 C.3    92  ARG92       0.2205
     60  NE        30.9980  -34.4270   57.2690 N.pl3  92  ARG92      -0.0865
     61  CZ        29.9000  -33.7150   57.0120 C.cat  92  ARG92       0.5346
     62  NH1       28.8880  -33.7180   57.8710 N.pl3  92  ARG92       0.1354
     63  NH2       29.8070  -33.0010   55.8990 N.pl3  92  ARG92       0.1354
     64  N         24.0190  -26.2050   59.0310 N.3   127  ALA127     -0.1231
     65  CA        24.6380  -27.4280   59.4950 C.3   127  ALA127      0.1694
     66  C         24.9090  -27.4160   60.9780 C.2   127  ALA127      0.2592
     67  O         25.3930  -26.4360   61.5410 O.2   127  ALA127     -0.2718
     68  CB        25.9250  -27.6830   58.7420 C.3   127  ALA127      0.0304
     69  N         24.5980  -28.5310   61.6110 N.am  128  ASP128     -0.1960
     70  CA        25.0860  -28.7740   62.9530 C.3   128  ASP128      0.1840
     71  C         25.4070  -30.2590   63.0390 C.2   128  ASP128      0.2622
     72  O         25.3660  -30.9540   62.0220 O.2   128  ASP128     -0.2715
     73  CB        24.0650  -28.3420   64.0030 C.3   128  ASP128      0.1450
     74  CG        24.7180  -27.9500   65.3100 C.2   128  ASP128      0.3671
     75  OD1       24.9320  -26.7380   65.5470 O.co2 128  ASP128     -0.2456
     76  OD2       25.0410  -28.8640   66.0940 O.co2 128  ASP128     -0.2456
     77  N         25.7460  -30.7430   64.2290 N.am  129  ALA129     -0.1963
     78  CA        26.0370  -32.1580   64.3930 C.3   129  ALA129      0.1728
     79  C         24.8370  -32.9610   63.9130 C.2   129  ALA129      0.2617
     80  O         23.7030  -32.5440   64.0920 O.2   129  ALA129     -0.2715
     81  CB        26.3610  -32.4770   65.8540 C.3   129  ALA129      0.0334
     82  N         25.0900  -34.1030   63.2880 N.am  130  GLY130     -0.1940
     83  CA        24.0250  -34.9840   62.8730 C.3   130  GLY130      0.2014
     84  C         23.3400  -34.6480   61.5570 C.2   130  GLY130      0.2640
     85  O         22.3130  -35.2660   61.2390 O.2   130  GLY130     -0.2714
     86  N         23.8810  -33.7020   60.7840 N.am  131  SER131     -0.1935
     87  CA        23.2280  -33.3090   59.5210 C.3   131  SER131      0.2055
     88  C         22.9240  -34.4890   58.5990 C.2   131  SER131      0.2642
     89  O         21.9190  -34.4830   57.8850 O.2   131  SER131     -0.2714
     90  CB        24.0100  -32.2310   58.7550 C.3   131  SER131      0.2130
     91  OG        25.2800  -32.6810   58.3230 O.3   131  SER131     -0.2179
     92  N         23.7580  -35.5190   58.6320 N.am  132  ARG132     -0.1977
     93  CA        23.4650  -36.6910   57.8080 C.3   132  ARG132      0.1597
     94  C         22.1970  -37.4230   58.2810 C.2   132  ARG132      0.2287
     95  O         21.4400  -37.9530   57.4690 O.2   132  ARG132     -0.2864
     96  CB        24.6720  -37.6300   57.7000 C.3   132  ARG132      0.0334
     97  CG        24.6700  -38.7930   58.6670 C.3   132  ARG132      0.0492
     98  CD        26.0010  -39.5200   58.6170 C.3   132  ARG132      0.2205
     99  NE        27.1070  -38.5760   58.7650 N.pl3 132  ARG132     -0.0865
    100  CZ        28.3860  -38.8970   58.6000 C.cat 132  ARG132      0.5346
    101  NH1       28.7230  -40.1430   58.2940 N.pl3 132  ARG132      0.1354
    102  NH2       29.3270  -37.9810   58.7490 N.pl3 132  ARG132      0.1354
    103  N         26.8190  -29.8830   68.2800 N.3   172  LYS172     -0.1245
    104  CA        28.1350  -29.6450   67.7010 C.3   172  LYS172      0.1561
    105  C         29.2480  -29.7940   68.7390 C.2   172  LYS172      0.2260
    106  O         30.2450  -30.4970   68.5080 O.2   172  LYS172     -0.2867
    107  CB        28.1700  -28.2660   67.0280 C.3   172  LYS172      0.0271
    108  CG        29.5130  -27.8610   66.4490 C.3   172  LYS172      0.0035
    109  CD        29.5810  -26.3510   66.2590 C.3   172  LYS172      0.0206
    110  CE        30.9340  -25.9150   65.7010 C.3   172  LYS172      0.1093
    111  NZ        31.0470  -24.4270   65.5870 N.3   172  LYS172     -0.1314
    112  N         29.8850  -33.3730   69.6930 N.3   175  ASP175     -0.1225
    113  CA        30.5630  -33.9820   68.5620 C.3   175  ASP175      0.1805
    114  C         32.0460  -33.6380   68.5540 C.2   175  ASP175      0.2597
    115  O         32.8880  -34.5290   68.4950 O.2   175  ASP175     -0.2718
    116  CB        29.9350  -33.5080   67.2580 C.3   175  ASP175      0.1424
    117  CG        30.0490  -34.5300   66.1640 C.2   175  ASP175      0.3668
    118  OD1       29.8420  -35.7210   66.4650 O.co2 175  ASP175     -0.2456
    119  OD2       30.3300  -34.1520   65.0100 O.co2 175  ASP175     -0.2456
    120  N         32.3580  -32.3450   68.6130 N.am  176  ASN176     -0.1974
    121  CA        33.7400  -31.8850   68.5150 C.3   176  ASN176      0.1688
    122  C         34.6030  -32.3060   69.6920 C.2   176  ASN176      0.2292
    123  O         35.7650  -32.6440   69.5100 O.2   176  ASN176     -0.2864
    124  CB        33.8120  -30.3660   68.3870 C.3   176  ASN176      0.1181
    125  CG        33.2110  -29.8470   67.0900 C.2   176  ASN176      0.2629
    126  OD1       32.9600  -30.6020   66.1450 O.2   176  ASN176     -0.2716
    127  ND2       32.9790  -28.5400   67.0400 N.am  176  ASN176     -0.0877
    128  N         30.9320  -40.7650   68.2340 N.3   181  ASP181     -0.1239
    129  CA        29.7810  -40.3120   67.4750 C.3   181  ASP181      0.1674
    130  C         29.3160  -41.4580   66.5840 C.2   181  ASP181      0.2266
    131  O         30.1040  -42.0450   65.8300 O.2   181  ASP181     -0.2867
    132  CB        30.1470  -39.0710   66.6520 C.3   181  ASP181      0.1410
    133  CG        28.9600  -38.5010   65.8800 C.2   181  ASP181      0.3668
    134  OD1       29.1800  -37.9420   64.7890 O.co2 181  ASP181     -0.2456
    135  OD2       27.8090  -38.6250   66.3470 O.co2 181  ASP181     -0.2456
    136  N         32.6390  -43.4320   64.9440 N.3   202  ASP202     -0.1239
    137  CA        34.0460  -43.1710   65.2080 C.3   202  ASP202      0.1674
    138  C         34.2210  -42.6480   66.6020 C.2   202  ASP202      0.2266
    139  O         33.3290  -42.0020   67.1310 O.2   202  ASP202     -0.2867
    140  CB        34.6890  -42.2220   64.1830 C.3   202  ASP202      0.1410
    141  CG        33.8210  -41.0380   63.8430 C.2   202  ASP202      0.3668
    142  OD1       33.9500  -40.5540   62.6980 O.co2 202  ASP202     -0.2456
    143  OD2       33.0310  -40.5770   64.7000 O.co2 202  ASP202     -0.2456
@<TRIPOS>BOND
     1    34    35    1
     2    35    36    1
     3    35    38    1
     4    37    36    2
     5    36    42   am
     6    47    48    1
     7    47    46    1
     8    42    43    1
     9    48    49    1
    10    49    50    2
    11    43    46    1
    12    43    44    1
    13    38    39    1
    14     4     3    2
    15    28    27    2
    16    27    26    1
    17    45    44    2
    18     1     2    1
    19    44    53   am
    20     3     2    1
    21    50    52    1
    22    50    51    1
    23    41    39   ar
    24    39    40   ar
    25    33    32    1
    26     2     5    1
    27    53    54    1
    28    32    31    1
    29    26    25    1
    30    26    29    1
    31    30    31    1
    32    30    29    1
    33    55    56    2
    34    55    54    1
    35     5     6    1
    36    54    57    1
    37     6     7    1
    38    57    58    1
    39     7     8    1
    40    58    59    1
    41    63    61    1
    42    15    13    1
    43    59    60    1
    44    61    60    2
    45    61    62    1
    46     9    10    1
    47    95    94    2
    48    14    13    1
    49    13    10    1
    50    96    93    1
    51    96    97    1
    52    93    94    1
    53    93    92    1
    54    89    88    2
    55    12    11    2
    56    10    11    1
    57   101   100    1
    58    91    90    1
    59    88    92   am
    60    88    87    1
    61   100   102    1
    62   100    99    2
    63    98    97    1
    64    98    99    1
    65    11    16   am
    66    68    65    1
    67    90    87    1
    68    64    65    1
    69    65    66    1
    70    87    86    1
    71    18    19    2
    72    18    17    1
    73    16    17    1
    74    17    20    1
    75    86    84   am
    76    66    67    2
    77    66    69   am
    78    85    84    2
    79    84    83    1
    80    69    70    1
    81    20    21    1
    82    23    22   ar
    83    72    71    2
    84   142   141   ar
    85    22    21    1
    86    22    24   ar
    87    83    82    1
    88    70    71    1
    89    70    73    1
    90    71    77   am
    91    82    79   am
    92   141   140    1
    93   141   143   ar
    94    79    80    2
    95    79    78    1
    96    73    74    1
    97   140   137    1
    98    77    78    1
    99    78    81    1
   100   134   133   ar
   101   136   137    1
   102   119   117   ar
   103   137   138    1
   104    74    75   ar
   105    74    76   ar
   106   111   110    1
   107   110   109    1
   108   131   130    2
   109   133   135   ar
   110   133   132    1
   111   126   125    2
   112   117   118   ar
   113   117   116    1
   114   109   108    1
   115   108   107    1
   116   130   129    1
   117   138   139    2
   118   132   129    1
   119   107   104    1
   120   127   125   am
   121   125   124    1
   122   116   113    1
   123   129   128    1
   124   104   103    1
   125   104   105    1
   126   124   121    1
   127   115   114    2
   128   106   105    2
   129   121   120    1
   130   121   122    1
   131   114   113    1
   132   114   120   am
   133   113   112    1
   134   123   122    2
