@<TRIPOS>MOLECULE
tmp/3m7oB04.pdb
 82 81 0 0 0
SMALL
GASTEIGER

@<TRIPOS>ATOM
      1  N        -24.7120   69.6780   15.1050 N.3     5  HIS5       -0.1241
      2  CA       -25.9100   69.6380   14.2650 C.3     5  HIS5        0.1621
      3  C        -26.3910   68.2070   14.1120 C.2     5  HIS5        0.2264
      4  O        -25.5610   67.2630   14.0640 O.2     5  HIS5       -0.2867
      5  CB       -25.6390   70.2240   12.8680 C.3     5  HIS5        0.0745
      6  CG       -25.0550   71.5930   12.8730 C.ar    5  HIS5        0.0817
      7  ND1      -25.7620   72.7040   13.2870 N.ar    5  HIS5       -0.2268
      8  CD2      -23.8440   72.0440   12.4800 C.ar    5  HIS5        0.1154
      9  CE1      -25.0060   73.7760   13.1580 C.ar    5  HIS5        0.1986
     10  NE2      -23.8340   73.4030   12.6730 N.ar    5  HIS5       -0.2212
     11  N        -18.1160   76.2160    9.4160 N.3    25  ASP25      -0.1225
     12  CA       -19.1010   75.2090    9.6690 C.3    25  ASP25       0.1805
     13  C        -19.6930   74.8420    8.3090 C.2    25  ASP25       0.2598
     14  O        -19.2940   75.4020    7.2840 O.2    25  ASP25      -0.2718
     15  CB       -20.1740   75.7970   10.5780 C.3    25  ASP25       0.1424
     16  CG       -20.9440   74.7510   11.3580 C.2    25  ASP25       0.3668
     17  OD1      -21.7950   75.1600   12.1780 O.co2  25  ASP25      -0.2456
     18  OD2      -20.7520   73.5300   11.1740 O.co2  25  ASP25      -0.2456
     19  N        -20.5940   73.8770    8.3170 N.am   26  PHE26      -0.1962
     20  CA       -21.3110   73.4640    7.1210 C.3    26  PHE26       0.1771
     21  C        -22.6230   72.7960    7.4870 C.2    26  PHE26       0.2620
     22  O        -22.8250   72.3450    8.6190 O.2    26  PHE26      -0.2715
     23  CB       -20.4320   72.5450    6.2420 C.3    26  PHE26       0.0574
     24  CG       -20.2060   71.1670    6.8150 C.ar   26  PHE26      -0.0200
     25  CD1      -21.1240   70.1440    6.6010 C.ar   26  PHE26      -0.0042
     26  CD2      -19.0480   70.8790    7.5340 C.ar   26  PHE26      -0.0042
     27  CE1      -20.9010   68.8630    7.1180 C.ar   26  PHE26      -0.0003
     28  CE2      -18.8230   69.6010    8.0390 C.ar   26  PHE26      -0.0003
     29  CZ       -19.7500   68.6100    7.8510 C.ar   26  PHE26      -0.0000
     30  N        -23.5270   72.7350    6.5110 N.am   27  GLY27      -0.1954
     31  CA       -24.8340   72.1440    6.7130 C.3    27  GLY27       0.1869
     32  C        -24.9660   70.7960    6.0180 C.2    27  GLY27       0.2309
     33  O        -24.5290   70.6310    4.8730 O.2    27  GLY27      -0.2863
     34  N        -24.6300   71.9950    2.4000 N.3    46  GLY46      -0.1210
     35  CA       -24.3670   73.4150    2.1140 C.3    46  GLY46       0.1956
     36  C        -23.0170   73.8300    2.6720 C.2    46  GLY46       0.2612
     37  O        -22.7730   73.6360    3.8530 O.2    46  GLY46      -0.2717
     38  N        -22.1390   74.3790    1.8260 N.am   47  ILE47      -0.1965
     39  CA       -20.8300   74.8290    2.2770 C.3    47  ILE47       0.1727
     40  C        -20.3010   75.9370    1.3760 C.2    47  ILE47       0.2616
     41  O        -20.6360   75.9890    0.1810 O.2    47  ILE47      -0.2715
     42  CB       -19.8160   73.6360    2.3030 C.3    47  ILE47       0.0290
     43  CG1      -18.6060   73.9330    3.1910 C.3    47  ILE47       0.0022
     44  CG2      -19.4020   73.2000    0.8680 C.3    47  ILE47       0.0023
     45  CD1      -17.8740   72.6710    3.6190 C.3    47  ILE47       0.0001
     46  N        -19.4670   76.8030    1.9500 N.am   48  ILE48      -0.1977
     47  CA       -18.7010   77.7740    1.1740 C.3    48  ILE48       0.1596
     48  C        -17.3330   77.1860    0.8320 C.2    48  ILE48       0.2287
     49  O        -16.5420   76.9060    1.7330 O.2    48  ILE48      -0.2864
     50  CB       -18.5300   79.1110    1.9510 C.3    48  ILE48       0.0276
     51  CG1      -19.8840   79.6190    2.4490 C.3    48  ILE48       0.0022
     52  CG2      -17.8490   80.1660    1.0790 C.3    48  ILE48       0.0022
     53  CD1      -19.8110   80.9140    3.2450 C.3    48  ILE48       0.0001
     54  N        -20.6930   79.5980   -2.7670 N.3    88  GLN88      -0.1231
     55  CA       -21.6340   79.0430   -1.8180 C.3    88  GLN88       0.1698
     56  C        -22.3200   77.8530   -2.5030 C.2    88  GLN88       0.2592
     57  O        -23.1300   78.0420   -3.4220 O.2    88  GLN88      -0.2718
     58  CB       -22.6620   80.1070   -1.4600 C.3    88  GLN88       0.0381
     59  CG       -23.6620   79.6790   -0.4370 C.3    88  GLN88       0.0905
     60  CD       -23.1810   79.9460    0.9640 C.2    88  GLN88       0.2608
     61  OE1      -22.6180   81.0120    1.2470 O.2    88  GLN88      -0.2717
     62  NE2      -23.4050   78.9860    1.8560 N.am   88  GLN88      -0.0878
     63  N        -21.9920   76.6320   -2.0750 N.am   89  ILE89      -0.1966
     64  CA       -22.5380   75.4370   -2.7260 C.3    89  ILE89       0.1727
     65  C        -23.7530   74.9010   -1.9640 C.2    89  ILE89       0.2616
     66  O        -23.7250   74.7700   -0.7330 O.2    89  ILE89      -0.2715
     67  CB       -21.4770   74.3070   -2.8810 C.3    89  ILE89       0.0290
     68  CG1      -20.1550   74.8520   -3.4280 C.3    89  ILE89       0.0022
     69  CG2      -22.0300   73.1370   -3.7380 C.3    89  ILE89       0.0023
     70  CD1      -20.1600   75.2030   -4.9050 C.3    89  ILE89       0.0001
     71  N        -24.8290   74.6280   -2.7080 N.am   90  TYR90      -0.1974
     72  CA       -25.9890   73.9200   -2.1920 C.3    90  TYR90       0.1639
     73  C        -26.1080   72.6140   -3.0190 C.2    90  TYR90       0.2290
     74  O        -26.3650   72.6820   -4.2210 O.2    90  TYR90      -0.2864
     75  CB       -27.2680   74.7410   -2.3930 C.3    90  TYR90       0.0560
     76  CG       -27.4000   76.0570   -1.6520 C.ar   90  TYR90      -0.0198
     77  CD1      -28.2420   76.1680   -0.5480 C.ar   90  TYR90      -0.0009
     78  CD2      -26.7400   77.2050   -2.0960 C.ar   90  TYR90      -0.0009
     79  CE1      -28.3870   77.3860    0.1310 C.ar   90  TYR90       0.0417
     80  CE2      -26.8740   78.4170   -1.4320 C.ar   90  TYR90       0.0417
     81  CZ       -27.7000   78.5070   -0.3220 C.ar   90  TYR90       0.1957
     82  OH       -27.8420   79.7170    0.3370 O.3    90  TYR90      -0.2866
@<TRIPOS>BOND
     1    70    68    1
     2    74    73    2
     3    69    67    1
     4    68    67    1
     5    57    56    2
     6    73    72    1
     7    67    64    1
     8    54    55    1
     9    64    63    1
    10    64    65    1
    11    71    72    1
    12    71    65   am
    13    56    63   am
    14    56    55    1
    15    75    72    1
    16    75    76    1
    17    78    76   ar
    18    78    80   ar
    19    65    66    2
    20    55    58    1
    21    76    77   ar
    22    58    59    1
    23    80    81   ar
    24    77    79   ar
    25    59    60    1
    26    81    79   ar
    27    81    82    1
    28    41    40    2
    29    48    47    1
    30    48    49    2
    31    44    42    1
    32    60    61    2
    33    60    62   am
    34    52    50    1
    35    47    46    1
    36    47    50    1
    37    40    46   am
    38    40    39    1
    39    38    39    1
    40    38    36   am
    41    50    51    1
    42    35    34    1
    43    35    36    1
    44    39    42    1
    45    42    43    1
    46    51    53    1
    47    36    37    2
    48    43    45    1
    49    33    32    2
    50    32    31    1
    51    23    24    1
    52    23    20    1
    53    30    31    1
    54    30    21   am
    55    25    24   ar
    56    25    27   ar
    57    24    26   ar
    58    27    29   ar
    59    20    21    1
    60    20    19    1
    61    14    13    2
    62    21    22    2
    63    26    28   ar
    64    29    28   ar
    65    13    19   am
    66    13    12    1
    67    11    12    1
    68    12    15    1
    69    15    16    1
    70    18    16   ar
    71    16    17   ar
    72     8    10   ar
    73     8     6   ar
    74    10     9   ar
    75     5     6    1
    76     5     2    1
    77     6     7   ar
    78     9     7   ar
    79     4     3    2
    80     3     2    1
    81     2     1    1
