@<TRIPOS>MOLECULE
tmp/3m7pA03.pdb
 119 117 0 0 0
SMALL
GASTEIGER

@<TRIPOS>ATOM
      1  N         39.8170   48.8650   13.3530 N.3    55  TYR55      -0.1241
      2  CA        39.1520   48.1470   14.4450 C.3    55  TYR55       0.1605
      3  C         38.7560   46.7930   13.9310 C.2    55  TYR55       0.2264
      4  O         38.6850   46.6090   12.7150 O.2    55  TYR55      -0.2867
      5  CB        37.9090   48.9060   14.9830 C.3    55  TYR55       0.0534
      6  CG        36.6790   48.8700   14.0910 C.ar   55  TYR55      -0.0201
      7  CD1       35.6070   48.0280   14.3820 C.ar   55  TYR55      -0.0009
      8  CD2       36.5790   49.6920   12.9710 C.ar   55  TYR55      -0.0009
      9  CE1       34.4800   47.9800   13.5600 C.ar   55  TYR55       0.0417
     10  CE2       35.4630   49.6360   12.1330 C.ar   55  TYR55       0.0417
     11  CZ        34.4130   48.7810   12.4350 C.ar   55  TYR55       0.1957
     12  OH        33.3120   48.7110   11.6100 O.3    55  TYR55      -0.2866
     13  N         38.3230   42.7390   12.9360 N.3    57  GLY57      -0.1225
     14  CA        39.0130   41.8440   12.0290 C.3    57  GLY57       0.1811
     15  C         39.9250   40.8940   12.7750 C.2    57  GLY57       0.2280
     16  O         40.2870   41.1520   13.9240 O.2    57  GLY57      -0.2866
     17  N         43.9580   41.7260   -3.3240 N.3    70  TYR70      -0.1241
     18  CA        42.9370   40.7910   -2.8640 C.3    70  TYR70       0.1605
     19  C         42.2360   40.3610   -4.1230 C.2    70  TYR70       0.2264
     20  O         41.9570   41.2070   -4.9850 O.2    70  TYR70      -0.2867
     21  CB        41.9430   41.4690   -1.8440 C.3    70  TYR70       0.0534
     22  CG        40.6130   40.7590   -1.6760 C.ar   70  TYR70      -0.0201
     23  CD1       40.5290   39.5410   -1.0120 C.ar   70  TYR70      -0.0009
     24  CD2       39.4450   41.2900   -2.2150 C.ar   70  TYR70      -0.0009
     25  CE1       39.3200   38.8600   -0.9000 C.ar   70  TYR70       0.0417
     26  CE2       38.2300   40.6170   -2.1120 C.ar   70  TYR70       0.0417
     27  CZ        38.1720   39.4070   -1.4470 C.ar   70  TYR70       0.1957
     28  OH        36.9790   38.7420   -1.3520 O.3    70  TYR70      -0.2866
     29  N         34.2700   45.0190   -0.9730 N.3    81  GLU81      -0.1231
     30  CA        34.3680   43.8530   -1.8570 C.3    81  GLU81       0.1699
     31  C         34.5200   42.5210   -1.1420 C.2    81  GLU81       0.2593
     32  O         35.4490   42.3390   -0.3530 O.2    81  GLU81      -0.2718
     33  CB        35.4460   44.0010   -2.9430 C.3    81  GLU81       0.0402
     34  CG        35.2740   43.0090   -4.0960 C.3    81  GLU81       0.1161
     35  CD        33.9700   43.1350   -4.8720 C.2    81  GLU81       0.3649
     36  OE1       33.6400   44.2710   -5.2860 O.co2  81  GLU81      -0.2457
     37  OE2       33.2710   42.1060   -5.0480 O.co2  81  GLU81      -0.2457
     38  N         33.5980   41.6040   -1.4430 N.am   82  GLY82      -0.1942
     39  CA        33.5850   40.2720   -0.8570 C.3    82  GLY82       0.2014
     40  C         32.6500   40.1510    0.3240 C.2    82  GLY82       0.2638
     41  O         32.3070   39.0310    0.7160 O.2    82  GLY82      -0.2714
     42  N         32.1950   41.2970    0.8760 N.am   83  ARG83      -0.1977
     43  CA        31.3270   41.3140    2.0530 C.3    83  ARG83       0.1597
     44  C         29.8420   41.5840    1.7520 C.2    83  ARG83       0.2287
     45  O         29.5020   42.5330    1.0350 O.2    83  ARG83      -0.2864
     46  CB        31.8440   42.3130    3.1080 C.3    83  ARG83       0.0334
     47  CG        33.2580   42.0390    3.5880 C.3    83  ARG83       0.0492
     48  CD        33.5650   42.6960    4.9150 C.3    83  ARG83       0.2205
     49  NE        32.8180   42.0430    5.9900 N.pl3  83  ARG83      -0.0865
     50  CZ        33.2600   41.0170    6.7020 C.cat  83  ARG83       0.5346
     51  NH1       34.4720   40.5270    6.4890 N.pl3  83  ARG83       0.1354
     52  NH2       32.4930   40.4680    7.6300 N.pl3  83  ARG83       0.1354
     53  N         27.7730   42.4510    4.2100 N.3    85  ASP85      -0.1239
     54  CA        27.3880   43.3330    5.3240 C.3    85  ASP85       0.1674
     55  C         27.6860   44.7970    5.1630 C.2    85  ASP85       0.2266
     56  O         27.3410   45.5860    6.0480 O.2    85  ASP85      -0.2867
     57  CB        27.9150   42.7830    6.6770 C.3    85  ASP85       0.1410
     58  CG        29.4010   42.4660    6.7220 C.2    85  ASP85       0.3668
     59  OD1       30.1550   43.0230    5.9040 O.co2  85  ASP85      -0.2456
     60  OD2       29.8200   41.7360    7.6320 O.co2  85  ASP85      -0.2456
     61  N         30.5070   46.3940    5.3470 N.3    87  HIS87      -0.1241
     62  CA        31.5810   46.9730    6.1590 C.3    87  HIS87       0.1621
     63  C         32.8700   47.1760    5.3460 C.2    87  HIS87       0.2264
     64  O         33.3370   46.2650    4.6540 O.2    87  HIS87      -0.2867
     65  CB        31.8660   46.1260    7.4180 C.3    87  HIS87       0.0745
     66  CG        30.7100   45.9230    8.3510 C.ar   87  HIS87       0.0817
     67  ND1       30.0050   46.9940    8.8850 N.ar   87  HIS87      -0.2268
     68  CD2       30.2290   44.7760    8.8900 C.ar   87  HIS87       0.1154
     69  CE1       29.1110   46.4610    9.7080 C.ar   87  HIS87       0.1986
     70  NE2       29.1940   45.1310    9.7310 N.ar   87  HIS87      -0.2212
     71  N         36.6270   47.2680    4.7780 N.3    89  TRP89      -0.1241
     72  CA        37.7420   46.5280    5.3100 C.3    89  TRP89       0.1605
     73  C         38.9740   46.7930    4.4520 C.2    89  TRP89       0.2264
     74  O         38.8810   47.3470    3.3580 O.2    89  TRP89      -0.2867
     75  CB        37.4030   45.0290    5.3920 C.3    89  TRP89       0.0550
     76  CG        37.3510   44.3520    4.0540 C.ar   89  TRP89       0.0003
     77  CD1       36.3180   44.3700    3.1660 C.ar   89  TRP89       0.0946
     78  CD2       38.4340   43.6690    3.4010 C.ar   89  TRP89       0.0152
     79  NE1       36.6860   43.7400    2.0000 N.ar   89  TRP89      -0.2442
     80  CE2       37.9840   43.3060    2.1130 C.ar   89  TRP89       0.0810
     81  CE3       39.7560   43.3470    3.7740 C.ar   89  TRP89       0.0012
     82  CZ2       38.7700   42.5530    1.2340 C.ar   89  TRP89       0.0191
     83  CZ3       40.5440   42.6270    2.8850 C.ar   89  TRP89       0.0001
     84  CH2       40.0530   42.2480    1.6300 C.ar   89  TRP89       0.0015
     85  N         46.7390   39.8050    0.6370 N.3    96  TYR96      -0.1241
     86  CA        45.6510   39.1990    1.3750 C.3    96  TYR96       0.1605
     87  C         45.5430   37.7340    1.1070 C.2    96  TYR96       0.2264
     88  O         45.4470   36.9790    2.0650 O.2    96  TYR96      -0.2867
     89  CB        44.3130   39.9090    1.1240 C.3    96  TYR96       0.0534
     90  CG        43.2190   39.3840    2.0230 C.ar   96  TYR96      -0.0201
     91  CD1       43.0810   39.8460    3.3310 C.ar   96  TYR96      -0.0009
     92  CD2       42.3650   38.3710    1.5940 C.ar   96  TYR96      -0.0009
     93  CE1       42.0900   39.3460    4.1700 C.ar   96  TYR96       0.0417
     94  CE2       41.3830   37.8500    2.4320 C.ar   96  TYR96       0.0417
     95  CZ        41.2350   38.3560    3.7110 C.ar   96  TYR96       0.1957
     96  OH        40.2650   37.8400    4.5300 O.3    96  TYR96      -0.2866
     97  N         43.2140   41.0110    8.1800 N.3   102  TYR102     -0.1241
     98  CA        42.4600   42.2320    7.8670 C.3   102  TYR102      0.1605
     99  C         41.9630   42.9390    9.1050 C.2   102  TYR102      0.2264
    100  O         41.8740   42.3310   10.1680 O.2   102  TYR102     -0.2867
    101  CB        41.2660   41.9020    6.9270 C.3   102  TYR102      0.0534
    102  CG        40.1230   41.1740    7.6070 C.ar  102  TYR102     -0.0201
    103  CD1       39.0370   41.8740    8.1320 C.ar  102  TYR102     -0.0009
    104  CD2       40.1330   39.7830    7.7460 C.ar  102  TYR102     -0.0009
    105  CE1       38.0000   41.2150    8.7890 C.ar  102  TYR102      0.0417
    106  CE2       39.1000   39.1130    8.4050 C.ar  102  TYR102      0.0417
    107  CZ        38.0420   39.8370    8.9320 C.ar  102  TYR102      0.1957
    108  OH        37.0030   39.1990    9.5640 O.3   102  TYR102     -0.2866
    109  N         38.8310   46.3350    9.9780 N.3   104  PHE104     -0.1241
    110  CA        37.7330   47.1570    9.4620 C.3   104  PHE104      0.1605
    111  C         38.1440   48.6100    9.5420 C.2   104  PHE104      0.2264
    112  O         38.9710   48.9740   10.3600 O.2   104  PHE104     -0.2867
    113  CB        36.4080   46.8870   10.1680 C.3   104  PHE104      0.0534
    114  CG        35.8380   45.5350    9.8120 C.ar  104  PHE104     -0.0203
    115  CD1       35.2550   45.3110    8.5660 C.ar  104  PHE104     -0.0042
    116  CD2       35.9030   44.4750   10.7120 C.ar  104  PHE104     -0.0042
    117  CE1       34.7630   44.0460    8.2160 C.ar  104  PHE104     -0.0003
    118  CE2       35.4090   43.2100   10.3630 C.ar  104  PHE104     -0.0003
    119  CZ        34.8260   43.0090    9.1220 C.ar  104  PHE104     -0.0000
@<TRIPOS>BOND
     1    36    35   ar
     2    37    35   ar
     3    20    19    2
     4    35    34    1
     5    19    18    1
     6    34    33    1
     7    17    18    1
     8    33    30    1
     9    18    21    1
    10    24    26   ar
    11    24    22   ar
    12    26    27   ar
    13    30    31    1
    14    30    29    1
    15    21    22    1
    16    22    23   ar
    17    27    28    1
    18    27    25   ar
    19    38    31   am
    20    38    39    1
    21    31    32    2
    22    23    25   ar
    23    39    40    1
    24    40    41    2
    25    40    42   am
    26    85    86    1
    27    42    43    1
    28    45    44    2
    29    87    86    1
    30    87    88    2
    31    89    86    1
    32    89    90    1
    33    82    84   ar
    34    82    80   ar
    35    92    90   ar
    36    92    94   ar
    37    84    83   ar
    38    44    43    1
    39    79    80   ar
    40    79    77   ar
    41    90    91   ar
    42    43    46    1
    43    80    78   ar
    44    94    95   ar
    45    83    81   ar
    46    46    47    1
    47    77    76   ar
    48    91    93   ar
    49    74    73    2
    50    78    81   ar
    51    78    76   ar
    52    47    48    1
    53    95    93   ar
    54    95    96    1
    55    76    75    1
    56    53    54    1
    57    73    72    1
    58    64    63    2
    59    71    72    1
    60    48    49    1
    61    55    54    1
    62    55    56    2
    63    72    75    1
    64    54    57    1
    65    63    62    1
    66    61    62    1
    67    59    58   ar
    68    49    50    2
    69    62    65    1
    70    51    50    1
    71    57    58    1
    72    50    52    1
    73    58    60   ar
    74   101   102    1
    75   101    98    1
    76    65    66    1
    77   102   104   ar
    78   102   103   ar
    79   104   106   ar
    80    98    97    1
    81    98    99    1
    82   103   105   ar
    83   117   115   ar
    84   117   119   ar
    85    66    67   ar
    86    66    68   ar
    87   106   107   ar
    88   115   114   ar
    89   105   107   ar
    90    67    69   ar
    91    68    70   ar
    92   107   108    1
    93    99   100    2
    94   119   118   ar
    95   110   111    1
    96   110   109    1
    97   110   113    1
    98   111   112    2
    99    69    70   ar
   100   114   113    1
   101   114   116   ar
   102   118   116   ar
   103    12    11    1
   104    14    15    1
   105    14    13    1
   106    10    11   ar
   107    10     8   ar
   108    11     9   ar
   109     4     3    2
   110    15    16    2
   111     8     6   ar
   112     1     2    1
   113     9     7   ar
   114     3     2    1
   115     6     7   ar
   116     6     5    1
   117     2     5    1
