@<TRIPOS>MOLECULE
tmp/3m7wE00.pdb
 137 125 0 0 0
SMALL
GASTEIGER

@<TRIPOS>ATOM
      1  N          7.3090   70.2520   33.4300 N.3    20  SER20      -0.1217
      2  CA         8.2740   71.2130   33.9600 C.3    20  SER20       0.1889
      3  C          8.4030   72.4900   33.1110 C.2    20  SER20       0.2288
      4  O          8.5300   72.4360   31.8900 O.2    20  SER20      -0.2866
      5  CB         9.6630   70.5780   34.0620 C.3    20  SER20       0.2089
      6  OG         9.6480   69.3920   34.8320 O.3    20  SER20      -0.2183
      7  N          5.2870   71.8990   37.3310 N.3    45  GLU45      -0.1245
      8  CA         6.5310   71.9520   38.0920 C.3    45  GLU45       0.1567
      9  C          7.3970   73.1160   37.5920 C.2    45  GLU45       0.2260
     10  O          7.7010   73.1940   36.4060 O.2    45  GLU45      -0.2867
     11  CB         7.3520   70.6680   37.9690 C.3    45  GLU45       0.0388
     12  CG         8.7250   70.7950   38.6880 C.3    45  GLU45       0.1160
     13  CD         9.6260   69.6100   38.4970 C.2    45  GLU45       0.3649
     14  OE1       10.0070   69.3260   37.3360 O.co2  45  GLU45      -0.2457
     15  OE2       10.0130   68.9970   39.5180 O.co2  45  GLU45      -0.2457
     16  N         10.9620   74.3940   37.4600 N.3    47  ARG47      -0.1245
     17  CA        12.3560   73.9970   37.6810 C.3    47  ARG47       0.1563
     18  C         13.1500   75.2720   37.9090 C.2    47  ARG47       0.2260
     19  O         13.6900   75.8870   36.9910 O.2    47  ARG47      -0.2867
     20  CB        12.8790   73.1780   36.5220 C.3    47  ARG47       0.0307
     21  CG        12.4420   71.7470   36.5590 C.3    47  ARG47       0.0489
     22  CD        13.1810   70.9500   37.6210 C.3    47  ARG47       0.2205
     23  NE        14.6070   70.9780   37.3290 N.pl3  47  ARG47      -0.0865
     24  CZ        15.2260   70.1410   36.5100 C.cat  47  ARG47       0.5346
     25  NH1       14.5500   69.1570   35.8970 N.pl3  47  ARG47       0.1354
     26  NH2       16.5370   70.2800   36.3120 N.pl3  47  ARG47       0.1354
     27  N         10.4040   73.3660   42.4480 N.3    79  THR79      -0.1218
     28  CA        11.5100   72.4240   42.4860 C.3    79  THR79       0.1862
     29  C         12.8450   73.0070   42.0680 C.2    79  THR79       0.2287
     30  O         13.0250   73.4030   40.9120 O.2    79  THR79      -0.2866
     31  CB        11.2700   71.2080   41.5200 C.3    79  THR79       0.1770
     32  OG1       10.0400   70.5540   41.8510 O.3    79  THR79      -0.2211
     33  CG2       12.4310   70.1910   41.5830 C.3    79  THR79       0.0375
     34  N         16.2460   71.6150   41.4940 N.3    81  ARG81      -0.1245
     35  CA        16.9510   70.3610   41.3320 C.3    81  ARG81       0.1563
     36  C         18.4290   70.7120   41.4050 C.2    81  ARG81       0.2260
     37  O         18.9450   71.4280   40.5460 O.2    81  ARG81      -0.2867
     38  CB        16.6130   69.7180   39.9830 C.3    81  ARG81       0.0307
     39  CG        17.3350   68.3920   39.7050 C.3    81  ARG81       0.0489
     40  CD        16.9570   67.2810   40.7020 C.3    81  ARG81       0.2205
     41  NE        15.5260   66.9870   40.7040 N.pl3  81  ARG81      -0.0865
     42  CZ        14.6820   67.1620   41.7220 C.cat  81  ARG81       0.5346
     43  NH1       15.0840   67.5780   42.9360 N.pl3  81  ARG81       0.1354
     44  NH2       13.4100   66.8420   41.5500 N.pl3  81  ARG81       0.1354
     45  N         17.4170   61.3270   42.7070 N.3   142  HIS142     -0.1241
     46  CA        17.7200   61.0640   41.3040 C.3   142  HIS142      0.1621
     47  C         19.0800   60.4600   41.1300 C.2   142  HIS142      0.2264
     48  O         20.0130   60.8650   41.8130 O.2   142  HIS142     -0.2867
     49  CB        17.7360   62.3710   40.5050 C.3   142  HIS142      0.0745
     50  CG        16.3800   62.9010   40.2010 C.ar  142  HIS142      0.0817
     51  ND1       15.5760   63.4770   41.1590 N.ar  142  HIS142     -0.2268
     52  CD2       15.6750   62.9290   39.0440 C.ar  142  HIS142      0.1154
     53  CE1       14.4290   63.8310   40.6050 C.ar  142  HIS142      0.1986
     54  NE2       14.4700   63.5240   39.3190 N.ar  142  HIS142     -0.2212
     55  N         21.2870   59.7700   37.7560 N.3   144  PHE144     -0.1241
     56  CA        21.3770   59.9120   36.3080 C.3   144  PHE144      0.1605
     57  C         22.3790   59.0150   35.6030 C.2   144  PHE144      0.2264
     58  O         22.5190   59.0940   34.3740 O.2   144  PHE144     -0.2867
     59  CB        21.6740   61.3750   35.9560 C.3   144  PHE144      0.0534
     60  CG        20.4550   62.2350   35.9300 C.ar  144  PHE144     -0.0203
     61  CD1       19.8080   62.4900   34.7150 C.ar  144  PHE144     -0.0042
     62  CD2       19.9330   62.7740   37.1040 C.ar  144  PHE144     -0.0042
     63  CE1       18.6500   63.2780   34.6710 C.ar  144  PHE144     -0.0003
     64  CE2       18.7760   63.5810   37.0710 C.ar  144  PHE144     -0.0003
     65  CZ        18.1350   63.8270   35.8510 C.ar  144  PHE144     -0.0000
     66  N          9.4820   60.2810   45.7640 N.3   169  LYS169     -0.1245
     67  CA         9.7690   60.2250   44.3580 C.3   169  LYS169      0.1561
     68  C         11.1940   59.7750   44.0670 C.2   169  LYS169      0.2260
     69  O         12.1370   60.2780   44.6700 O.2   169  LYS169     -0.2867
     70  CB         9.5630   61.6150   43.7250 C.3   169  LYS169      0.0271
     71  CG        10.1370   61.7290   42.3210 C.3   169  LYS169      0.0035
     72  CD        10.1290   63.1580   41.7820 C.3   169  LYS169      0.0206
     73  CE        10.6860   63.1670   40.3980 C.3   169  LYS169      0.1093
     74  NZ        10.9300   64.5150   39.8710 N.3   169  LYS169     -0.1314
     75  N         13.8750   58.7300   40.6370 N.3   171  ALA171     -0.1245
     76  CA        14.1280   58.6490   39.2170 C.3   171  ALA171      0.1562
     77  C         15.5170   58.0690   39.0340 C.2   171  ALA171      0.2260
     78  O         16.4880   58.5500   39.6380 O.2   171  ALA171     -0.2867
     79  CB        14.0070   60.0050   38.5740 C.3   171  ALA171      0.0290
     80  N         10.2290   56.4830   38.3160 N.3   202  MET202     -0.1245
     81  CA        10.4940   56.4200   36.8880 C.3   202  MET202      0.1570
     82  C         11.8870   55.9330   36.5330 C.2   202  MET202      0.2261
     83  O         12.8530   56.1450   37.2840 O.2   202  MET202     -0.2867
     84  CB        10.3060   57.7850   36.2060 C.3   202  MET202      0.0387
     85  CG        11.1160   58.9400   36.7840 C.3   202  MET202      0.0595
     86  SD        10.3020   59.7890   38.1360 S.3   202  MET202     -0.1393
     87  CE         9.1420   60.8220   37.2290 C.3   202  MET202      0.0692
     88  N         14.4090   56.6200   33.5190 N.3   204  MET204     -0.1245
     89  CA        14.6420   57.6170   32.4770 C.3   204  MET204      0.1570
     90  C         15.1130   57.0430   31.1080 C.2   204  MET204      0.2261
     91  O         15.3560   55.8450   30.9690 O.2   204  MET204     -0.2867
     92  CB        15.6150   58.6880   33.0170 C.3   204  MET204      0.0387
     93  CG        15.1010   59.3680   34.2860 C.3   204  MET204      0.0595
     94  SD        16.0730   60.7810   34.9210 S.3   204  MET204     -0.1393
     95  CE        17.3960   59.9440   35.8030 C.3   204  MET204      0.0692
     96  N          7.0350   55.2610   32.4880 N.3   212  ARG212     -0.1245
     97  CA         6.2880   56.5170   32.5830 C.3   212  ARG212      0.1563
     98  C          4.8530   56.3470   32.0980 C.2   212  ARG212      0.2260
     99  O          4.0300   57.2580   32.2520 O.2   212  ARG212     -0.2867
    100  CB         6.9560   57.5860   31.7130 C.3   212  ARG212      0.0307
    101  CG         8.4000   57.8920   32.0820 C.3   212  ARG212      0.0489
    102  CD         8.9120   59.0450   31.2300 C.3   212  ARG212      0.2205
    103  NE        10.2980   59.4570   31.4960 N.pl3 212  ARG212     -0.0865
    104  CZ        10.6700   60.2990   32.4690 C.cat 212  ARG212      0.5346
    105  NH1        9.7920   60.7350   33.3530 N.pl3 212  ARG212      0.1354
    106  NH2       11.9500   60.6380   32.6180 N.pl3 212  ARG212      0.1354
    107  N          5.8230   62.3620   34.4220 N.3   224  PHE224     -0.1241
    108  CA         6.1940   63.5800   33.7060 C.3   224  PHE224      0.1605
    109  C          6.1290   63.4670   32.1980 C.2   224  PHE224      0.2264
    110  O          6.6020   62.5030   31.6000 O.2   224  PHE224     -0.2867
    111  CB         7.6040   64.0610   34.0700 C.3   224  PHE224      0.0534
    112  CG         7.7000   64.6880   35.4160 C.ar  224  PHE224     -0.0203
    113  CD1        7.6440   63.9210   36.5400 C.ar  224  PHE224     -0.0042
    114  CD2        7.8540   66.0600   35.5460 C.ar  224  PHE224     -0.0042
    115  CE1        7.7340   64.4980   37.8020 C.ar  224  PHE224     -0.0003
    116  CE2        7.9600   66.6390   36.8040 C.ar  224  PHE224     -0.0003
    117  CZ         7.8820   65.8480   37.9270 C.ar  224  PHE224     -0.0000
    118  N         12.3370   67.8960   30.4930 N.3   231  SER231     -0.1202
    119  CA        13.1180   68.3030   31.6620 C.3   231  SER231      0.2020
    120  C         13.9930   67.1510   32.1500 C.2   231  SER231      0.2618
    121  O         14.7900   67.3140   33.0680 O.2   231  SER231     -0.2717
    122  CB        12.2060   68.8360   32.7820 C.3   231  SER231      0.2103
    123  OG        11.1710   67.9260   33.1140 O.3   231  SER231     -0.2182
    124  N         13.8160   65.9770   31.5380 N.am  232  ALA232     -0.1979
    125  CA        14.6230   64.8060   31.8160 C.3   232  ALA232      0.1597
    126  C         14.4580   63.8520   30.6410 C.2   232  ALA232      0.2287
    127  O         13.4480   63.8740   29.9470 O.2   232  ALA232     -0.2864
    128  CB        14.2460   64.1030   33.1710 C.3   232  ALA232      0.0319
    129  N         10.9180   61.6290   28.6420 N.3   235  GLN235     -0.1245
    130  CA         9.6050   62.2290   28.6580 C.3   235  GLN235      0.1566
    131  C          9.0700   62.3370   27.2360 C.2   235  GLN235      0.2260
    132  O          9.8210   62.6540   26.3010 O.2   235  GLN235     -0.2867
    133  CB         9.6460   63.6340   29.2840 C.3   235  GLN235      0.0367
    134  CG        10.1010   63.6450   30.7280 C.3   235  GLN235      0.0905
    135  CD        10.2830   65.0390   31.2740 C.2   235  GLN235      0.2608
    136  OE1       10.2610   66.0070   30.5240 O.2   235  GLN235     -0.2717
    137  NE2       10.4770   65.1500   32.5960 N.am  235  GLN235     -0.0878
@<TRIPOS>BOND
     1   132   131    2
     2   131   130    1
     3   129   130    1
     4   130   133    1
     5   133   134    1
     6   127   126    2
     7   118   119    1
     8   136   135    2
     9   126   125    1
    10   134   135    1
    11    91    90    2
    12    90    89    1
    13   102   103    1
    14   102   101    1
    15   135   137   am
    16   103   104    2
    17   124   125    1
    18   124   120   am
    19   110   109    2
    20   119   120    1
    21   119   122    1
    22   100   101    1
    23   100    97    1
    24   125   128    1
    25     4     3    2
    26    98    99    2
    27    98    97    1
    28   120   121    2
    29   109   108    1
    30   104   106    1
    31   104   105    1
    32    89    92    1
    33    89    88    1
    34    96    97    1
    35   122   123    1
    36    92    93    1
    37     3     2    1
    38     1     2    1
    39   108   111    1
    40   108   107    1
    41     2     5    1
    42     5     6    1
    43   111   112    1
    44    93    94    1
    45    58    57    2
    46    63    61   ar
    47    63    65   ar
    48    61    60   ar
    49    94    95    1
    50   112   114   ar
    51   112   113   ar
    52   114   116   ar
    53    57    56    1
    54    65    64   ar
    55    25    24    1
    56    60    59    1
    57    60    62   ar
    58    59    56    1
    59    84    85    1
    60    84    81    1
    61    56    55    1
    62    26    24    1
    63    10     9    2
    64    24    23    2
    65    20    21    1
    66    20    17    1
    67    82    81    1
    68    82    83    2
    69   113   115   ar
    70    21    22    1
    71    85    86    1
    72   116   117   ar
    73    81    80    1
    74    19    18    2
    75    64    62   ar
    76    87    86    1
    77    23    22    1
    78     7     8    1
    79    14    13   ar
    80    16    17    1
    81     9     8    1
    82    17    18    1
    83   115   117   ar
    84    11     8    1
    85    11    12    1
    86    13    12    1
    87    13    15   ar
    88    79    76    1
    89    77    76    1
    90    77    78    2
    91    52    54   ar
    92    52    50   ar
    93    76    75    1
    94    54    53   ar
    95    39    38    1
    96    39    40    1
    97    74    73    1
    98    38    35    1
    99    50    49    1
   100    50    51   ar
   101    73    72    1
   102    49    46    1
   103    37    36    2
   104    53    51   ar
   105    40    41    1
   106    41    42    2
   107    30    29    2
   108    47    46    1
   109    47    48    2
   110    46    45    1
   111    35    36    1
   112    35    34    1
   113    31    33    1
   114    31    32    1
   115    31    28    1
   116    44    42    1
   117    42    43    1
   118    72    71    1
   119    29    28    1
   120    71    70    1
   121    27    28    1
   122    70    67    1
   123    68    67    1
   124    68    69    2
   125    67    66    1
