@<TRIPOS>MOLECULE
tmp/3m84B00.pdb
 82 79 0 0 0
SMALL
GASTEIGER

@<TRIPOS>ATOM
      1  N         21.2090   41.2800   -2.5680 N.3   129  GLU129     -0.1245
      2  CA        22.3030   42.0900   -3.0750 C.3   129  GLU129      0.1567
      3  C         23.6100   41.8500   -2.3360 C.2   129  GLU129      0.2260
      4  O         24.6770   42.1590   -2.8700 O.2   129  GLU129     -0.2867
      5  CB        21.9370   43.5780   -3.0620 C.3   129  GLU129      0.0388
      6  CG        21.9360   44.1610   -1.6790 C.3   129  GLU129      0.1160
      7  CD        21.4340   45.6120   -1.6440 C.2   129  GLU129      0.3649
      8  OE1       21.3930   46.1860   -0.5360 O.co2 129  GLU129     -0.2457
      9  OE2       21.0930   46.1540   -2.7200 O.co2 129  GLU129     -0.2457
     10  N         20.5110   52.7200    4.5070 N.3   225  ILE225     -0.1231
     11  CA        21.5210   52.1220    3.6290 C.3   225  ILE225      0.1692
     12  C         22.0670   50.8220    4.1930 C.2   225  ILE225      0.2592
     13  O         22.3170   50.7120    5.3810 O.2   225  ILE225     -0.2718
     14  CB        22.6840   53.1100    3.3700 C.3   225  ILE225      0.0266
     15  CG1       22.1520   54.2960    2.5540 C.3   225  ILE225      0.0019
     16  CG2       23.8500   52.3900    2.6450 C.3   225  ILE225      0.0020
     17  CD1       23.1370   55.4570    2.4080 C.3   225  ILE225      0.0001
     18  N         22.2460   49.8370    3.3190 N.am  226  ASN226     -0.1974
     19  CA        22.8630   48.5580    3.6810 C.3   226  ASN226      0.1688
     20  C         24.3650   48.6450    3.4330 C.2   226  ASN226      0.2292
     21  O         24.7940   48.6360    2.2760 O.2   226  ASN226     -0.2864
     22  CB        22.2710   47.4680    2.7660 C.3   226  ASN226      0.1181
     23  CG        22.8750   46.0900    3.0060 C.2   226  ASN226      0.2629
     24  OD1       23.5880   45.8800    3.9800 O.2   226  ASN226     -0.2716
     25  ND2       22.5690   45.1390    2.1090 N.am  226  ASN226     -0.0877
     26  N         28.0720   45.4870    1.6700 N.3   229  ASN229     -0.1225
     27  CA        28.9660   45.2770    0.5350 C.3   229  ASN229      0.1785
     28  C         30.1970   46.1830    0.5570 C.2   229  ASN229      0.2597
     29  O         31.3140   45.7220    0.2630 O.2   229  ASN229     -0.2718
     30  CB        28.1990   45.4600   -0.7780 C.3   229  ASN229      0.1169
     31  CG        27.2610   44.2980   -1.0660 C.2   229  ASN229      0.2627
     32  OD1       27.2650   43.2870   -0.3580 O.2   229  ASN229     -0.2716
     33  ND2       26.4530   44.4400   -2.1160 N.am  229  ASN229     -0.0877
     34  N         30.0050   47.4610    0.8790 N.am  230  ILE230     -0.1980
     35  CA        31.1550   48.3810    0.9060 C.3   230  ILE230      0.1595
     36  C         32.1730   47.9760    1.9900 C.2   230  ILE230      0.2287
     37  O         33.3880   47.9740    1.7400 O.2   230  ILE230     -0.2864
     38  CB        30.7480   49.8680    1.0020 C.3   230  ILE230      0.0276
     39  CG1       31.9910   50.7620    0.7780 C.3   230  ILE230      0.0022
     40  CG2       30.0370   50.1890    2.3340 C.3   230  ILE230      0.0022
     41  CD1       31.6650   52.2370    0.6310 C.3   230  ILE230      0.0001
     42  N         32.8380   52.2800   -6.7140 N.3   315  LYS315     -0.1231
     43  CA        31.8170   51.4060   -7.3010 C.3   315  LYS315      0.1693
     44  C         30.5340   51.3090   -6.4620 C.2   315  LYS315      0.2592
     45  O         29.5130   50.7980   -6.9420 O.2   315  LYS315     -0.2718
     46  CB        32.3770   49.9970   -7.5270 C.3   315  LYS315      0.0285
     47  CG        32.5670   49.2270   -6.2130 C.3   315  LYS315      0.0035
     48  CD        33.2090   47.8430   -6.4580 C.3   315  LYS315      0.0206
     49  CE        34.6840   47.9870   -6.8840 C.3   315  LYS315      0.1093
     50  NZ        35.5370   48.4330   -5.7210 N.3   315  LYS315     -0.1314
     51  N         30.6040   51.7460   -5.2060 N.am  316  HIS316     -0.1962
     52  CA        29.4790   51.6320   -4.2790 C.3   316  HIS316      0.1787
     53  C         28.6680   52.9290   -4.3030 C.2   316  HIS316      0.2621
     54  O         28.9400   53.8560   -3.5460 O.2   316  HIS316     -0.2715
     55  CB        29.9920   51.2980   -2.8690 C.3   316  HIS316      0.0785
     56  CG        30.7370   50.0000   -2.8080 C.ar  316  HIS316      0.0821
     57  ND1       30.0940   48.7800   -2.7620 N.ar  316  HIS316     -0.2267
     58  CD2       32.0650   49.7260   -2.8570 C.ar  316  HIS316      0.1154
     59  CE1       30.9940   47.8110   -2.7550 C.ar  316  HIS316      0.1986
     60  NE2       32.1970   48.3570   -2.8180 N.ar  316  HIS316     -0.2212
     61  N         27.6530   52.9660   -5.1640 N.am  317  THR317     -0.1937
     62  CA        27.0250   54.2290   -5.5360 C.3   317  THR317      0.2028
     63  C         25.8940   54.6450   -4.5990 C.2   317  THR317      0.2642
     64  O         25.2840   55.6920   -4.7950 O.2   317  THR317     -0.2714
     65  CB        26.4850   54.1730   -6.9810 C.3   317  THR317      0.1808
     66  OG1       25.6030   53.0500   -7.1140 O.3   317  THR317     -0.2208
     67  CG2       27.6320   54.0110   -7.9600 C.3   317  THR317      0.0379
     68  N         25.6250   53.8330   -3.5900 N.am  318  ASN318     -0.1957
     69  CA        24.5710   54.1670   -2.6280 C.3   318  ASN318      0.1819
     70  C         25.0730   54.9090   -1.3990 C.2   318  ASN318      0.2621
     71  O         24.2890   55.2720   -0.5280 O.2   318  ASN318     -0.2715
     72  CB        23.8040   52.9160   -2.2190 C.3   318  ASN318      0.1195
     73  CG        22.9370   52.3830   -3.3420 C.2   318  ASN318      0.2630
     74  OD1       22.2830   53.1520   -4.0450 O.2   318  ASN318     -0.2716
     75  ND2       22.9380   51.0630   -3.5250 N.am  318  ASN318     -0.0877
     76  N         26.3780   55.1480   -1.3210 N.am  319  THR319     -0.1951
     77  CA        26.8970   55.9040   -0.1840 C.3   319  THR319      0.1897
     78  C         28.1490   56.6220   -0.6430 C.2   319  THR319      0.2313
     79  O         28.6890   56.3090   -1.7040 O.2   319  THR319     -0.2863
     80  CB        27.2000   54.9980    1.0380 C.3   319  THR319      0.1794
     81  OG1       27.5650   55.8080    2.1610 O.3   319  THR319     -0.2208
     82  CG2       28.3550   54.0410    0.7160 C.3   319  THR319      0.0378
@<TRIPOS>BOND
     1    67    65    1
     2    46    43    1
     3    46    47    1
     4    43    42    1
     5    43    44    1
     6    66    65    1
     7    65    62    1
     8    45    44    2
     9    49    48    1
    10    49    50    1
    11    44    51   am
    12    48    47    1
    13    62    61    1
    14    62    63    1
    15    51    52    1
    16    61    53   am
    17    64    63    2
    18    63    68   am
    19    53    52    1
    20    53    54    2
    21    52    55    1
    22    74    73    2
    23    68    69    1
    24    75    73   am
    25    73    72    1
    26     2     5    1
    27     2     1    1
    28     2     3    1
    29     5     6    1
    30     4     3    2
    31    55    56    1
    32    58    60   ar
    33    58    56   ar
    34    60    59   ar
    35    56    57   ar
    36    57    59   ar
    37     9     7   ar
    38    69    72    1
    39    69    70    1
    40    33    31   am
    41    79    78    2
    42     6     7    1
    43     7     8   ar
    44    70    76   am
    45    70    71    2
    46    76    77    1
    47    31    30    1
    48    31    32    2
    49    30    27    1
    50    78    77    1
    51    77    80    1
    52    29    28    2
    53    27    28    1
    54    27    26    1
    55    28    34   am
    56    41    39    1
    57    82    80    1
    58    39    38    1
    59    34    35    1
    60    35    38    1
    61    35    36    1
    62    38    40    1
    63    80    81    1
    64    37    36    2
    65    25    23   am
    66    21    20    2
    67    17    15    1
    68    15    14    1
    69    16    14    1
    70    22    23    1
    71    22    19    1
    72    23    24    2
    73    18    19    1
    74    18    12   am
    75    14    11    1
    76    20    19    1
    77    11    12    1
    78    11    10    1
    79    12    13    2
