@<TRIPOS>MOLECULE
tmp/3m84A00.pdb
 102 94 0 0 0
SMALL
GASTEIGER

@<TRIPOS>ATOM
      1  N         17.4110   45.8470   35.9250 N.3    20  VAL20      -0.1245
      2  CA        18.2990   45.6340   34.7820 C.3    20  VAL20       0.1561
      3  C         19.5140   44.7610   35.1260 C.2    20  VAL20       0.2260
      4  O         19.8780   43.8820   34.3470 O.2    20  VAL20      -0.2867
      5  CB        18.7430   46.9810   34.1470 C.3    20  VAL20       0.0252
      6  CG1       19.8420   46.7640   33.1200 C.3    20  VAL20       0.0019
      7  CG2       17.5470   47.6790   33.5100 C.3    20  VAL20       0.0019
      8  N         20.6140   41.0420   33.7590 N.3    23  LYS23      -0.1245
      9  CA        21.9020   40.7160   33.1640 C.3    23  LYS23       0.1561
     10  C         22.4860   39.4720   33.8080 C.2    23  LYS23       0.2260
     11  O         23.1140   38.6290   33.1440 O.2    23  LYS23      -0.2867
     12  CB        22.8600   41.9040   33.2790 C.3    23  LYS23       0.0271
     13  CG        22.4910   43.0520   32.3450 C.3    23  LYS23       0.0035
     14  CD        23.4510   44.2320   32.5240 C.3    23  LYS23       0.0206
     15  CE        23.1370   45.3520   31.5430 C.3    23  LYS23       0.1093
     16  NZ        24.3110   46.2570   31.3380 N.3    23  LYS23      -0.1314
     17  N         20.8890   36.3850   32.3600 N.3    26  VAL26      -0.1245
     18  CA        21.4060   36.0900   31.0150 C.3    26  VAL26       0.1561
     19  C         22.7760   35.4240   31.1110 C.2    26  VAL26       0.2260
     20  O         23.0520   34.4190   30.4590 O.2    26  VAL26      -0.2867
     21  CB        21.5300   37.3610   30.1580 C.3    26  VAL26       0.0252
     22  CG1       22.3350   37.0810   28.8820 C.3    26  VAL26       0.0019
     23  CG2       20.1340   37.9230   29.8240 C.3    26  VAL26       0.0019
     24  N         30.3830   44.3940   25.2550 N.3    39  GLY39      -0.1210
     25  CA        29.5020   45.3850   25.8430 C.3    39  GLY39       0.1956
     26  C         28.0410   45.3240   25.4420 C.2    39  GLY39       0.2613
     27  O         27.3890   44.2810   25.5480 O.2    39  GLY39      -0.2717
     28  N         27.5300   46.4630   24.9850 N.am   40  SER40      -0.1938
     29  CA        26.1090   46.6330   24.7020 C.3    40  SER40       0.2055
     30  C         25.6110   45.7270   23.5710 C.2    40  SER40       0.2643
     31  O         24.4300   45.3760   23.5230 O.2    40  SER40      -0.2714
     32  CB        25.8140   48.1030   24.3730 C.3    40  SER40       0.2130
     33  OG        24.4920   48.4580   24.7430 O.3    40  SER40      -0.2179
     34  N         26.5090   45.3490   22.6640 N.am   41  PHE41      -0.1959
     35  CA        26.1160   44.5410   21.5130 C.3    41  PHE41       0.1771
     36  C         25.3850   43.2620   21.9090 C.2    41  PHE41       0.2620
     37  O         24.3490   42.9200   21.3270 O.2    41  PHE41      -0.2715
     38  CB        27.3170   44.1660   20.6380 C.3    41  PHE41       0.0574
     39  CG        26.9760   43.1540   19.5820 C.ar   41  PHE41      -0.0200
     40  CD1       26.3800   43.5530   18.3870 C.ar   41  PHE41      -0.0042
     41  CD2       27.1960   41.8000   19.8020 C.ar   41  PHE41      -0.0042
     42  CE1       26.0290   42.6120   17.4190 C.ar   41  PHE41      -0.0003
     43  CE2       26.8530   40.8540   18.8440 C.ar   41  PHE41      -0.0003
     44  CZ        26.2690   41.2560   17.6520 C.ar   41  PHE41      -0.0000
     45  N         25.9390   42.5630   22.8950 N.am   42  GLY42      -0.1954
     46  CA        25.5000   41.2230   23.2560 C.3    42  GLY42       0.1869
     47  C         26.7470   40.3570   23.3300 C.2    42  GLY42       0.2309
     48  O         27.8340   40.8760   23.5400 O.2    42  GLY42      -0.2863
     49  N         16.1280   37.4420   21.7260 N.3   104  ASP104     -0.1239
     50  CA        14.7240   37.7930   21.9120 C.3   104  ASP104      0.1674
     51  C         14.4930   39.2740   21.7270 C.2   104  ASP104      0.2266
     52  O         15.3760   40.0860   22.0010 O.2   104  ASP104     -0.2867
     53  CB        14.2710   37.4090   23.3140 C.3   104  ASP104      0.1410
     54  CG        14.9090   38.2620   24.3660 C.2   104  ASP104      0.3668
     55  OD1       16.1390   38.1210   24.6040 O.co2 104  ASP104     -0.2456
     56  OD2       14.1820   39.1000   24.9400 O.co2 104  ASP104     -0.2456
     57  N         11.4160   42.1290   22.6760 N.3   106  VAL106     -0.1245
     58  CA        10.1620   42.3640   23.3820 C.3   106  VAL106      0.1561
     59  C          9.7590   43.8120   23.2090 C.2   106  VAL106      0.2260
     60  O         10.5260   44.7390   23.5320 O.2   106  VAL106     -0.2867
     61  CB        10.2750   42.0490   24.8940 C.3   106  VAL106      0.0252
     62  CG1        8.8900   42.1670   25.5510 C.3   106  VAL106      0.0019
     63  CG2       10.8700   40.6750   25.1000 C.3   106  VAL106      0.0019
     64  N         12.8250   37.7870   31.1670 N.3   119  VAL119     -0.1245
     65  CA        14.1590   37.2930   30.8620 C.3   119  VAL119      0.1561
     66  C         14.5980   36.1810   31.8200 C.2   119  VAL119      0.2260
     67  O         15.3310   35.2780   31.4190 O.2   119  VAL119     -0.2867
     68  CB        15.1910   38.4390   30.8330 C.3   119  VAL119      0.0252
     69  CG1       16.6110   37.8740   30.7420 C.3   119  VAL119      0.0019
     70  CG2       14.9150   39.3330   29.6470 C.3   119  VAL119      0.0019
     71  N         21.9420   32.6480   25.7670 N.3   132  LEU132     -0.1245
     72  CA        21.1090   33.7910   25.3680 C.3   132  LEU132      0.1561
     73  C         22.0730   34.8880   24.9640 C.2   132  LEU132      0.2260
     74  O         22.6460   35.5650   25.8200 O.2   132  LEU132     -0.2867
     75  CB        20.2120   34.2310   26.5170 C.3   132  LEU132      0.0270
     76  CG        18.9800   35.0650   26.1160 C.3   132  LEU132      0.0019
     77  CD1       17.9980   35.1440   27.2940 C.3   132  LEU132      0.0001
     78  CD2       19.3890   36.4450   25.6550 C.3   132  LEU132      0.0001
     79  N         21.8220   37.6240   22.8810 N.3   134  GLY134     -0.1210
     80  CA        21.5130   39.0210   22.6600 C.3   134  GLY134      0.1956
     81  C         20.0220   39.2450   22.6110 C.2   134  GLY134      0.2612
     82  O         19.2410   38.2880   22.6000 O.2   134  GLY134     -0.2717
     83  N         19.6180   40.5080   22.6040 N.am  135  GLY135     -0.1942
     84  CA        18.2070   40.8020   22.5290 C.3   135  GLY135      0.2014
     85  C         18.0000   42.2620   22.2370 C.2   135  GLY135      0.2639
     86  O         18.9600   42.9950   21.9720 O.2   135  GLY135     -0.2714
     87  N         16.7430   42.6800   22.2830 N.am  136  GLU136     -0.1963
     88  CA        16.4080   44.0680   22.0230 C.3   136  GLU136      0.1733
     89  C         15.0350   44.3370   22.6120 C.2   136  GLU136      0.2617
     90  O         14.2210   43.4250   22.7960 O.2   136  GLU136     -0.2715
     91  CB        16.4180   44.3020   20.5050 C.3   136  GLU136      0.0429
     92  CG        16.0360   45.7020   20.0650 C.3   136  GLU136      0.1163
     93  CD        17.1480   46.7170   20.2260 C.2   136  GLU136      0.3649
     94  OE1       16.8760   47.9190   19.9990 O.co2 136  GLU136     -0.2457
     95  OE2       18.2910   46.3360   20.5660 O.co2 136  GLU136     -0.2457
     96  N         14.7700   45.5930   22.9240 N.am  137  THR137     -0.1951
     97  CA        13.4480   45.9460   23.4170 C.3   137  THR137      0.1897
     98  C         12.9700   47.1570   22.6500 C.2   137  THR137      0.2313
     99  O         13.7640   47.9030   22.0680 O.2   137  THR137     -0.2863
    100  CB        13.4820   46.3370   24.8950 C.3   137  THR137      0.1794
    101  OG1       14.2380   47.5500   25.0240 O.3   137  THR137     -0.2208
    102  CG2       14.1400   45.2390   25.7280 C.3   137  THR137      0.0378
@<TRIPOS>BOND
     1    42    44   ar
     2    42    40   ar
     3    44    43   ar
     4    40    39   ar
     5    43    41   ar
     6    39    41   ar
     7    39    38    1
     8    94    93   ar
     9    92    93    1
    10    92    91    1
    11    93    95   ar
    12    91    88    1
    13    38    35    1
    14    37    36    2
    15    35    36    1
    16    35    34    1
    17    49    50    1
    18    51    50    1
    19    51    52    2
    20    36    45   am
    21    50    53    1
    22    86    85    2
    23    88    87    1
    24    88    89    1
    25    99    98    2
    26    85    87   am
    27    85    84    1
    28    84    83    1
    29    82    81    2
    30    83    81   am
    31    81    80    1
    32    89    90    2
    33    89    96   am
    34    98    97    1
    35    80    79    1
    36    34    30   am
    37    57    58    1
    38    45    46    1
    39    96    97    1
    40    59    58    1
    41    59    60    2
    42    46    47    1
    43    53    54    1
    44    47    48    2
    45    58    61    1
    46    97   100    1
    47    31    30    2
    48    30    29    1
    49    54    55   ar
    50    54    56   ar
    51    32    29    1
    52    32    33    1
    53    29    28    1
    54    61    63    1
    55    61    62    1
    56   100   101    1
    57   100   102    1
    58    73    72    1
    59    73    74    2
    60    28    26   am
    61    24    25    1
    62    72    71    1
    63    72    75    1
    64    26    27    2
    65    26    25    1
    66    78    76    1
    67    76    75    1
    68    76    77    1
    69    22    21    1
    70    70    68    1
    71    23    21    1
    72    21    18    1
    73    20    19    2
    74    69    68    1
    75    68    65    1
    76    65    64    1
    77    65    66    1
    78    18    19    1
    79    18    17    1
    80    16    15    1
    81    67    66    2
    82    15    14    1
    83    13    14    1
    84    13    12    1
    85     6     5    1
    86    11    10    2
    87     9    12    1
    88     9     8    1
    89     9    10    1
    90     7     5    1
    91     5     2    1
    92     4     3    2
    93     2     3    1
    94     2     1    1
