@<TRIPOS>MOLECULE
tmp/3m8bA06.pdb
 159 148 0 0 0
SMALL
GASTEIGER

@<TRIPOS>ATOM
      1  N        -35.7330  -12.9330    2.9900 N.3     5  CYS5       -0.1221
      2  CA       -36.7490  -13.9070    3.1710 C.3     5  CYS5        0.1808
      3  C        -37.8410  -13.3480    4.0670 C.2     5  CYS5        0.2601
      4  O        -38.9370  -13.9370    4.1320 O.2     5  CYS5       -0.2717
      5  CB       -36.1400  -15.2790    3.5810 C.3     5  CYS5        0.0970
      6  SG       -35.1130  -15.1960    5.0790 S.3     5  CYS5       -0.0800
      7  N        -37.6230  -12.1960    4.7130 N.am    6  THR6       -0.1953
      8  CA       -38.5520  -11.7810    5.7380 C.3     6  THR6        0.1897
      9  C        -39.9480  -11.2750    5.2120 C.2     6  THR6        0.2313
     10  O        -40.9290  -11.2890    5.9540 O.2     6  THR6       -0.2863
     11  CB       -37.8470  -10.7120    6.6720 C.3     6  THR6        0.1794
     12  OG1      -36.6590  -11.2960    7.2210 O.3     6  THR6       -0.2208
     13  CG2      -38.7890  -10.1520    7.8440 C.3     6  THR6        0.0378
     14  N        -41.6880  -14.8220    4.0620 N.3     9  ARG9       -0.1231
     15  CA       -41.0520  -15.9780    4.6840 C.3     9  ARG9        0.1694
     16  C        -40.1210  -16.7880    3.7840 C.2     9  ARG9        0.2592
     17  O        -39.4360  -17.6890    4.2620 O.2     9  ARG9       -0.2718
     18  CB       -42.0700  -16.8780    5.2510 C.3     9  ARG9        0.0321
     19  CG       -42.9610  -16.2040    6.2560 C.3     9  ARG9        0.0489
     20  CD       -43.8510  -17.2580    6.7740 C.3     9  ARG9        0.2205
     21  NE       -44.9360  -16.7620    7.6080 N.pl3   9  ARG9       -0.0865
     22  CZ       -44.9400  -16.8430    8.9300 C.cat   9  ARG9        0.5346
     23  NH1      -43.8510  -17.3280    9.5580 N.pl3   9  ARG9        0.1354
     24  NH2      -46.0190  -16.3940    9.6080 N.pl3   9  ARG9        0.1354
     25  N        -40.0700  -16.4730    2.4980 N.am   10  PHE10      -0.1962
     26  CA       -39.2770  -17.2230    1.5670 C.3    10  PHE10       0.1771
     27  C        -38.3320  -16.2590    0.7930 C.2    10  PHE10       0.2619
     28  O        -38.6030  -15.0730    0.7140 O.2    10  PHE10      -0.2715
     29  CB       -40.2010  -17.9460    0.5910 C.3    10  PHE10       0.0574
     30  CG       -40.8730  -19.1170    1.1750 C.ar   10  PHE10      -0.0200
     31  CD1      -42.1590  -19.0160    1.6720 C.ar   10  PHE10      -0.0042
     32  CD2      -40.2320  -20.3260    1.2460 C.ar   10  PHE10      -0.0042
     33  CE1      -42.8020  -20.1200    2.2120 C.ar   10  PHE10      -0.0003
     34  CE2      -40.8750  -21.4380    1.7850 C.ar   10  PHE10      -0.0003
     35  CZ       -42.1590  -21.3250    2.2730 C.ar   10  PHE10      -0.0000
     36  N        -37.2300  -16.7800    0.2710 N.am   11  GLU11      -0.1977
     37  CA       -36.2850  -15.9950   -0.5120 C.3    11  GLU11       0.1602
     38  C        -36.8630  -15.2950   -1.7410 C.2    11  GLU11       0.2287
     39  O        -37.4090  -15.9350   -2.6300 O.2    11  GLU11      -0.2864
     40  CB       -35.1970  -16.8930   -1.0640 C.3    11  GLU11       0.0415
     41  CG       -34.0380  -17.0110   -0.1600 C.3    11  GLU11       0.1163
     42  CD       -32.7920  -17.5900   -0.8340 C.2    11  GLU11       0.3649
     43  OE1      -32.7380  -17.7780   -2.0830 O.co2  11  GLU11      -0.2457
     44  OE2      -31.8540  -17.8550   -0.0500 O.co2  11  GLU11      -0.2457
     45  N        -34.9180  -15.4210   14.0070 N.3    76  ASP76      -0.1225
     46  CA       -35.0320  -16.5530   13.0400 C.3    76  ASP76       0.1805
     47  C        -36.4850  -16.8130   12.7090 C.2    76  ASP76       0.2598
     48  O        -36.9150  -17.9390   12.6300 O.2    76  ASP76      -0.2718
     49  CB       -34.3520  -17.8210   13.5820 C.3    76  ASP76       0.1424
     50  CG       -32.8090  -17.6520   13.6690 C.2    76  ASP76       0.3668
     51  OD1      -32.1940  -17.1230   12.6920 O.co2  76  ASP76      -0.2456
     52  OD2      -32.2230  -18.0250   14.7030 O.co2  76  ASP76      -0.2456
     53  N        -37.2330  -15.7200   12.5250 N.am   77  GLY77      -0.1957
     54  CA       -38.5970  -15.8040   12.0070 C.3    77  GLY77       0.1869
     55  C        -39.6300  -16.1030   13.0760 C.2    77  GLY77       0.2309
     56  O        -40.7690  -16.2490   12.7690 O.2    77  GLY77      -0.2863
     57  N        -32.8570   -8.4180    8.8380 N.3   103  GLU103     -0.1245
     58  CA       -33.7220   -7.9920    7.7470 C.3   103  GLU103      0.1567
     59  C        -34.8180   -7.1560    8.3480 C.2   103  GLU103      0.2260
     60  O        -35.5550   -7.5960    9.2330 O.2   103  GLU103     -0.2867
     61  CB       -34.2840   -9.1820    6.9600 C.3   103  GLU103      0.0388
     62  CG       -33.2020  -10.0160    6.4140 C.3   103  GLU103      0.1160
     63  CD       -33.6760  -11.1120    5.4290 C.2   103  GLU103      0.3649
     64  OE1      -34.8420  -11.4990    5.4250 O.co2 103  GLU103     -0.2457
     65  OE2      -32.8530  -11.5510    4.6340 O.co2 103  GLU103     -0.2457
     66  N        -47.6040  -12.1170    9.5610 N.3   113  TYR113     -0.1241
     67  CA       -47.1240  -12.5940   10.8460 C.3   113  TYR113      0.1605
     68  C        -48.1290  -12.3980   11.9870 C.2   113  TYR113      0.2264
     69  O        -47.8820  -12.8940   13.0740 O.2   113  TYR113     -0.2867
     70  CB       -45.8100  -11.9470   11.2140 C.3   113  TYR113      0.0534
     71  CG       -44.6640  -12.2370   10.3010 C.ar  113  TYR113     -0.0201
     72  CD1      -44.2020  -11.2830    9.4460 C.ar  113  TYR113     -0.0009
     73  CD2      -44.0140  -13.4340   10.3090 C.ar  113  TYR113     -0.0009
     74  CE1      -43.2050  -11.5210    8.6160 C.ar  113  TYR113      0.0417
     75  CE2      -42.9330  -13.6620    9.4720 C.ar  113  TYR113      0.0417
     76  CZ       -42.5340  -12.6980    8.6420 C.ar  113  TYR113      0.1957
     77  OH       -41.4710  -12.8900    7.7620 O.3   113  TYR113     -0.2866
     78  N        -36.2010   -8.7040   11.7040 N.3   123  ASN123     -0.1240
     79  CA       -35.9250  -10.1560   11.8590 C.3   123  ASN123      0.1653
     80  C        -34.4110  -10.3620   12.0550 C.2   123  ASN123      0.2266
     81  O        -33.5920   -9.9800   11.2200 O.2   123  ASN123     -0.2867
     82  CB       -36.4080  -10.8830   10.6200 C.3   123  ASN123      0.1155
     83  CG       -36.3660  -12.3950   10.7170 C.2   123  ASN123      0.2627
     84  OD1      -36.1460  -12.9750   11.7870 O.2   123  ASN123     -0.2716
     85  ND2      -36.6210  -13.0600    9.5600 N.am  123  ASN123     -0.0877
     86  N        -31.4730  -12.7630   12.4250 N.3   125  ILE125     -0.1245
     87  CA       -31.1470  -14.1000   11.9460 C.3   125  ILE125      0.1561
     88  C        -29.7820  -14.5280   12.5110 C.2   125  ILE125      0.2260
     89  O        -28.8190  -13.7510   12.5140 O.2   125  ILE125     -0.2867
     90  CB       -31.1870  -14.1380   10.4010 C.3   125  ILE125      0.0252
     91  CG1      -32.6520  -14.0920    9.8630 C.3   125  ILE125      0.0019
     92  CG2      -30.5740  -15.4250    9.8760 C.3   125  ILE125      0.0019
     93  CD1      -32.7290  -13.6490    8.3720 C.3   125  ILE125      0.0001
     94  N        -28.2010  -17.5660   11.8050 N.3   127  THR127     -0.1218
     95  CA       -27.5240  -18.5190   10.9160 C.3   127  THR127      0.1862
     96  C        -26.5510  -17.8380   10.0100 C.2   127  THR127      0.2287
     97  O        -26.8570  -16.8340    9.4410 O.2   127  THR127     -0.2866
     98  CB       -28.4930  -19.2110    9.9330 C.3   127  THR127      0.1770
     99  OG1      -29.6620  -19.6730   10.6220 O.3   127  THR127     -0.2211
    100  CG2      -27.7920  -20.3880    9.2640 C.3   127  THR127      0.0375
    101  N        -32.9270  -29.1540   10.2000 N.3   194  PHE194     -0.1241
    102  CA       -32.0750  -28.5090   11.1820 C.3   194  PHE194      0.1605
    103  C        -32.6250  -28.5930   12.6050 C.2   194  PHE194      0.2264
    104  O        -33.8410  -28.6520   12.8420 O.2   194  PHE194     -0.2867
    105  CB       -31.8060  -27.0580   10.7930 C.3   194  PHE194      0.0534
    106  CG       -32.9820  -26.1450   11.0080 C.ar  194  PHE194     -0.0203
    107  CD1      -33.1570  -25.5000   12.2180 C.ar  194  PHE194     -0.0042
    108  CD2      -33.9230  -25.9450    9.9990 C.ar  194  PHE194     -0.0042
    109  CE1      -34.2600  -24.6640   12.4220 C.ar  194  PHE194     -0.0003
    110  CE2      -35.0280  -25.1130   10.1900 C.ar  194  PHE194     -0.0003
    111  CZ       -35.1990  -24.4720   11.4100 C.ar  194  PHE194     -0.0000
    112  N        -31.4890  -26.5160   16.3030 N.3   196  ARG196     -0.1245
    113  CA       -30.7500  -25.3200   16.6820 C.3   196  ARG196      0.1563
    114  C        -31.0020  -25.0240   18.1560 C.2   196  ARG196      0.2260
    115  O        -32.1440  -24.9100   18.5630 O.2   196  ARG196     -0.2867
    116  CB       -31.2840  -24.2080   15.8110 C.3   196  ARG196      0.0307
    117  CG       -30.4150  -23.0100   15.5940 C.3   196  ARG196      0.0489
    118  CD       -31.2760  -21.7740   15.2430 C.3   196  ARG196      0.2205
    119  NE       -31.7370  -21.8180   13.8400 N.pl3 196  ARG196     -0.0865
    120  CZ       -32.9300  -21.3940   13.4040 C.cat 196  ARG196      0.5346
    121  NH1      -33.8140  -20.8990   14.2570 N.pl3 196  ARG196      0.1354
    122  NH2      -33.2580  -21.4830   12.1150 N.pl3 196  ARG196      0.1354
    123  N        -37.0760  -28.3160    5.6080 N.3   220  ARG220     -0.1245
    124  CA       -37.2970  -27.4740    4.4330 C.3   220  ARG220      0.1563
    125  C        -37.2710  -28.2260    3.0920 C.2   220  ARG220      0.2260
    126  O        -36.4790  -29.1590    2.9030 O.2   220  ARG220     -0.2867
    127  CB       -36.2550  -26.3630    4.3780 C.3   220  ARG220      0.0307
    128  CG       -36.1500  -25.5990    5.6350 C.3   220  ARG220      0.0489
    129  CD       -35.9110  -24.1590    5.3660 C.3   220  ARG220      0.2205
    130  NE       -34.6010  -23.9460    4.7760 N.pl3 220  ARG220     -0.0865
    131  CZ       -33.4660  -23.9220    5.4730 C.cat 220  ARG220      0.5346
    132  NH1      -33.4730  -24.1170    6.8110 N.pl3 220  ARG220      0.1354
    133  NH2      -32.3150  -23.7150    4.8260 N.pl3 220  ARG220      0.1354
    134  N        -41.7490  -25.1030    4.2210 N.3   229  GLN229     -0.1245
    135  CA       -41.0280  -25.1060    5.4620 C.3   229  GLN229      0.1566
    136  C        -41.9300  -25.5040    6.6280 C.2   229  GLN229      0.2260
    137  O        -43.0420  -25.0280    6.7560 O.2   229  GLN229     -0.2867
    138  CB       -40.3450  -23.7060    5.6760 C.3   229  GLN229      0.0367
    139  CG       -41.2910  -22.5250    6.0810 C.3   229  GLN229      0.0905
    140  CD       -40.5470  -21.1670    6.1770 C.2   229  GLN229      0.2608
    141  OE1      -39.6480  -20.8890    5.3940 O.2   229  GLN229     -0.2717
    142  NE2      -40.9280  -20.3390    7.1290 N.am  229  GLN229     -0.0878
    143  N        -41.4680  -25.5630   10.7110 N.3   231  ILE231     -0.1245
    144  CA       -40.5680  -25.2070   11.8400 C.3   231  ILE231      0.1561
    145  C        -41.2960  -25.2480   13.1720 C.2   231  ILE231      0.2260
    146  O        -42.4250  -24.7330   13.2930 O.2   231  ILE231     -0.2867
    147  CB       -39.9810  -23.8110   11.6620 C.3   231  ILE231      0.0252
    148  CG1      -39.2600  -23.7440   10.3110 C.3   231  ILE231      0.0019
    149  CG2      -39.0290  -23.4410   12.8850 C.3   231  ILE231      0.0019
    150  CD1      -38.5000  -22.4680   10.0780 C.3   231  ILE231      0.0001
    151  N        -45.3370  -23.6850   12.6420 N.3   254  GLN254     -0.1245
    152  CA       -45.7450  -22.9510   11.4320 C.3   254  GLN254      0.1566
    153  C        -45.3740  -23.7530   10.2020 C.2   254  GLN254      0.2260
    154  O        -44.2750  -24.2900   10.1210 O.2   254  GLN254     -0.2867
    155  CB       -45.1200  -21.5460   11.4380 C.3   254  GLN254      0.0367
    156  CG       -43.6320  -21.5070   11.3080 C.3   254  GLN254      0.0905
    157  CD       -43.0250  -20.1180   11.6150 C.2   254  GLN254      0.2608
    158  OE1      -43.7490  -19.1870   12.0430 O.2   254  GLN254     -0.2717
    159  NE2      -41.6840  -19.9760   11.4260 N.am  254  GLN254     -0.0878
@<TRIPOS>BOND
     1    39    38    2
     2    43    42   ar
     3    38    37    1
     4    40    37    1
     5    40    41    1
     6    42    41    1
     7    42    44   ar
     8    37    36    1
     9    36    27   am
    10    29    30    1
    11    29    26    1
    12    28    27    2
    13    27    26    1
    14    30    32   ar
    15    30    31   ar
    16    32    34   ar
    17    26    25    1
    18    31    33   ar
    19    34    35   ar
    20    33    35   ar
    21    25    16   am
    22   126   125    2
    23     1     2    1
    24   125   124    1
    25     2     5    1
    26     2     3    1
    27     5     6    1
    28    16    17    2
    29    16    15    1
    30    14    15    1
    31     3     4    2
    32     3     7   am
    33   134   135    1
    34   127   124    1
    35   127   128    1
    36   124   123    1
    37    65    63   ar
    38    15    18    1
    39     7     8    1
    40   130   129    1
    41   130   131    2
    42   133   131    1
    43     9     8    1
    44     9    10    2
    45    18    19    1
    46   129   128    1
    47   141   140    2
    48    64    63   ar
    49    63    62    1
    50   135   138    1
    51   135   136    1
    52   131   132    1
    53   138   139    1
    54     8    11    1
    55   139   140    1
    56   140   142   am
    57    19    20    1
    58    62    61    1
    59   136   137    2
    60    11    12    1
    61    11    13    1
    62    20    21    1
    63    61    58    1
    64    21    22    2
    65    58    59    1
    66    58    57    1
    67    77    76    1
    68    59    60    2
    69    93    91    1
    70    74    76   ar
    71    74    72   ar
    72    76    75   ar
    73    22    23    1
    74    22    24    1
    75   100    98    1
    76    97    96    2
    77    72    71   ar
    78    75    73   ar
    79    85    83   am
    80    66    67    1
    81    91    90    1
    82    92    90    1
    83    98    99    1
    84    98    95    1
    85   108   110   ar
    86   108   106   ar
    87    96    95    1
    88   150   148    1
    89   154   153    2
    90   110   111   ar
    91   101   102    1
    92   153   152    1
    93    71    73   ar
    94    71    70    1
    95   148   147    1
    96    90    87    1
    97    82    83    1
    98    82    79    1
    99   143   144    1
   100    83    84    2
   101   105   106    1
   102   105   102    1
   103    67    70    1
   104    67    68    1
   105    95    94    1
   106   106   107   ar
   107   102   103    1
   108    81    80    2
   109   156   155    1
   110   156   157    1
   111   111   109   ar
   112   159   157   am
   113   152   155    1
   114   152   151    1
   115   157   158    2
   116   147   144    1
   117   147   149    1
   118    78    79    1
   119   144   145    1
   120    79    80    1
   121    87    86    1
   122    87    88    1
   123    68    69    2
   124    54    53    1
   125    54    55    1
   126   122   120    1
   127   107   109   ar
   128    88    89    2
   129    53    47   am
   130   103   104    2
   131    48    47    2
   132    51    50   ar
   133    47    46    1
   134    56    55    2
   135    46    49    1
   136    46    45    1
   137   145   146    2
   138   120   119    2
   139   120   121    1
   140    49    50    1
   141    50    52   ar
   142   119   118    1
   143   118   117    1
   144   117   116    1
   145   116   113    1
   146   112   113    1
   147   113   114    1
   148   114   115    2
