@<TRIPOS>MOLECULE
tmp/3m8dA03.pdb
 88 86 0 0 0
SMALL
GASTEIGER

@<TRIPOS>ATOM
      1  N          9.7020  -30.7600  -42.2130 N.3   420  TRP420     -0.1227
      2  CA         9.3380  -31.7520  -41.2710 C.3   420  TRP420      0.1737
      3  C         10.4180  -32.7840  -41.1900 C.2   420  TRP420      0.2595
      4  O         11.1610  -32.9460  -42.1300 O.2   420  TRP420     -0.2718
      5  CB         7.9920  -32.3880  -41.6690 C.3   420  TRP420      0.0564
      6  CG         7.9690  -32.9790  -43.0400 C.ar  420  TRP420      0.0003
      7  CD1        7.6190  -32.3370  -44.2060 C.ar  420  TRP420      0.0946
      8  CD2        8.3310  -34.2950  -43.4130 C.ar  420  TRP420      0.0152
      9  NE1        7.7000  -33.1970  -45.2730 N.ar  420  TRP420     -0.2442
     10  CE2        8.1560  -34.4040  -44.8130 C.ar  420  TRP420      0.0810
     11  CE3        8.7630  -35.4160  -42.7050 C.ar  420  TRP420      0.0012
     12  CZ2        8.3870  -35.5840  -45.5000 C.ar  420  TRP420      0.0191
     13  CZ3        9.0020  -36.6070  -43.4130 C.ar  420  TRP420      0.0001
     14  CH2        8.8600  -36.6590  -44.7850 C.ar  420  TRP420      0.0015
     15  N         10.5050  -33.4780  -40.0480 N.am  421  ARG421     -0.1966
     16  CA        11.4020  -34.6330  -39.9010 C.3   421  ARG421      0.1729
     17  C         10.7280  -35.6700  -38.9950 C.2   421  ARG421      0.2616
     18  O         10.0980  -35.3120  -38.0200 O.2   421  ARG421     -0.2715
     19  CB        12.7090  -34.1790  -39.2960 C.3   421  ARG421      0.0348
     20  CG        13.7560  -35.2780  -39.1140 C.3   421  ARG421      0.0492
     21  CD        15.0350  -34.7020  -38.5360 C.3   421  ARG421      0.2205
     22  NE        16.0790  -35.7310  -38.4040 N.pl3 421  ARG421     -0.0865
     23  CZ        17.3870  -35.5810  -38.7190 C.cat 421  ARG421      0.5346
     24  NH1       17.8860  -34.4330  -39.1780 N.pl3 421  ARG421      0.1354
     25  NH2       18.2390  -36.6030  -38.5640 N.pl3 421  ARG421      0.1354
     26  N         10.8380  -36.9520  -39.3310 N.am  422  ILE422     -0.1977
     27  CA        10.4650  -37.9980  -38.4020 C.3   422  ILE422      0.1596
     28  C         11.6040  -39.0480  -38.2850 C.2   422  ILE422      0.2287
     29  O         12.0930  -39.5030  -39.2950 O.2   422  ILE422     -0.2864
     30  CB         9.1510  -38.6810  -38.8240 C.3   422  ILE422      0.0276
     31  CG1        8.7620  -39.7560  -37.8270 C.3   422  ILE422      0.0022
     32  CG2        9.3010  -39.3570  -40.1030 C.3   422  ILE422      0.0022
     33  CD1        7.3330  -40.1860  -38.0480 C.3   422  ILE422      0.0001
     34  N         10.6860  -42.3830  -30.8930 N.3   453  VAL453     -0.1245
     35  CA        10.3440  -41.7340  -32.1270 C.3   453  VAL453      0.1561
     36  C         10.2830  -40.2800  -31.8530 C.2   453  VAL453      0.2260
     37  O          9.6960  -39.9100  -30.8630 O.2   453  VAL453     -0.2867
     38  CB         8.9790  -42.2290  -32.6270 C.3   453  VAL453      0.0252
     39  CG1        8.5950  -41.4960  -33.8870 C.3   453  VAL453      0.0019
     40  CG2        9.0430  -43.7520  -32.8390 C.3   453  VAL453      0.0019
     41  N          9.1380  -36.6780  -33.9540 N.3   455  ALA455     -0.1231
     42  CA         8.5180  -36.0850  -35.1020 C.3   455  ALA455      0.1694
     43  C          8.4850  -34.5790  -34.9420 C.2   455  ALA455      0.2593
     44  O          7.9350  -34.0990  -33.9760 O.2   455  ALA455     -0.2718
     45  CB         7.1180  -36.6490  -35.2910 C.3   455  ALA455      0.0304
     46  N          9.0630  -33.8310  -35.8900 N.am  456  THR456     -0.1939
     47  CA         8.9510  -32.3670  -35.8740 C.3   456  THR456      0.2028
     48  C          8.4100  -31.7280  -37.1290 C.2   456  THR456      0.2642
     49  O          8.4850  -32.2910  -38.2450 O.2   456  THR456     -0.2714
     50  CB        10.2590  -31.7340  -35.5720 C.3   456  THR456      0.1808
     51  OG1       11.1870  -32.1480  -36.5410 O.3   456  THR456     -0.2208
     52  CG2       10.7570  -32.1790  -34.1530 C.3   456  THR456      0.0379
     53  N          7.8370  -30.5380  -36.9720 N.am  457  ALA457     -0.1977
     54  CA         7.4730  -29.7820  -38.1490 C.3   457  ALA457      0.1597
     55  C          7.3750  -28.3200  -37.7860 C.2   457  ALA457      0.2287
     56  O          7.1310  -27.9690  -36.6270 O.2   457  ALA457     -0.2864
     57  CB         6.1660  -30.2780  -38.6860 C.3   457  ALA457      0.0319
     58  N          6.1530  -27.4090  -33.8910 N.3   468  VAL468     -0.1245
     59  CA         5.5040  -28.5410  -33.2360 C.3   468  VAL468      0.1561
     60  C          6.3880  -29.7690  -33.2190 C.2   468  VAL468      0.2260
     61  O          6.9950  -30.0990  -34.2410 O.2   468  VAL468     -0.2867
     62  CB         4.2040  -28.9200  -33.9310 C.3   468  VAL468      0.0252
     63  CG1        4.4620  -29.5090  -35.2780 C.3   468  VAL468      0.0019
     64  CG2        3.3810  -29.8970  -33.0500 C.3   468  VAL468      0.0019
     65  N          6.5410  -34.0960  -31.5220 N.3   470  TYR470     -0.1241
     66  CA         5.9800  -35.1770  -30.7780 C.3   470  TYR470      0.1605
     67  C          7.1350  -36.1340  -30.4560 C.2   470  TYR470      0.2264
     68  O          7.9440  -36.4240  -31.3630 O.2   470  TYR470     -0.2867
     69  CB         4.9170  -35.8790  -31.5610 C.3   470  TYR470      0.0534
     70  CG         4.6060  -37.2390  -30.9910 C.ar  470  TYR470     -0.0201
     71  CD1        3.7160  -37.4040  -29.9900 C.ar  470  TYR470     -0.0009
     72  CD2        5.2600  -38.3490  -31.4430 C.ar  470  TYR470     -0.0009
     73  CE1        3.4690  -38.6490  -29.4790 C.ar  470  TYR470      0.0417
     74  CE2        4.9800  -39.5890  -30.9790 C.ar  470  TYR470      0.0417
     75  CZ         4.0990  -39.7210  -29.9900 C.ar  470  TYR470      0.1957
     76  OH         3.8690  -40.9740  -29.5250 O.3   470  TYR470     -0.2866
     77  N          8.0300  -39.9590  -28.7660 N.3   472  TYR472     -0.1241
     78  CA         7.7220  -41.1800  -28.0440 C.3   472  TYR472      0.1605
     79  C          9.0380  -41.7740  -27.5280 C.2   472  TYR472      0.2264
     80  O          9.9870  -41.9760  -28.2740 O.2   472  TYR472     -0.2867
     81  CB         6.8860  -42.1340  -28.9250 C.3   472  TYR472      0.0534
     82  CG         6.7240  -43.5860  -28.4850 C.ar  472  TYR472     -0.0201
     83  CD1        5.4990  -44.0750  -28.0670 C.ar  472  TYR472     -0.0009
     84  CD2        7.7740  -44.4830  -28.5620 C.ar  472  TYR472     -0.0009
     85  CE1        5.3350  -45.4070  -27.6960 C.ar  472  TYR472      0.0417
     86  CE2        7.6350  -45.8260  -28.1930 C.ar  472  TYR472      0.0417
     87  CZ         6.4050  -46.2880  -27.7480 C.ar  472  TYR472      0.1957
     88  OH         6.2490  -47.6260  -27.3830 O.3   472  TYR472     -0.2866
@<TRIPOS>BOND
     1    12    10   ar
     2    12    14   ar
     3     9    10   ar
     4     9     7   ar
     5    10     8   ar
     6    14    13   ar
     7     7     6   ar
     8    13    11   ar
     9     8     6   ar
    10     8    11   ar
    11     6     5    1
    12     1     2    1
    13     4     3    2
    14     5     2    1
    15     2     3    1
    16     3    15   am
    17    32    30    1
    18    15    16    1
    19    16    19    1
    20    16    17    1
    21    26    17   am
    22    26    27    1
    23    19    20    1
    24    29    28    2
    25    24    23    1
    26    20    21    1
    27    17    18    2
    28    30    27    1
    29    30    31    1
    30    23    25    1
    31    23    22    2
    32    57    54    1
    33    21    22    1
    34    27    28    1
    35    49    48    2
    36    54    55    1
    37    54    53    1
    38    33    31    1
    39    55    56    2
    40    48    53   am
    41    48    47    1
    42    51    50    1
    43    46    47    1
    44    46    43   am
    45    47    50    1
    46    50    52    1
    47    45    42    1
    48    63    62    1
    49    42    43    1
    50    42    41    1
    51    43    44    2
    52    61    60    2
    53    62    59    1
    54    62    64    1
    55    58    59    1
    56    39    38    1
    57    59    60    1
    58    40    38    1
    59    38    35    1
    60    35    36    1
    61    35    34    1
    62    36    37    2
    63    69    70    1
    64    69    66    1
    65    65    66    1
    66    72    70   ar
    67    72    74   ar
    68    68    67    2
    69    70    71   ar
    70    74    75   ar
    71    66    67    1
    72    71    73   ar
    73    75    76    1
    74    75    73   ar
    75    81    82    1
    76    81    78    1
    77    77    78    1
    78    84    82   ar
    79    84    86   ar
    80    82    83   ar
    81    80    79    2
    82    86    87   ar
    83    83    85   ar
    84    78    79    1
    85    87    85   ar
    86    87    88    1
