@<TRIPOS>MOLECULE
tmp/3m8dA01.pdb
 91 89 0 0 0
SMALL
GASTEIGER

@<TRIPOS>ATOM
      1  N         40.5170  -32.8650  -36.5360 N.3   307  ALA307     -0.1245
      2  CA        41.1460  -33.6680  -35.4740 C.3   307  ALA307      0.1562
      3  C         41.3870  -32.7510  -34.2960 C.2   307  ALA307      0.2260
      4  O         41.5870  -31.5360  -34.4570 O.2   307  ALA307     -0.2867
      5  CB        42.4790  -34.2470  -35.9440 C.3   307  ALA307      0.0290
      6  N         41.8090  -38.0770  -27.8990 N.3   329  ILE329     -0.1231
      7  CA        42.2640  -37.7120  -29.2020 C.3   329  ILE329      0.1692
      8  C         41.1470  -38.2280  -30.1240 C.2   329  ILE329      0.2592
      9  O         40.6400  -39.3450  -29.9280 O.2   329  ILE329     -0.2718
     10  CB        43.6150  -38.3160  -29.5080 C.3   329  ILE329      0.0266
     11  CG1       44.0810  -37.8100  -30.8850 C.3   329  ILE329      0.0019
     12  CG2       43.5580  -39.8270  -29.4390 C.3   329  ILE329      0.0020
     13  CD1       45.3640  -38.3830  -31.3860 C.3   329  ILE329      0.0001
     14  N         40.7000  -37.3810  -31.0490 N.am  330  TYR330     -0.1962
     15  CA        39.6090  -37.7030  -31.9590 C.3   330  TYR330      0.1771
     16  C         39.8570  -37.1720  -33.3590 C.2   330  TYR330      0.2619
     17  O         40.6570  -36.2460  -33.6050 O.2   330  TYR330     -0.2715
     18  CB        38.2990  -37.1340  -31.4330 C.3   330  TYR330      0.0574
     19  CG        38.2660  -35.6290  -31.4810 C.ar  330  TYR330     -0.0198
     20  CD1       37.7440  -34.9640  -32.5790 C.ar  330  TYR330     -0.0009
     21  CD2       38.7950  -34.8610  -30.4380 C.ar  330  TYR330     -0.0009
     22  CE1       37.7590  -33.5820  -32.6460 C.ar  330  TYR330      0.0417
     23  CE2       38.7890  -33.4940  -30.4970 C.ar  330  TYR330      0.0417
     24  CZ        38.2520  -32.8670  -31.6060 C.ar  330  TYR330      0.1957
     25  OH        38.2740  -31.5120  -31.7110 O.3   330  TYR330     -0.2866
     26  N         39.0720  -37.7210  -34.2650 N.am  331  LEU331     -0.1977
     27  CA        39.0860  -37.3970  -35.6970 C.3   331  LEU331      0.1596
     28  C         37.6330  -37.1620  -36.1220 C.2   331  LEU331      0.2287
     29  O         36.7540  -37.7980  -35.5500 O.2   331  LEU331     -0.2864
     30  CB        39.6220  -38.6400  -36.3960 C.3   331  LEU331      0.0297
     31  CG        39.9170  -38.7470  -37.8740 C.3   331  LEU331      0.0022
     32  CD1       40.6240  -37.5060  -38.3340 C.3   331  LEU331      0.0001
     33  CD2       40.8140  -39.9780  -38.1230 C.3   331  LEU331      0.0001
     34  N         35.5510  -40.3920  -34.5680 N.3   346  ALA346     -0.1231
     35  CA        36.1110  -41.4660  -33.7500 C.3   346  ALA346      0.1694
     36  C         37.1080  -40.9350  -32.7540 C.2   346  ALA346      0.2592
     37  O         37.9120  -40.1020  -33.0790 O.2   346  ALA346     -0.2718
     38  CB        36.7570  -42.5140  -34.6000 C.3   346  ALA346      0.0304
     39  N         37.0290  -41.4490  -31.5290 N.am  347  ARG347     -0.1966
     40  CA        37.8120  -40.9210  -30.4090 C.3   347  ARG347      0.1729
     41  C         38.3800  -42.0000  -29.5060 C.2   347  ARG347      0.2616
     42  O         37.8290  -43.1010  -29.3030 O.2   347  ARG347     -0.2715
     43  CB        36.9000  -40.0620  -29.5340 C.3   347  ARG347      0.0348
     44  CG        37.6430  -39.2180  -28.5120 C.3   347  ARG347      0.0492
     45  CD        36.7120  -38.2150  -27.9040 C.3   347  ARG347      0.2205
     46  NE        37.1210  -37.9170  -26.5480 N.pl3 347  ARG347     -0.0865
     47  CZ        37.5600  -36.7550  -26.0890 C.cat 347  ARG347      0.5346
     48  NH1       37.6220  -35.6910  -26.8480 N.pl3 347  ARG347      0.1354
     49  NH2       37.9330  -36.6650  -24.8230 N.pl3 347  ARG347      0.1354
     50  N         39.4960  -41.6610  -28.9260 N.am  348  SER348     -0.1950
     51  CA        40.0680  -42.5460  -27.9610 C.3   348  SER348      0.1924
     52  C         40.3010  -41.7310  -26.7500 C.2   348  SER348      0.2314
     53  O         41.0260  -40.7180  -26.8070 O.2   348  SER348     -0.2863
     54  CB        41.3330  -43.1990  -28.4670 C.3   348  SER348      0.2116
     55  OG        41.6410  -44.3490  -27.6920 O.3   348  SER348     -0.2180
     56  N         41.5200  -46.7340  -20.9290 N.3   356  ARG356     -0.1245
     57  CA        41.2610  -46.4300  -22.3150 C.3   356  ARG356      0.1563
     58  C         39.8720  -46.8910  -22.7140 C.2   356  ARG356      0.2260
     59  O         39.5080  -48.0050  -22.4320 O.2   356  ARG356     -0.2867
     60  CB        42.3030  -47.1250  -23.1740 C.3   356  ARG356      0.0307
     61  CG        42.2250  -46.7620  -24.6360 C.3   356  ARG356      0.0489
     62  CD        42.8270  -47.8450  -25.5720 C.3   356  ARG356      0.2205
     63  NE        42.5130  -47.5210  -26.9810 N.pl3 356  ARG356     -0.0865
     64  CZ        43.1910  -47.9740  -28.0540 C.cat 356  ARG356      0.5346
     65  NH1       44.1900  -48.8270  -27.8910 N.pl3 356  ARG356      0.1354
     66  NH2       42.8390  -47.6020  -29.2970 N.pl3 356  ARG356      0.1354
     67  N         37.3190  -46.4260  -26.3730 N.3   358  GLY358     -0.1210
     68  CA        37.2180  -45.8600  -27.6890 C.3   358  GLY358      0.1956
     69  C         35.7620  -45.7820  -28.0210 C.2   358  GLY358      0.2613
     70  O         34.9890  -46.5600  -27.4460 O.2   358  GLY358     -0.2717
     71  N         35.3860  -44.7820  -28.8420 N.am  359  THR359     -0.1938
     72  CA        34.0370  -44.6610  -29.3950 C.3   359  THR359      0.2028
     73  C         34.0990  -44.1980  -30.8560 C.2   359  THR359      0.2642
     74  O         35.1300  -43.6940  -31.3280 O.2   359  THR359     -0.2714
     75  CB        33.1860  -43.6830  -28.6130 C.3   359  THR359      0.1808
     76  OG1       33.8070  -42.3860  -28.6240 O.3   359  THR359     -0.2208
     77  CG2       32.9650  -44.1500  -27.1450 C.3   359  THR359      0.0379
     78  N         32.9780  -44.3170  -31.5620 N.am  360  TRP360     -0.1973
     79  CA        32.9150  -43.9340  -32.9880 C.3   360  TRP360      0.1640
     80  C         31.4770  -43.7560  -33.4280 C.2   360  TRP360      0.2290
     81  O         30.6070  -44.2250  -32.7600 O.2   360  TRP360     -0.2864
     82  CB        33.6400  -44.9700  -33.8630 C.3   360  TRP360      0.0576
     83  CG        32.9710  -46.2680  -33.9430 C.ar  360  TRP360      0.0006
     84  CD1       32.8430  -47.1880  -32.9540 C.ar  360  TRP360      0.0946
     85  CD2       32.3450  -46.8280  -35.1000 C.ar  360  TRP360      0.0152
     86  NE1       32.1410  -48.2750  -33.4060 N.ar  360  TRP360     -0.2442
     87  CE2       31.8420  -48.0940  -34.7270 C.ar  360  TRP360      0.0810
     88  CE3       32.1310  -46.3680  -36.4130 C.ar  360  TRP360      0.0012
     89  CZ2       31.1280  -48.9120  -35.6140 C.ar  360  TRP360      0.0191
     90  CZ3       31.4260  -47.2000  -37.3080 C.ar  360  TRP360      0.0001
     91  CH2       30.9440  -48.4530  -36.9020 C.ar  360  TRP360      0.0015
@<TRIPOS>BOND
     1    32    31    1
     2    33    31    1
     3    31    30    1
     4    90    91   ar
     5    90    88   ar
     6    91    89   ar
     7     1     2    1
     8    88    85   ar
     9    30    27    1
    10    28    27    1
    11    28    29    2
    12     5     2    1
    13    27    26    1
    14    89    87   ar
    15     2     3    1
    16    85    87   ar
    17    85    83   ar
    18    87    86   ar
    19    38    35    1
    20    34    35    1
    21     4     3    2
    22    26    16   am
    23    83    82    1
    24    83    84   ar
    25    82    79    1
    26    35    36    1
    27    17    16    2
    28    80    79    1
    29    80    81    2
    30    86    84   ar
    31    16    15    1
    32    37    36    2
    33    79    78    1
    34    36    39   am
    35    22    20   ar
    36    22    24   ar
    37    20    19   ar
    38    15    18    1
    39    15    14    1
    40    25    24    1
    41    24    23   ar
    42    78    73   am
    43    39    40    1
    44    19    18    1
    45    19    21   ar
    46    13    11    1
    47    74    73    2
    48    14     8   am
    49    11    10    1
    50    73    72    1
    51    23    21   ar
    52    40    43    1
    53    40    41    1
    54     8     9    2
    55     8     7    1
    56    43    44    1
    57    10    12    1
    58    10     7    1
    59    41    42    2
    60    41    50   am
    61    72    71    1
    62    72    75    1
    63    66    64    1
    64     7     6    1
    65    50    51    1
    66    71    69   am
    67    76    75    1
    68    75    77    1
    69    44    45    1
    70    54    51    1
    71    54    55    1
    72    64    65    1
    73    64    63    2
    74    69    68    1
    75    69    70    2
    76    51    52    1
    77    45    46    1
    78    68    67    1
    79    63    62    1
    80    48    47    1
    81    53    52    2
    82    46    47    2
    83    47    49    1
    84    62    61    1
    85    61    60    1
    86    60    57    1
    87    58    59    2
    88    58    57    1
    89    57    56    1
