@<TRIPOS>MOLECULE
tmp/3m8dA04.pdb
 114 113 0 0 0
SMALL
GASTEIGER

@<TRIPOS>ATOM
      1  N         37.7340  -32.3050  -43.0040 N.3   305  ILE305     -0.1245
      2  CA        38.3010  -33.2110  -42.0670 C.3   305  ILE305      0.1561
      3  C         38.8940  -32.4270  -40.9280 C.2   305  ILE305      0.2260
      4  O         39.5180  -31.4230  -41.1380 O.2   305  ILE305     -0.2867
      5  CB        39.3370  -34.0560  -42.7200 C.3   305  ILE305      0.0252
      6  CG1       39.7130  -35.2070  -41.8120 C.3   305  ILE305      0.0019
      7  CG2       40.6530  -33.3120  -42.9120 C.3   305  ILE305      0.0019
      8  CD1       40.9880  -35.8620  -42.3460 C.3   305  ILE305      0.0001
      9  N         39.0720  -37.7210  -34.2650 N.3   331  LEU331     -0.1231
     10  CA        39.0860  -37.3970  -35.6970 C.3   331  LEU331      0.1693
     11  C         37.6330  -37.1620  -36.1220 C.2   331  LEU331      0.2593
     12  O         36.7540  -37.7980  -35.5500 O.2   331  LEU331     -0.2718
     13  CB        39.6220  -38.6400  -36.3960 C.3   331  LEU331      0.0284
     14  CG        39.9170  -38.7470  -37.8740 C.3   331  LEU331      0.0019
     15  CD1       40.6240  -37.5060  -38.3340 C.3   331  LEU331      0.0001
     16  CD2       40.8140  -39.9780  -38.1230 C.3   331  LEU331      0.0001
     17  N         37.3740  -36.2210  -37.0480 N.am  332  THR332     -0.1939
     18  CA        36.0330  -36.0100  -37.6440 C.3   332  THR332      0.2028
     19  C         36.1830  -35.8340  -39.1660 C.2   332  THR332      0.2643
     20  O         37.2310  -35.3730  -39.6860 O.2   332  THR332     -0.2714
     21  CB        35.3700  -34.7210  -37.2110 C.3   332  THR332      0.1808
     22  OG1       36.2090  -33.6030  -37.5970 O.3   332  THR332     -0.2208
     23  CG2       35.1590  -34.7150  -35.7830 C.3   332  THR332      0.0379
     24  N         35.1290  -36.1890  -39.8680 N.am  333  GLY333     -0.1939
     25  CA        35.0570  -35.9260  -41.3010 C.3   333  GLY333      0.2014
     26  C         33.6360  -35.8810  -41.8200 C.2   333  GLY333      0.2639
     27  O         32.7450  -36.4110  -41.1770 O.2   333  GLY333     -0.2714
     28  N         33.4830  -35.2740  -43.0070 N.am  334  LEU334     -0.1963
     29  CA        32.2160  -34.9570  -43.6600 C.3   334  LEU334      0.1728
     30  C         32.4540  -34.7990  -45.1280 C.2   334  LEU334      0.2616
     31  O         33.3330  -34.0760  -45.5340 O.2   334  LEU334     -0.2715
     32  CB        31.6360  -33.6550  -43.1260 C.3   334  LEU334      0.0311
     33  CG        30.5010  -32.8870  -43.9000 C.3   334  LEU334      0.0022
     34  CD1       29.3470  -33.7440  -44.2040 C.3   334  LEU334      0.0001
     35  CD2       30.0450  -31.7000  -43.1270 C.3   334  LEU334      0.0001
     36  N         31.6040  -35.4120  -45.9400 N.am  335  GLN335     -0.1977
     37  CA        31.7880  -35.3120  -47.3740 C.3   335  GLN335      0.1601
     38  C         30.4220  -35.3430  -48.0590 C.2   335  GLN335      0.2287
     39  O         29.5640  -36.0870  -47.6650 O.2   335  GLN335     -0.2864
     40  CB        32.6380  -36.4790  -47.8780 C.3   335  GLN335      0.0394
     41  CG        34.1030  -36.2360  -47.7980 C.3   335  GLN335      0.0908
     42  CD        34.5440  -35.0360  -48.6790 C.2   335  GLN335      0.2608
     43  OE1       33.9670  -34.7810  -49.7710 O.2   335  GLN335     -0.2717
     44  NE2       35.5530  -34.2980  -48.2010 N.am  335  GLN335     -0.0878
     45  N         28.0550  -37.9970  -46.1860 N.3   342  PHE342     -0.1227
     46  CA        28.6480  -38.9510  -45.2260 C.3   342  PHE342      0.1736
     47  C         29.3540  -38.2230  -44.0980 C.2   342  PHE342      0.2595
     48  O         29.9970  -37.2260  -44.2780 O.2   342  PHE342     -0.2718
     49  CB        29.6240  -39.9160  -45.8880 C.3   342  PHE342      0.0547
     50  CG        29.0310  -40.6840  -47.0590 C.ar  342  PHE342     -0.0202
     51  CD1       29.2250  -40.2580  -48.3620 C.ar  342  PHE342     -0.0042
     52  CD2       28.2940  -41.8290  -46.8430 C.ar  342  PHE342     -0.0042
     53  CE1       28.6970  -40.9870  -49.4240 C.ar  342  PHE342     -0.0003
     54  CE2       27.7590  -42.5350  -47.8750 C.ar  342  PHE342     -0.0003
     55  CZ        27.9520  -42.1200  -49.1800 C.ar  342  PHE342     -0.0000
     56  N         29.2150  -38.7130  -42.8990 N.am  343  GLU343     -0.1965
     57  CA        29.7150  -37.9660  -41.7660 C.3   343  GLU343      0.1733
     58  C         30.1300  -38.9540  -40.6820 C.2   343  GLU343      0.2617
     59  O         29.5540  -40.0420  -40.5670 O.2   343  GLU343     -0.2715
     60  CB        28.5720  -37.1050  -41.3710 C.3   343  GLU343      0.0429
     61  CG        28.6240  -36.1170  -40.2390 C.3   343  GLU343      0.1163
     62  CD        27.2510  -35.3810  -40.2860 C.2   343  GLU343      0.3649
     63  OE1       26.8690  -35.0310  -41.4240 O.co2 343  GLU343     -0.2457
     64  OE2       26.5360  -35.2360  -39.2580 O.co2 343  GLU343     -0.2457
     65  N         31.1690  -38.5900  -39.9380 N.am  344  GLY344     -0.1940
     66  CA        31.8260  -39.5250  -39.0210 C.3   344  GLY344      0.2014
     67  C         32.7480  -38.8700  -38.0250 C.2   344  GLY344      0.2639
     68  O         33.3290  -37.7960  -38.2960 O.2   344  GLY344     -0.2714
     69  N         32.8760  -39.5320  -36.8720 N.am  345  ALA345     -0.1963
     70  CA        33.8350  -39.1830  -35.8720 C.3   345  ALA345      0.1728
     71  C         34.3200  -40.4390  -35.1020 C.2   345  ALA345      0.2616
     72  O         33.5910  -41.4380  -35.0250 O.2   345  ALA345     -0.2715
     73  CB        33.2550  -38.1370  -34.9420 C.3   345  ALA345      0.0334
     74  N         35.5510  -40.3920  -34.5680 N.am  346  ALA346     -0.1977
     75  CA        36.1110  -41.4660  -33.7500 C.3   346  ALA346      0.1597
     76  C         37.1080  -40.9350  -32.7540 C.2   346  ALA346      0.2287
     77  O         37.9120  -40.1020  -33.0790 O.2   346  ALA346     -0.2864
     78  CB        36.7570  -42.5140  -34.6000 C.3   346  ALA346      0.0319
     79  N         32.9780  -44.3170  -31.5620 N.3   360  TRP360     -0.1227
     80  CA        32.9150  -43.9340  -32.9880 C.3   360  TRP360      0.1737
     81  C         31.4770  -43.7560  -33.4280 C.2   360  TRP360      0.2595
     82  O         30.6070  -44.2250  -32.7600 O.2   360  TRP360     -0.2718
     83  CB        33.6400  -44.9700  -33.8630 C.3   360  TRP360      0.0564
     84  CG        32.9710  -46.2680  -33.9430 C.ar  360  TRP360      0.0003
     85  CD1       32.8430  -47.1880  -32.9540 C.ar  360  TRP360      0.0946
     86  CD2       32.3450  -46.8280  -35.1000 C.ar  360  TRP360      0.0152
     87  NE1       32.1410  -48.2750  -33.4060 N.ar  360  TRP360     -0.2442
     88  CE2       31.8420  -48.0940  -34.7270 C.ar  360  TRP360      0.0810
     89  CE3       32.1310  -46.3680  -36.4130 C.ar  360  TRP360      0.0012
     90  CZ2       31.1280  -48.9120  -35.6140 C.ar  360  TRP360      0.0191
     91  CZ3       31.4260  -47.2000  -37.3080 C.ar  360  TRP360      0.0001
     92  CH2       30.9440  -48.4530  -36.9020 C.ar  360  TRP360      0.0015
     93  N         31.2420  -42.9770  -34.4740 N.am  361  GLN361     -0.1965
     94  CA        29.9040  -42.7880  -35.0810 C.3   361  GLN361      0.1733
     95  C         30.0020  -42.4950  -36.5640 C.2   361  GLN361      0.2617
     96  O         31.0800  -42.1310  -37.0910 O.2   361  GLN361     -0.2715
     97  CB        29.0870  -41.6740  -34.4090 C.3   361  GLN361      0.0408
     98  CG        29.6500  -40.2940  -34.5520 C.3   361  GLN361      0.0908
     99  CD        29.1480  -39.3720  -33.4390 C.2   361  GLN361      0.2608
    100  OE1       29.4580  -39.5820  -32.2510 O.2   361  GLN361     -0.2717
    101  NE2       28.3260  -38.4020  -33.7930 N.am  361  GLN361     -0.0878
    102  N         28.8870  -42.7160  -37.2580 N.am  362  THR362     -0.1937
    103  CA        28.8980  -42.5580  -38.6930 C.3   362  THR362      0.2028
    104  C         27.4580  -42.3840  -39.0690 C.2   362  THR362      0.2642
    105  O         26.6050  -43.0060  -38.4790 O.2   362  THR362     -0.2714
    106  CB        29.5140  -43.8270  -39.3820 C.3   362  THR362      0.1808
    107  OG1       29.6830  -43.6120  -40.7890 O.3   362  THR362     -0.2208
    108  CG2       28.6200  -45.0430  -39.2060 C.3   362  THR362      0.0379
    109  N         27.2250  -41.5200  -40.0490 N.am  363  SER363     -0.1949
    110  CA        25.9550  -41.1780  -40.6230 C.3   363  SER363      0.1924
    111  C         26.0310  -41.1080  -42.1290 C.2   363  SER363      0.2314
    112  O         27.0100  -40.5530  -42.7050 O.2   363  SER363     -0.2863
    113  CB        25.5980  -39.7560  -40.1840 C.3   363  SER363      0.2116
    114  OG        24.9100  -39.7510  -38.9400 O.3   363  SER363     -0.2180
@<TRIPOS>BOND
     1    43    42    2
     2    53    55   ar
     3    53    51   ar
     4    55    54   ar
     5    42    44   am
     6    42    41    1
     7    51    50   ar
     8    38    39    2
     9    38    37    1
    10    40    41    1
    11    40    37    1
    12    54    52   ar
    13    37    36    1
    14    50    52   ar
    15    50    49    1
    16    45    46    1
    17    36    30   am
    18    49    46    1
    19    31    30    2
    20    46    47    1
    21    30    29    1
    22    48    47    2
    23    34    33    1
    24    47    56   am
    25    33    35    1
    26    33    32    1
    27    29    32    1
    28    29    28    1
    29    28    26   am
    30     1     2    1
    31     7     5    1
    32    56    57    1
    33     5     2    1
    34     5     6    1
    35   112   111    2
    36     8     6    1
    37   111   110    1
    38     2     3    1
    39    26    25    1
    40    26    27    2
    41    57    60    1
    42    57    58    1
    43    63    62   ar
    44    60    61    1
    45    25    24    1
    46     4     3    2
    47   107   106    1
    48    58    59    2
    49    58    65   am
    50   110   113    1
    51   110   109    1
    52    62    61    1
    53    62    64   ar
    54   113   114    1
    55   109   104   am
    56    65    66    1
    57    24    19   am
    58    20    19    2
    59   106   108    1
    60   106   103    1
    61    19    18    1
    62   104   103    1
    63   104   105    2
    64    66    67    1
    65   103   102    1
    66    15    14    1
    67    68    67    2
    68    16    14    1
    69    67    69   am
    70    14    13    1
    71    18    21    1
    72    18    17    1
    73    22    21    1
    74    91    92   ar
    75    91    89   ar
    76   102    95   am
    77    21    23    1
    78    96    95    2
    79    17    11   am
    80    92    90   ar
    81    69    70    1
    82    95    94    1
    83    89    86   ar
    84    13    10    1
    85    11    10    1
    86    11    12    2
    87    70    71    1
    88    70    73    1
    89    10     9    1
    90    90    88   ar
    91    71    72    2
    92    71    74   am
    93    86    88   ar
    94    86    84   ar
    95    94    93    1
    96    94    97    1
    97    88    87   ar
    98    78    75    1
    99    74    75    1
   100    98    97    1
   101    98    99    1
   102    93    81   am
   103    84    83    1
   104    84    85   ar
   105    83    80    1
   106   101    99   am
   107    75    76    1
   108    99   100    2
   109    81    80    1
   110    81    82    2
   111    87    85   ar
   112    77    76    2
   113    80    79    1
