@<TRIPOS>MOLECULE
tmp/3m8dA05.pdb
 104 103 0 0 0
SMALL
GASTEIGER

@<TRIPOS>ATOM
      1  N         16.7070  -39.2300  -46.7530 N.3   374  PHE374     -0.1241
      2  CA        16.7530  -40.3600  -45.7850 C.3   374  PHE374      0.1605
      3  C         18.1150  -40.3160  -45.0830 C.2   374  PHE374      0.2264
      4  O         19.0970  -40.0520  -45.7170 O.2   374  PHE374     -0.2867
      5  CB        16.5350  -41.7020  -46.5240 C.3   374  PHE374      0.0534
      6  CG        16.7260  -42.9360  -45.6540 C.ar  374  PHE374     -0.0203
      7  CD1       15.7950  -43.2560  -44.6340 C.ar  374  PHE374     -0.0042
      8  CD2       17.8060  -43.8060  -45.8710 C.ar  374  PHE374     -0.0042
      9  CE1       15.9560  -44.4300  -43.8060 C.ar  374  PHE374     -0.0003
     10  CE2       17.9820  -44.9720  -45.0580 C.ar  374  PHE374     -0.0003
     11  CZ        17.0610  -45.2720  -44.0090 C.ar  374  PHE374     -0.0000
     12  N         17.1610  -43.8290  -37.7430 N.3   409  GLY409     -0.1210
     13  CA        16.7530  -43.7620  -39.1410 C.3   409  GLY409      0.1956
     14  C         15.7360  -42.6620  -39.2440 C.2   409  GLY409      0.2612
     15  O         14.8830  -42.5770  -38.3870 O.2   409  GLY409     -0.2717
     16  N         15.8310  -41.8120  -40.2570 N.am  410  ALA410     -0.1965
     17  CA        15.0430  -40.5980  -40.3230 C.3   410  ALA410      0.1728
     18  C         14.6210  -40.3450  -41.7480 C.2   410  ALA410      0.2616
     19  O         15.4090  -40.6110  -42.6800 O.2   410  ALA410     -0.2715
     20  CB        15.8650  -39.4070  -39.8250 C.3   410  ALA410      0.0334
     21  N         13.4410  -39.7670  -41.8970 N.am  411  PHE411     -0.1974
     22  CA        13.0320  -39.1370  -43.1210 C.3   411  PHE411      0.1639
     23  C         12.8440  -37.6660  -42.8440 C.2   411  PHE411      0.2290
     24  O         12.0870  -37.2970  -41.9810 O.2   411  PHE411     -0.2864
     25  CB        11.6720  -39.6890  -43.6040 C.3   411  PHE411      0.0560
     26  CG        11.7600  -40.9740  -44.3970 C.ar  411  PHE411     -0.0200
     27  CD1       11.8300  -42.1990  -43.8030 C.ar  411  PHE411     -0.0042
     28  CD2       11.7150  -40.9110  -45.7770 C.ar  411  PHE411     -0.0042
     29  CE1       11.8830  -43.3650  -44.5500 C.ar  411  PHE411     -0.0003
     30  CE2       11.7760  -42.0630  -46.5380 C.ar  411  PHE411     -0.0003
     31  CZ        11.8000  -43.2910  -45.9190 C.ar  411  PHE411     -0.0000
     32  N         10.8380  -36.9520  -39.3310 N.3   422  ILE422     -0.1231
     33  CA        10.4650  -37.9980  -38.4020 C.3   422  ILE422      0.1692
     34  C         11.6040  -39.0480  -38.2850 C.2   422  ILE422      0.2593
     35  O         12.0930  -39.5030  -39.2950 O.2   422  ILE422     -0.2718
     36  CB         9.1510  -38.6810  -38.8240 C.3   422  ILE422      0.0266
     37  CG1        8.7620  -39.7560  -37.8270 C.3   422  ILE422      0.0019
     38  CG2        9.3010  -39.3570  -40.1030 C.3   422  ILE422      0.0020
     39  CD1        7.3330  -40.1860  -38.0480 C.3   422  ILE422      0.0001
     40  N         11.9360  -39.4640  -37.0570 N.am  423  SER423     -0.1938
     41  CA        13.1050  -40.3720  -36.7380 C.3   423  SER423      0.2055
     42  C         12.6360  -41.5070  -35.8510 C.2   423  SER423      0.2644
     43  O         11.8430  -41.2350  -34.9210 O.2   423  SER423     -0.2714
     44  CB        14.1750  -39.6740  -35.8820 C.3   423  SER423      0.2130
     45  OG        14.5110  -38.3630  -36.3110 O.3   423  SER423     -0.2179
     46  N         13.1860  -42.7210  -36.0650 N.am  424  GLY424     -0.1939
     47  CA        13.1270  -43.8260  -35.0770 C.3   424  GLY424      0.2014
     48  C         14.5530  -44.1030  -34.5850 C.2   424  GLY424      0.2639
     49  O         15.5020  -44.0960  -35.3770 O.2   424  GLY424     -0.2714
     50  N         14.7140  -44.3170  -33.2880 N.am  425  TYR425     -0.1959
     51  CA        15.9930  -44.6560  -32.7160 C.3   425  TYR425      0.1771
     52  C         15.8720  -45.7030  -31.6630 C.2   425  TYR425      0.2619
     53  O         14.8750  -45.7580  -30.9490 O.2   425  TYR425     -0.2715
     54  CB        16.6650  -43.4380  -32.1130 C.3   425  TYR425      0.0574
     55  CG        15.9450  -42.8070  -30.9490 C.ar  425  TYR425     -0.0198
     56  CD1       15.0980  -41.7210  -31.1460 C.ar  425  TYR425     -0.0009
     57  CD2       16.1220  -43.2830  -29.6400 C.ar  425  TYR425     -0.0009
     58  CE1       14.4010  -41.0990  -30.0680 C.ar  425  TYR425      0.0417
     59  CE2       15.4790  -42.6640  -28.5280 C.ar  425  TYR425      0.0417
     60  CZ        14.6060  -41.5830  -28.7590 C.ar  425  TYR425      0.1957
     61  OH        13.9390  -40.9730  -27.7350 O.3   425  TYR425     -0.2866
     62  N         16.9250  -46.5120  -31.5560 N.am  426  ARG426     -0.1977
     63  CA        17.0940  -47.5460  -30.5610 C.3   426  ARG426      0.1597
     64  C         18.4400  -47.3430  -29.8500 C.2   426  ARG426      0.2287
     65  O         19.4680  -47.1670  -30.5230 O.2   426  ARG426     -0.2864
     66  CB        17.1030  -48.9200  -31.2250 C.3   426  ARG426      0.0334
     67  CG        17.5010  -49.9830  -30.2070 C.3   426  ARG426      0.0492
     68  CD        17.3190  -51.3950  -30.6550 C.3   426  ARG426      0.2205
     69  NE        17.5640  -52.3420  -29.5520 N.pl3 426  ARG426     -0.0865
     70  CZ        16.8150  -53.4120  -29.2600 C.cat 426  ARG426      0.5346
     71  NH1       15.7030  -53.6850  -29.9580 N.pl3 426  ARG426      0.1354
     72  NH2       17.1540  -54.2060  -28.2210 N.pl3 426  ARG426      0.1354
     73  N         13.5830  -47.2640  -26.8950 N.3   451  LYS451     -0.1231
     74  CA        13.1020  -47.2360  -28.2580 C.3   451  LYS451      0.1693
     75  C         12.2600  -45.9860  -28.3980 C.2   451  LYS451      0.2593
     76  O         11.3250  -45.7740  -27.6600 O.2   451  LYS451     -0.2718
     77  CB        12.2790  -48.4680  -28.6050 C.3   451  LYS451      0.0285
     78  CG        13.0060  -49.8350  -28.6490 C.3   451  LYS451      0.0035
     79  CD        12.0010  -50.9490  -28.9030 C.3   451  LYS451      0.0206
     80  CE        12.5910  -52.2830  -29.2720 C.3   451  LYS451      0.1093
     81  NZ        11.4570  -53.3520  -29.2500 N.3   451  LYS451     -0.1314
     82  N         12.6080  -45.1460  -29.3510 N.am  452  GLY452     -0.1942
     83  CA        11.9550  -43.8350  -29.4550 C.3   452  GLY452      0.2014
     84  C         11.6130  -43.3410  -30.8590 C.2   452  GLY452      0.2638
     85  O         12.1480  -43.8320  -31.8810 O.2   452  GLY452     -0.2714
     86  N         10.6860  -42.3830  -30.8930 N.am  453  VAL453     -0.1977
     87  CA        10.3440  -41.7340  -32.1270 C.3   453  VAL453      0.1596
     88  C         10.2830  -40.2800  -31.8530 C.2   453  VAL453      0.2287
     89  O          9.6960  -39.9100  -30.8630 O.2   453  VAL453     -0.2864
     90  CB         8.9790  -42.2290  -32.6270 C.3   453  VAL453      0.0276
     91  CG1        8.5950  -41.4960  -33.8870 C.3   453  VAL453      0.0022
     92  CG2        9.0430  -43.7520  -32.8390 C.3   453  VAL453      0.0022
     93  N          8.0300  -39.9590  -28.7660 N.3   472  TYR472     -0.1241
     94  CA         7.7220  -41.1800  -28.0440 C.3   472  TYR472      0.1605
     95  C          9.0380  -41.7740  -27.5280 C.2   472  TYR472      0.2264
     96  O          9.9870  -41.9760  -28.2740 O.2   472  TYR472     -0.2867
     97  CB         6.8860  -42.1340  -28.9250 C.3   472  TYR472      0.0534
     98  CG         6.7240  -43.5860  -28.4850 C.ar  472  TYR472     -0.0201
     99  CD1        5.4990  -44.0750  -28.0670 C.ar  472  TYR472     -0.0009
    100  CD2        7.7740  -44.4830  -28.5620 C.ar  472  TYR472     -0.0009
    101  CE1        5.3350  -45.4070  -27.6960 C.ar  472  TYR472      0.0417
    102  CE2        7.6350  -45.8260  -28.1930 C.ar  472  TYR472      0.0417
    103  CZ         6.4050  -46.2880  -27.7480 C.ar  472  TYR472      0.1957
    104  OH         6.2490  -47.6260  -27.3830 O.3   472  TYR472     -0.2866
@<TRIPOS>BOND
     1     1     2    1
     2    30    31   ar
     3    30    28   ar
     4     5     2    1
     5     5     6    1
     6    31    29   ar
     7     8     6   ar
     8     8    10   ar
     9     2     3    1
    10    28    26   ar
    11     4     3    2
    12     6     7   ar
    13    10    11   ar
    14     7     9   ar
    15    29    27   ar
    16    26    27   ar
    17    26    25    1
    18    11     9   ar
    19    25    22    1
    20    22    23    1
    21    22    21    1
    22    23    24    2
    23    19    18    2
    24    21    18   am
    25    18    17    1
    26    17    16    1
    27    17    20    1
    28    16    14   am
    29    38    36    1
    30    32    33    1
    31    35    34    2
    32    14    13    1
    33    14    15    2
    34    13    12    1
    35    36    33    1
    36    36    37    1
    37    33    34    1
    38    34    40   am
    39    39    37    1
    40    40    41    1
    41    41    44    1
    42    41    42    1
    43    45    44    1
    44    46    42   am
    45    46    47    1
    46    42    43    2
    47    49    48    2
    48    47    48    1
    49    48    50   am
    50    91    90    1
    51    50    51    1
    52    92    90    1
    53    51    54    1
    54    51    52    1
    55    90    87    1
    56    87    88    1
    57    87    86    1
    58    54    55    1
    59    85    84    2
    60    88    89    2
    61    52    62   am
    62    52    53    2
    63    62    63    1
    64    66    63    1
    65    66    67    1
    66    56    55   ar
    67    56    58   ar
    68    55    57   ar
    69    86    84   am
    70    84    83    1
    71    68    67    1
    72    68    69    1
    73    63    64    1
    74    65    64    2
    75    58    60   ar
    76    71    70    1
    77    57    59   ar
    78    69    70    2
    79    83    82    1
    80    82    75   am
    81    80    81    1
    82    80    79    1
    83    70    72    1
    84    97    98    1
    85    97    94    1
    86    79    78    1
    87    93    94    1
    88    60    59   ar
    89    60    61    1
    90    78    77    1
    91    77    74    1
    92   100    98   ar
    93   100   102   ar
    94    98    99   ar
    95    75    74    1
    96    75    76    2
    97    96    95    2
    98    74    73    1
    99   102   103   ar
   100    99   101   ar
   101    94    95    1
   102   103   101   ar
   103   103   104    1
