@<TRIPOS>MOLECULE
tmp/3m8dA06.pdb
 148 135 0 0 0
SMALL
GASTEIGER

@<TRIPOS>ATOM
      1  N         28.2100  -24.8320  -34.5660 N.3     4  CYS4       -0.1221
      2  CA        29.5540  -25.3180  -34.4660 C.3     4  CYS4        0.1808
      3  C         29.6970  -26.3060  -33.3800 C.2     4  CYS4        0.2601
      4  O         30.7980  -26.4560  -32.8750 O.2     4  CYS4       -0.2717
      5  CB        30.5550  -24.2240  -34.2410 C.3     4  CYS4        0.0970
      6  SG        30.0220  -23.1370  -32.8930 S.3     4  CYS4       -0.0800
      7  N         28.6300  -27.0390  -33.0450 N.am    5  THR5       -0.1953
      8  CA        28.6710  -27.9420  -31.8920 C.3     5  THR5        0.1897
      9  C         28.8210  -29.3720  -32.3460 C.2     5  THR5        0.2313
     10  O         29.3020  -30.2210  -31.5980 O.2     5  THR5       -0.2863
     11  CB        27.4200  -27.7150  -31.0470 C.3     5  THR5        0.1794
     12  OG1       27.4890  -26.3700  -30.5380 O.3     5  THR5       -0.2208
     13  CG2       27.2740  -28.7750  -29.9010 C.3     5  THR5        0.0378
     14  N         32.7960  -28.9790  -33.4380 N.3     8  ARG8       -0.1245
     15  CA        33.5280  -27.8460  -32.8440 C.3     8  ARG8        0.1563
     16  C         33.7160  -26.6420  -33.7840 C.2     8  ARG8        0.2260
     17  O         34.1120  -25.5690  -33.3280 O.2     8  ARG8       -0.2867
     18  CB        34.8910  -28.2640  -32.3010 C.3     8  ARG8        0.0307
     19  CG        34.8290  -29.0010  -30.9970 C.3     8  ARG8        0.0489
     20  CD        36.1890  -29.3280  -30.4950 C.3     8  ARG8        0.2205
     21  NE        36.2510  -30.6540  -29.8440 N.pl3   8  ARG8       -0.0865
     22  CZ        36.1850  -30.8670  -28.5400 C.cat   8  ARG8        0.5346
     23  NH1       36.2790  -32.1010  -28.0600 N.pl3   8  ARG8        0.1354
     24  NH2       36.0140  -29.8550  -27.7140 N.pl3   8  ARG8        0.1354
     25  N         32.1600  -24.1060  -37.1680 N.3    10  GLU10      -0.1245
     26  CA        31.0440  -23.5750  -37.9470 C.3    10  GLU10       0.1567
     27  C         30.7050  -24.4460  -39.1930 C.2    10  GLU10       0.2260
     28  O         31.5310  -24.6500  -40.0790 O.2    10  GLU10      -0.2867
     29  CB        31.3240  -22.1260  -38.3710 C.3    10  GLU10       0.0388
     30  CG        31.5080  -21.2170  -37.1670 C.3    10  GLU10       0.1160
     31  CD        32.9830  -21.0230  -36.8650 C.2    10  GLU10       0.3649
     32  OE1       33.8500  -21.6360  -37.5260 O.co2  10  GLU10      -0.2457
     33  OE2       33.2780  -20.2240  -35.9520 O.co2  10  GLU10      -0.2457
     34  N         29.8040  -22.8280  -23.4210 N.3    75  ASP75      -0.1225
     35  CA        30.7660  -22.4350  -24.4230 C.3    75  ASP75       0.1805
     36  C         31.7390  -23.5740  -24.6800 C.2    75  ASP75       0.2598
     37  O         32.9500  -23.3810  -24.5700 O.2    75  ASP75      -0.2718
     38  CB        31.5300  -21.2400  -23.9050 C.3    75  ASP75       0.1424
     39  CG        30.6480  -20.0460  -23.6740 C.2    75  ASP75       0.3668
     40  OD1       29.8280  -19.7090  -24.5790 O.co2  75  ASP75      -0.2456
     41  OD2       30.7970  -19.4220  -22.6050 O.co2  75  ASP75      -0.2456
     42  N         31.2370  -24.7720  -24.9630 N.am   76  GLY76      -0.1957
     43  CA        32.0940  -25.8660  -25.4420 C.3    76  GLY76       0.1869
     44  C         32.8550  -26.6610  -24.4120 C.2    76  GLY76       0.2309
     45  O         33.6230  -27.5470  -24.7660 O.2    76  GLY76      -0.2863
     46  N         22.7790  -24.5770  -28.6230 N.3   102  GLU102     -0.1245
     47  CA        22.8570  -25.5790  -29.6810 C.3   102  GLU102      0.1567
     48  C         22.7670  -26.9470  -29.0860 C.2   102  GLU102      0.2260
     49  O         23.5300  -27.3680  -28.1920 O.2   102  GLU102     -0.2867
     50  CB        24.1280  -25.4570  -30.5250 C.3   102  GLU102      0.0388
     51  CG        24.3770  -24.0520  -31.0130 C.3   102  GLU102      0.1160
     52  CD        25.5000  -23.9350  -32.0580 C.2   102  GLU102      0.3649
     53  OE1       26.3210  -24.8490  -32.1910 O.co2 102  GLU102     -0.2457
     54  OE2       25.5510  -22.9130  -32.7560 O.co2 102  GLU102     -0.2457
     55  N         33.3630  -35.4790  -28.1000 N.3   112  TYR112     -0.1241
     56  CA        33.5110  -34.8370  -26.7860 C.3   112  TYR112      0.1605
     57  C         33.8990  -35.7310  -25.6200 C.2   112  TYR112      0.2264
     58  O         34.2200  -35.2320  -24.5520 O.2   112  TYR112     -0.2867
     59  CB        32.2570  -34.1200  -26.4170 C.3   112  TYR112      0.0534
     60  CG        31.9350  -32.9900  -27.3230 C.ar  112  TYR112     -0.0201
     61  CD1       30.8360  -33.0460  -28.1810 C.ar  112  TYR112     -0.0009
     62  CD2       32.7300  -31.8530  -27.3390 C.ar  112  TYR112     -0.0009
     63  CE1       30.5450  -31.9680  -29.0380 C.ar  112  TYR112      0.0417
     64  CE2       32.4280  -30.7760  -28.1540 C.ar  112  TYR112      0.0417
     65  CZ        31.3450  -30.8360  -28.9960 C.ar  112  TYR112      0.1957
     66  OH        31.0890  -29.7760  -29.7940 O.3   112  TYR112     -0.2866
     67  N         24.7630  -27.4920  -25.7230 N.3   122  ASN122     -0.1240
     68  CA        25.8400  -26.4970  -25.6830 C.3   122  ASN122      0.1653
     69  C         25.2120  -25.1210  -25.4530 C.2   122  ASN122      0.2266
     70  O         24.4950  -24.6190  -26.3230 O.2   122  ASN122     -0.2867
     71  CB        26.6400  -26.5270  -26.9920 C.3   122  ASN122      0.1155
     72  CG        27.9150  -25.7170  -26.9100 C.2   122  ASN122      0.2627
     73  OD1       28.3240  -25.3380  -25.8320 O.2   122  ASN122     -0.2716
     74  ND2       28.5350  -25.4310  -28.0630 N.am  122  ASN122     -0.0877
     75  N         25.7820  -21.2980  -25.0250 N.3   124  ILE124     -0.1245
     76  CA        26.7800  -20.3370  -25.4860 C.3   124  ILE124      0.1561
     77  C         26.4700  -18.9800  -24.8240 C.2   124  ILE124      0.2260
     78  O         25.2860  -18.6150  -24.6920 O.2   124  ILE124     -0.2867
     79  CB        26.7850  -20.2650  -27.0390 C.3   124  ILE124      0.0252
     80  CG1       27.3230  -21.5750  -27.6280 C.3   124  ILE124      0.0019
     81  CG2       27.6370  -19.1170  -27.5620 C.3   124  ILE124      0.0019
     82  CD1       26.9860  -21.7680  -29.0880 C.3   124  ILE124      0.0001
     83  N         28.2580  -15.9330  -25.5270 N.3   126  THR126     -0.1218
     84  CA        28.7820  -14.8060  -26.2910 C.3   126  THR126      0.1862
     85  C         27.7670  -14.3430  -27.3000 C.2   126  THR126      0.2287
     86  O         27.3830  -15.0870  -28.1890 O.2   126  THR126     -0.2866
     87  CB        30.0500  -15.1790  -27.0470 C.3   126  THR126      0.1770
     88  OG1       29.8730  -16.4710  -27.6210 O.3   126  THR126     -0.2211
     89  CG2       31.2260  -15.2320  -26.1210 C.3   126  THR126      0.0375
     90  N         40.5900  -14.2990  -27.1590 N.3   211  PHE211     -0.1241
     91  CA        39.5660  -13.9010  -26.1960 C.3   211  PHE211      0.1605
     92  C         39.8710  -14.2940  -24.7540 C.2   211  PHE211      0.2264
     93  O         40.4970  -15.3100  -24.4990 O.2   211  PHE211     -0.2867
     94  CB        38.2070  -14.4620  -26.6120 C.3   211  PHE211      0.0534
     95  CG        38.0330  -15.9170  -26.3340 C.ar  211  PHE211     -0.0203
     96  CD1       37.6510  -16.3640  -25.0630 C.ar  211  PHE211     -0.0042
     97  CD2       38.2140  -16.8490  -27.3360 C.ar  211  PHE211     -0.0042
     98  CE1       37.4600  -17.7160  -24.8100 C.ar  211  PHE211     -0.0003
     99  CE2       38.0140  -18.2090  -27.0850 C.ar  211  PHE211     -0.0003
    100  CZ        37.6460  -18.6420  -25.8090 C.ar  211  PHE211     -0.0000
    101  N         37.5930  -14.4760  -20.9880 N.3   213  ARG213     -0.1245
    102  CA        36.2030  -14.5440  -20.5820 C.3   213  ARG213      0.1563
    103  C         36.0930  -15.0640  -19.1640 C.2   213  ARG213      0.2260
    104  O         36.6660  -16.0860  -18.8250 O.2   213  ARG213     -0.2867
    105  CB        35.4700  -15.4780  -21.5340 C.3   213  ARG213      0.0307
    106  CG        33.9800  -15.5530  -21.3980 C.3   213  ARG213      0.0489
    107  CD        33.4130  -16.8440  -22.1000 C.3   213  ARG213      0.2205
    108  NE        33.5950  -16.9240  -23.5800 N.pl3 213  ARG213     -0.0865
    109  CZ        34.0120  -18.0030  -24.2730 C.cat 213  ARG213      0.5346
    110  NH1       34.3500  -19.1480  -23.6630 N.pl3 213  ARG213      0.1354
    111  NH2       34.1120  -17.9390  -25.6110 N.pl3 213  ARG213      0.1354
    112  N         42.0820  -18.3820  -31.9360 N.3   249  ARG249     -0.1245
    113  CA        41.4350  -19.0040  -33.0750 C.3   249  ARG249      0.1563
    114  C         42.0980  -18.5380  -34.3510 C.2   249  ARG249      0.2260
    115  O         42.5840  -17.4220  -34.4300 O.2   249  ARG249     -0.2867
    116  CB        39.9280  -18.6830  -33.0860 C.3   249  ARG249      0.0307
    117  CG        39.2060  -19.3070  -31.8830 C.3   249  ARG249      0.0489
    118  CD        37.6740  -19.3240  -32.0350 C.3   249  ARG249      0.2205
    119  NE        37.2040  -17.9420  -32.0290 N.pl3 249  ARG249     -0.0865
    120  CZ        36.5830  -17.3210  -31.0210 C.cat 249  ARG249      0.5346
    121  NH1       36.2590  -17.9630  -29.8900 N.pl3 249  ARG249      0.1354
    122  NH2       36.2440  -16.0350  -31.1710 N.pl3 249  ARG249      0.1354
    123  N         41.7910  -23.9130  -33.2790 N.3   258  GLN258     -0.1245
    124  CA        41.4440  -23.3130  -31.9890 C.3   258  GLN258      0.1566
    125  C         42.2130  -23.9650  -30.8350 C.2   258  GLN258      0.2260
    126  O         42.5060  -25.1410  -30.8470 O.2   258  GLN258     -0.2867
    127  CB        39.9100  -23.2990  -31.7800 C.3   258  GLN258      0.0367
    128  CG        39.2870  -24.6300  -31.3200 C.3   258  GLN258      0.0905
    129  CD        37.7410  -24.6130  -31.2550 C.2   258  GLN258      0.2608
    130  OE1       37.1820  -25.2820  -30.2760 O.2   258  GLN258     -0.2717
    131  NE2       37.0880  -24.0220  -32.0810 N.am  258  GLN258     -0.0878
    132  N         41.7750  -23.5790  -26.7630 N.3   260  ILE260     -0.1245
    133  CA        40.9870  -22.9880  -25.6980 C.3   260  ILE260      0.1561
    134  C         41.3720  -23.5920  -24.3610 C.2   260  ILE260      0.2260
    135  O         41.5380  -24.8130  -24.2410 O.2   260  ILE260     -0.2867
    136  CB        39.4950  -23.2350  -25.8960 C.3   260  ILE260      0.0252
    137  CG1       39.0250  -22.5860  -27.2160 C.3   260  ILE260      0.0019
    138  CG2       38.6950  -22.6900  -24.6890 C.3   260  ILE260      0.0019
    139  CD1       37.6600  -22.9140  -27.5510 C.3   260  ILE260      0.0001
    140  N         41.9660  -27.7290  -24.7640 N.3   293  GLN293     -0.1245
    141  CA        41.5130  -28.2960  -26.0220 C.3   293  GLN293      0.1566
    142  C         42.1750  -27.5690  -27.1760 C.2   293  GLN293      0.2260
    143  O         42.0780  -26.3440  -27.2720 O.2   293  GLN293     -0.2867
    144  CB        40.0200  -28.0550  -26.1740 C.3   293  GLN293      0.0367
    145  CG        39.1450  -28.5510  -25.0530 C.3   293  GLN293      0.0905
    146  CD        37.6640  -28.1960  -25.2450 C.2   293  GLN293      0.2608
    147  OE1       37.3330  -27.1860  -25.9280 O.2   293  GLN293     -0.2717
    148  NE2       36.7500  -28.9990  -24.5920 N.am  293  GLN293     -0.0878
@<TRIPOS>BOND
     1    28    27    2
     2    27    26    1
     3    29    26    1
     4    29    30    1
     5    26    25    1
     6    32    31   ar
     7    30    31    1
     8    31    33   ar
     9     1     2    1
    10     2     5    1
    11     2     3    1
    12   115   114    2
    13   114   113    1
    14     5     6    1
    15    16    17    2
    16    16    15    1
    17    14    15    1
    18     3     7   am
    19     3     4    2
    20   123   124    1
    21   116   113    1
    22   116   117    1
    23   113   112    1
    24     7     8    1
    25    15    18    1
    26    54    52   ar
    27     9     8    1
    28     9    10    2
    29    18    19    1
    30    53    52   ar
    31   131   129   am
    32    52    51    1
    33   118   119    1
    34   118   117    1
    35   119   120    2
    36   124   127    1
    37   124   125    1
    38     8    11    1
    39   127   128    1
    40   128   129    1
    41   129   130    2
    42   122   120    1
    43    11    12    1
    44    11    13    1
    45   120   121    1
    46    51    50    1
    47    19    20    1
    48   126   125    2
    49    50    47    1
    50    20    21    1
    51    21    22    2
    52    66    65    1
    53    47    48    1
    54    47    46    1
    55    82    80    1
    56    48    49    2
    57    63    65   ar
    58    63    61   ar
    59    65    64   ar
    60    22    23    1
    61    22    24    1
    62    86    85    2
    63    61    60   ar
    64    64    62   ar
    65    55    56    1
    66    74    72   am
    67    80    79    1
    68    88    87    1
    69    81    79    1
    70   139   137    1
    71    62    60   ar
    72    97    99   ar
    73    97    95   ar
    74    60    59    1
    75    85    84    1
    76   143   142    2
    77   137   136    1
    78   142   141    1
    79    90    91    1
    80    99   100   ar
    81    87    84    1
    82    87    89    1
    83    79    76    1
    84    71    72    1
    85    71    68    1
    86    72    73    2
    87    56    59    1
    88    56    57    1
    89   132   133    1
    90    94    95    1
    91    94    91    1
    92    95    96   ar
    93    70    69    2
    94    84    83    1
    95    91    92    1
    96   144   141    1
    97   144   145    1
    98   141   140    1
    99   147   146    2
   100   136   133    1
   101   136   138    1
   102   100    98   ar
   103    67    68    1
   104   133   134    1
   105    68    69    1
   106    57    58    2
   107   111   109    1
   108    76    75    1
   109    76    77    1
   110    43    42    1
   111    43    44    1
   112   146   145    1
   113   146   148   am
   114    96    98   ar
   115    42    36   am
   116    77    78    2
   117    45    44    2
   118    92    93    2
   119    36    37    2
   120    36    35    1
   121    40    39   ar
   122    35    38    1
   123    35    34    1
   124   134   135    2
   125   109   110    1
   126   109   108    2
   127    38    39    1
   128    39    41   ar
   129   108   107    1
   130   107   106    1
   131   105   106    1
   132   105   102    1
   133   101   102    1
   134   102   103    1
   135   103   104    2
