@<TRIPOS>MOLECULE
tmp/3m8qA00.pdb
 215 215 0 0 0
SMALL
GASTEIGER

@<TRIPOS>ATOM
      1  N         48.5430   55.4750   21.1960 N.3    92  PRO92      -0.2116
      2  CA        49.3180   55.5930   19.9440 C.3    92  PRO92       0.1372
      3  C         50.8190   55.7180   20.1570 C.2    92  PRO92       0.2244
      4  O         51.2660   56.3620   21.1110 O.2    92  PRO92      -0.2868
      5  CB        48.7680   56.8700   19.2940 C.3    92  PRO92       0.0268
      6  CG        47.4360   57.0580   19.8890 C.3    92  PRO92       0.0207
      7  CD        47.5140   56.5300   21.2880 C.3    92  PRO92       0.0892
      8  N         52.4630   57.7180   13.9070 N.3    97  LEU97      -0.1231
      9  CA        51.8780   59.0090   13.5390 C.3    97  LEU97       0.1693
     10  C         52.4670   59.5460   12.2440 C.2    97  LEU97       0.2592
     11  O         53.6740   59.4530   12.0230 O.2    97  LEU97      -0.2718
     12  CB        52.0510   60.0610   14.6590 C.3    97  LEU97       0.0284
     13  CG        51.5850   59.7210   16.0780 C.3    97  LEU97       0.0019
     14  CD1       52.0520   60.7820   17.0570 C.3    97  LEU97       0.0001
     15  CD2       50.0700   59.5550   16.1570 C.3    97  LEU97       0.0001
     16  N         51.5990   60.1090   11.3920 N.am   98  LYS98      -0.1966
     17  CA        51.9680   60.7270   10.1130 C.3    98  LYS98       0.1728
     18  C         52.1740   62.2260   10.3470 C.2    98  LYS98       0.2616
     19  O         51.5190   62.7980   11.2250 O.2    98  LYS98      -0.2715
     20  CB        50.8790   60.4830    9.0510 C.3    98  LYS98       0.0311
     21  CG        50.6410   59.0010    8.7620 C.3    98  LYS98       0.0038
     22  CD        49.3020   58.7470    8.0840 C.3    98  LYS98       0.0206
     23  CE        49.0040   57.2730    7.9550 C.3    98  LYS98       0.1093
     24  NZ        47.7520   57.0300    7.1890 N.3    98  LYS98      -0.1314
     25  N         53.0850   62.8600    9.5860 N.am   99  LYS99      -0.1963
     26  CA        53.3620   64.2970    9.7250 C.3    99  LYS99       0.1728
     27  C         52.1230   65.1750    9.4810 C.2    99  LYS99       0.2616
     28  O         51.3360   64.9130    8.5600 O.2    99  LYS99      -0.2715
     29  CB        54.5220   64.7440    8.8130 C.3    99  LYS99       0.0311
     30  CG        55.8480   64.9570    9.5430 C.3    99  LYS99       0.0038
     31  CD        56.7640   65.9730    8.8380 C.3    99  LYS99       0.0206
     32  CE        57.6300   65.3800    7.7470 C.3    99  LYS99       0.1093
     33  NZ        58.6440   66.3530    7.2600 N.3    99  LYS99      -0.1314
     34  N         51.9430   66.1890   10.3460 N.am  100  LYS100     -0.1963
     35  CA        50.8670   67.1880   10.2780 C.3   100  LYS100      0.1728
     36  C         51.5260   68.5670   10.4030 C.2   100  LYS100      0.2616
     37  O         52.3510   68.7710   11.3040 O.2   100  LYS100     -0.2715
     38  CB        49.7940   66.9820   11.3830 C.3   100  LYS100      0.0311
     39  CG        49.1640   65.5720   11.4890 C.3   100  LYS100      0.0038
     40  CD        48.5000   65.0290   10.2100 C.3   100  LYS100      0.0206
     41  CE        47.0670   65.4610   10.0250 C.3   100  LYS100      0.1093
     42  NZ        46.4680   64.8520    8.8080 N.3   100  LYS100     -0.1314
     43  N         51.1970   69.4920    9.4770 N.am  101  LYS101     -0.1963
     44  CA        51.7700   70.8470    9.4330 C.3   101  LYS101      0.1728
     45  C         51.5350   71.6630   10.7160 C.2   101  LYS101      0.2617
     46  O         52.4900   72.2000   11.2910 O.2   101  LYS101     -0.2715
     47  CB        51.2610   71.6060    8.1950 C.3   101  LYS101      0.0311
     48  CG        52.0680   72.8540    7.8500 C.3   101  LYS101      0.0038
     49  CD        51.5520   73.5390    6.5810 C.3   101  LYS101      0.0206
     50  CE        52.3290   73.1700    5.3320 C.3   101  LYS101      0.1093
     51  NZ        51.9570   71.8260    4.8100 N.3   101  LYS101     -0.1314
     52  N         50.2710   71.7380   11.1590 N.am  102  SER102     -0.1936
     53  CA        49.8770   72.5160   12.3320 C.3   102  SER102      0.2055
     54  C         49.1700   71.6890   13.4120 C.2   102  SER102      0.2642
     55  O         48.3900   70.7880   13.0890 O.2   102  SER102     -0.2714
     56  CB        49.0400   73.7210   11.9090 C.3   102  SER102      0.2130
     57  OG        48.2850   73.4660   10.7330 O.3   102  SER102     -0.2179
     58  N         49.4610   71.9950   14.6990 N.am  103  VAL103     -0.1977
     59  CA        48.9100   71.2920   15.8700 C.3   103  VAL103      0.1596
     60  C         48.3750   72.2600   16.9460 C.2   103  VAL103      0.2287
     61  O         49.0390   73.2480   17.2720 O.2   103  VAL103     -0.2864
     62  CB        49.9340   70.2540   16.4430 C.3   103  VAL103      0.0276
     63  CG1       49.6210   69.8480   17.8840 C.3   103  VAL103      0.0022
     64  CG2       50.0180   69.0170   15.5580 C.3   103  VAL103      0.0022
     65  N         46.3140   71.9650   20.9520 N.3   105  VAL105     -0.1245
     66  CA        45.9180   71.1240   22.0830 C.3   105  VAL105      0.1561
     67  C         44.7750   71.8240   22.8320 C.2   105  VAL105      0.2260
     68  O         44.9830   72.8860   23.4280 O.2   105  VAL105     -0.2867
     69  CB        47.1090   70.7520   23.0160 C.3   105  VAL105      0.0252
     70  CG1       46.6410   69.9310   24.2190 C.3   105  VAL105      0.0019
     71  CG2       48.2040   70.0080   22.2540 C.3   105  VAL105      0.0019
     72  N         42.8400   65.5890   11.7670 N.3   176  VAL176     -0.1231
     73  CA        43.0780   64.5140   12.7170 C.3   176  VAL176      0.1692
     74  C         42.8180   64.9510   14.1740 C.2   176  VAL176      0.2592
     75  O         43.3040   65.9990   14.6070 O.2   176  VAL176     -0.2718
     76  CB        44.4330   63.7940   12.4400 C.3   176  VAL176      0.0266
     77  CG1       45.5690   64.2710   13.3470 C.3   176  VAL176      0.0020
     78  CG2       44.2720   62.2850   12.4970 C.3   176  VAL176      0.0020
     79  N         41.9670   64.1940   14.8870 N.am  177  ILE177     -0.1966
     80  CA        41.6240   64.4860   16.2820 C.3   177  ILE177      0.1727
     81  C         41.9320   63.2700   17.1510 C.2   177  ILE177      0.2616
     82  O         41.4670   62.1650   16.8600 O.2   177  ILE177     -0.2715
     83  CB        40.1570   65.0030   16.4920 C.3   177  ILE177      0.0290
     84  CG1       39.8130   66.1920   15.5590 C.3   177  ILE177      0.0022
     85  CG2       39.9030   65.3760   17.9700 C.3   177  ILE177      0.0023
     86  CD1       38.2860   66.4380   15.3280 C.3   177  ILE177      0.0001
     87  N         42.7070   63.4800   18.2190 N.am  178  TYR178     -0.1974
     88  CA        43.0170   62.4260   19.1650 C.3   178  TYR178      0.1639
     89  C         42.4030   62.7430   20.5310 C.2   178  TYR178      0.2290
     90  O         42.7750   63.7350   21.1750 O.2   178  TYR178     -0.2864
     91  CB        44.5310   62.1340   19.2460 C.3   178  TYR178      0.0560
     92  CG        44.8940   61.1500   20.3390 C.ar  178  TYR178     -0.0198
     93  CD1       44.4490   59.8300   20.2950 C.ar  178  TYR178     -0.0009
     94  CD2       45.6460   61.5490   21.4410 C.ar  178  TYR178     -0.0009
     95  CE1       44.7340   58.9340   21.3240 C.ar  178  TYR178      0.0417
     96  CE2       45.9520   60.6580   22.4690 C.ar  178  TYR178      0.0417
     97  CZ        45.4910   59.3500   22.4090 C.ar  178  TYR178      0.1957
     98  OH        45.7900   58.4630   23.4170 O.3   178  TYR178     -0.2866
     99  N         43.4700   66.5430   20.8540 N.3   185  TYR185     -0.1227
    100  CA        44.6590   66.8900   20.0830 C.3   185  TYR185      0.1736
    101  C         44.2810   66.9670   18.6250 C.2   185  TYR185      0.2595
    102  O         43.9380   65.9540   18.0210 O.2   185  TYR185     -0.2718
    103  CB        45.7840   65.8720   20.3340 C.3   185  TYR185      0.0548
    104  CG        46.2050   65.7820   21.7860 C.ar  185  TYR185     -0.0200
    105  CD1       45.5290   64.9550   22.6800 C.ar  185  TYR185     -0.0009
    106  CD2       47.2800   66.5210   22.2670 C.ar  185  TYR185     -0.0009
    107  CE1       45.8980   64.8830   24.0200 C.ar  185  TYR185      0.0417
    108  CE2       47.6700   66.4450   23.6040 C.ar  185  TYR185      0.0417
    109  CZ        46.9730   65.6260   24.4760 C.ar  185  TYR185      0.1957
    110  OH        47.3490   65.5390   25.7920 O.3   185  TYR185     -0.2866
    111  N         44.2840   68.1920   18.0850 N.am  186  VAL186     -0.1966
    112  CA        43.8940   68.4830   16.7060 C.3   186  VAL186      0.1727
    113  C         45.1070   68.7770   15.8320 C.2   186  VAL186      0.2616
    114  O         45.9650   69.5900   16.1960 O.2   186  VAL186     -0.2715
    115  CB        42.8080   69.5930   16.5900 C.3   186  VAL186      0.0290
    116  CG1       41.9120   69.3580   15.3720 C.3   186  VAL186      0.0023
    117  CG2       41.9640   69.6940   17.8630 C.3   186  VAL186      0.0023
    118  N         45.1550   68.1030   14.6890 N.am  187  GLY187     -0.1955
    119  CA        46.2150   68.2520   13.7060 C.3   187  GLY187      0.1869
    120  C         45.6700   68.3310   12.2980 C.2   187  GLY187      0.2309
    121  O         44.6610   67.6910   11.9840 O.2   187  GLY187     -0.2863
    122  N         48.6560   77.8160    8.8450 N.3   192  ILE192     -0.1245
    123  CA        48.3520   78.5160   10.1050 C.3   192  ILE192      0.1561
    124  C         47.0090   79.2810   10.2020 C.2   192  ILE192      0.2260
    125  O         46.3290   79.1790   11.2220 O.2   192  ILE192     -0.2867
    126  CB        49.5820   79.3000   10.6490 C.3   192  ILE192      0.0252
    127  CG1       49.4690   79.6100   12.1560 C.3   192  ILE192      0.0019
    128  CG2       49.9120   80.5490    9.8160 C.3   192  ILE192      0.0019
    129  CD1       50.1790   78.6410   13.0450 C.3   192  ILE192      0.0001
    130  N         52.2220   75.8270   22.9960 N.3   221  GLU221     -0.1231
    131  CA        53.0030   76.1510   21.7870 C.3   221  GLU221      0.1684
    132  C         54.3510   75.3480   21.5160 C.2   221  GLU221      0.2434
    133  O         54.2120   74.1330   21.4000 O.2   221  GLU221     -0.2733
    134  CB        53.0520   77.6750   21.4870 C.3   221  GLU221      0.0402
    135  CG        52.6510   78.6100   22.6270 C.3   221  GLU221      0.1161
    136  CD        51.1980   79.0550   22.6890 C.2   221  GLU221      0.3649
    137  OE1       50.3790   78.5890   21.8620 O.co2 221  GLU221     -0.2457
    138  OE2       50.8800   79.8860   23.5700 O.co2 221  GLU221     -0.2457
    139  N         55.5820   75.9580   21.3160 N.am  222  PRO222     -0.2729
    140  CA        56.8290   75.2030   21.0170 C.3   222  PRO222      0.1401
    141  C         56.9350   73.6510   20.8330 C.2   222  PRO222      0.2269
    142  O         56.1840   73.1730   19.9780 O.2   222  PRO222     -0.2865
    143  CB        57.8310   75.8630   21.9650 C.3   222  PRO222      0.0296
    144  CG        57.3200   77.3210   22.0850 C.3   222  PRO222      0.0237
    145  CD        55.9460   77.3830   21.4380 C.3   222  PRO222      0.0939
    146  N         55.8480   70.1140   21.5840 N.3   224  PHE224     -0.1227
    147  CA        54.7940   69.3850   22.3040 C.3   224  PHE224      0.1736
    148  C         55.2280   68.1600   23.1250 C.2   224  PHE224      0.2595
    149  O         55.7090   67.1720   22.5710 O.2   224  PHE224     -0.2718
    150  CB        53.6210   69.0400   21.3640 C.3   224  PHE224      0.0547
    151  CG        52.8990   70.2390   20.7930 C.ar  224  PHE224     -0.0202
    152  CD1       51.7760   70.7610   21.4240 C.ar  224  PHE224     -0.0042
    153  CD2       53.3340   70.8400   19.6160 C.ar  224  PHE224     -0.0042
    154  CE1       51.1080   71.8720   20.8930 C.ar  224  PHE224     -0.0003
    155  CE2       52.6660   71.9510   19.0880 C.ar  224  PHE224     -0.0003
    156  CZ        51.5570   72.4570   19.7280 C.ar  224  PHE224     -0.0000
    157  N         55.0420   68.2320   24.4510 N.am  225  LEU225     -0.1966
    158  CA        55.3570   67.1230   25.3460 C.3   225  LEU225      0.1728
    159  C         54.0770   66.3210   25.5170 C.2   225  LEU225      0.2616
    160  O         53.0900   66.8250   26.0570 O.2   225  LEU225     -0.2715
    161  CB        55.9070   67.5980   26.7070 C.3   225  LEU225      0.0311
    162  CG        57.1660   68.4710   26.6960 C.3   225  LEU225      0.0022
    163  CD1       57.5210   68.9130   28.0970 C.3   225  LEU225      0.0001
    164  CD2       58.3460   67.7520   26.0800 C.3   225  LEU225      0.0001
    165  N         54.0750   65.0920   24.9940 N.am  226  TRP226     -0.1974
    166  CA        52.9020   64.2360   25.0290 C.3   226  TRP226      0.1640
    167  C         53.2450   62.8210   25.4440 C.2   226  TRP226      0.2290
    168  O         54.1510   62.2130   24.8680 O.2   226  TRP226     -0.2864
    169  CB        52.1940   64.2510   23.6540 C.3   226  TRP226      0.0576
    170  CG        51.0560   63.2800   23.5290 C.ar  226  TRP226      0.0006
    171  CD1       49.7660   63.4730   23.9260 C.ar  226  TRP226      0.0946
    172  CD2       51.1170   61.9530   22.9840 C.ar  226  TRP226      0.0152
    173  NE1       49.0170   62.3470   23.6670 N.ar  226  TRP226     -0.2442
    174  CE2       49.8230   61.3950   23.0950 C.ar  226  TRP226      0.0810
    175  CE3       52.1480   61.1670   22.4390 C.ar  226  TRP226      0.0012
    176  CZ2       49.5300   60.0920   22.6740 C.ar  226  TRP226      0.0191
    177  CZ3       51.8560   59.8770   22.0180 C.ar  226  TRP226      0.0001
    178  CH2       50.5610   59.3520   22.1380 C.ar  226  TRP226      0.0015
    179  N         57.3200   65.6350   20.9750 N.3   231  LEU231     -0.1231
    180  CA        56.8150   65.6590   19.6100 C.3   231  LEU231      0.1693
    181  C         57.2120   66.9650   18.9420 C.2   231  LEU231      0.2592
    182  O         56.6310   68.0160   19.2400 O.2   231  LEU231     -0.2718
    183  CB        55.2860   65.4380   19.5690 C.3   231  LEU231      0.0284
    184  CG        54.7800   63.9820   19.5280 C.3   231  LEU231      0.0019
    185  CD1       54.9640   63.2730   20.8630 C.3   231  LEU231      0.0001
    186  CD2       53.3080   63.9350   19.1770 C.3   231  LEU231      0.0001
    187  N         58.2580   66.9000   18.0930 N.am  232  HIS232     -0.1962
    188  CA        58.7620   68.0270   17.3050 C.3   232  HIS232      0.1772
    189  C         58.0560   67.9710   15.9320 C.2   232  HIS232      0.2462
    190  O         57.4320   66.9460   15.6500 O.2   232  HIS232     -0.2730
    191  CB        60.2900   67.9460   17.1660 C.3   232  HIS232      0.0785
    192  CG        61.0120   68.0480   18.4710 C.ar  232  HIS232      0.0821
    193  ND1       61.2930   66.9260   19.2290 N.ar  232  HIS232     -0.2267
    194  CD2       61.4910   69.1400   19.1110 C.ar  232  HIS232      0.1154
    195  CE1       61.9370   67.3680   20.2960 C.ar  232  HIS232      0.1986
    196  NE2       62.0700   68.6940   20.2740 N.ar  232  HIS232     -0.2212
    197  N         58.0860   69.0270   15.0760 N.am  233  PRO233     -0.2727
    198  CA        57.3330   68.9600   13.8040 C.3   233  PRO233      0.1402
    199  C         57.6670   67.8140   12.8470 C.2   233  PRO233      0.2269
    200  O         56.7410   67.2150   12.2990 O.2   233  PRO233     -0.2865
    201  CB        57.5710   70.3350   13.1680 C.3   233  PRO233      0.0296
    202  CG        57.9680   71.2220   14.2950 C.3   233  PRO233      0.0237
    203  CD        58.7310   70.3500   15.2390 C.3   233  PRO233      0.0939
    204  N         58.8120   60.1760   11.6260 N.3   315  TYR315     -0.1241
    205  CA        57.3810   59.8610   11.5850 C.3   315  TYR315      0.1605
    206  C         57.0640   58.9430   10.3920 C.2   315  TYR315      0.2264
    207  O         57.8950   58.7910    9.4890 O.2   315  TYR315     -0.2867
    208  CB        56.4940   61.1300   11.6080 C.3   315  TYR315      0.0534
    209  CG        56.5940   61.9420   12.8850 C.ar  315  TYR315     -0.0201
    210  CD1       57.1750   63.2070   12.8850 C.ar  315  TYR315     -0.0009
    211  CD2       56.0970   61.4520   14.0900 C.ar  315  TYR315     -0.0009
    212  CE1       57.2830   63.9560   14.0580 C.ar  315  TYR315      0.0417
    213  CE2       56.2100   62.1860   15.2720 C.ar  315  TYR315      0.0417
    214  CZ        56.8010   63.4410   15.2500 C.ar  315  TYR315      0.1957
    215  OH        56.9170   64.1800   16.4050 O.3   315  TYR315     -0.2866
@<TRIPOS>BOND
     1    51    50    1
     2    50    49    1
     3    49    48    1
     4    24    23    1
     5    33    32    1
     6    32    31    1
     7    48    47    1
     8    23    22    1
     9    22    21    1
    10    47    44    1
    11    28    27    2
    12    21    20    1
    13    42    41    1
    14    29    30    1
    15    29    26    1
    16    31    30    1
    17   122   123    1
    18    20    17    1
    19    44    43    1
    20    44    45    1
    21    43    36   am
    22    27    26    1
    23    27    34   am
    24   207   206    2
    25    25    26    1
    26    25    18   am
    27   128   126    1
    28    41    40    1
    29   123   124    1
    30   123   126    1
    31    17    18    1
    32    17    16    1
    33   124   125    2
    34    40    39    1
    35    35    34    1
    36    35    36    1
    37    35    38    1
    38    18    19    2
    39   206   205    1
    40    36    37    2
    41   126   127    1
    42    45    52   am
    43    45    46    2
    44    57    56    1
    45    52    53    1
    46    38    39    1
    47    16    10   am
    48   205   208    1
    49   205   204    1
    50   208   209    1
    51    72    73    1
    52    56    53    1
    53   121   120    2
    54    11    10    2
    55   127   129    1
    56    10     9    1
    57   120   119    1
    58   200   199    2
    59    53    54    1
    60    76    78    1
    61    76    73    1
    62    76    77    1
    63    73    74    1
    64   199   198    1
    65   210   209   ar
    66   210   212   ar
    67   209   211   ar
    68    55    54    2
    69   201   198    1
    70   201   202    1
    71    54    58   am
    72     9     8    1
    73     9    12    1
    74   119   118    1
    75   198   197    1
    76   212   214   ar
    77   211   213   ar
    78    74    75    2
    79    74    79   am
    80   202   203    1
    81    12    13    1
    82   118   113   am
    83    58    59    1
    84    79    80    1
    85   197   203    1
    86   197   189   am
    87   214   213   ar
    88   214   215    1
    89    86    84    1
    90   116   115    1
    91    64    62    1
    92    84    83    1
    93   190   189    2
    94   113   114    2
    95   113   112    1
    96    59    62    1
    97    59    60    1
    98   189   188    1
    99    13    15    1
   100    13    14    1
   101    80    83    1
   102    80    81    1
   103    62    63    1
   104    83    85    1
   105   115   112    1
   106   115   117    1
   107   112   111    1
   108    82    81    2
   109    60    61    2
   110    81    87   am
   111   191   188    1
   112   191   192    1
   113   188   187    1
   114   102   101    2
   115   111   101   am
   116   187   181   am
   117    87    88    1
   118   192   194   ar
   119   192   193   ar
   120   101   100    1
   121   181   182    2
   122   181   180    1
   123   155   153   ar
   124   155   156   ar
   125   194   196   ar
   126    88    91    1
   127    88    89    1
   128   186   184    1
   129   193   195   ar
   130    91    92    1
   131     5     6    1
   132     5     2    1
   133   184   183    1
   134   184   185    1
   135   183   180    1
   136   180   179    1
   137   153   151   ar
   138   156   154   ar
   139     6     7    1
   140     2     3    1
   141     2     1    1
   142   142   141    2
   143   100   103    1
   144   100    99    1
   145     3     4    2
   146   196   195   ar
   147    93    92   ar
   148    93    95   ar
   149   103   104    1
   150    92    94   ar
   151    89    90    2
   152   151   150    1
   153   151   152   ar
   154   141   140    1
   155   154   152   ar
   156    65    66    1
   157   140   139    1
   158   140   143    1
   159     1     7    1
   160   139   145    1
   161   139   132   am
   162    95    97   ar
   163   150   147    1
   164   133   132    2
   165   145   144    1
   166    94    96   ar
   167   134   131    1
   168   134   135    1
   169   132   131    1
   170   146   147    1
   171   104   106   ar
   172   104   105   ar
   173   131   130    1
   174   137   136   ar
   175   143   144    1
   176   177   178   ar
   177   177   175   ar
   178    66    67    1
   179    66    69    1
   180   178   176   ar
   181    71    69    1
   182   106   108   ar
   183   147   148    1
   184    97    96   ar
   185    97    98    1
   186   175   172   ar
   187   149   148    2
   188   135   136    1
   189   176   174   ar
   190   105   107   ar
   191   136   138   ar
   192    67    68    2
   193   172   174   ar
   194   172   170   ar
   195    69    70    1
   196   174   173   ar
   197   148   157   am
   198   170   169    1
   199   170   171   ar
   200   108   109   ar
   201   169   166    1
   202   173   171   ar
   203   107   109   ar
   204   157   158    1
   205   109   110    1
   206   168   167    2
   207   165   166    1
   208   165   159   am
   209   166   167    1
   210   158   159    1
   211   158   161    1
   212   159   160    2
   213   164   162    1
   214   162   161    1
   215   162   163    1
