@<TRIPOS>MOLECULE
tmp/3m8rA01.pdb
 116 115 0 0 0
SMALL
GASTEIGER

@<TRIPOS>ATOM
      1  N         49.9690  -32.7890  -10.2300 N.3    20  ARG20      -0.1231
      2  CA        48.9810  -32.0420   -9.4590 C.3    20  ARG20       0.1694
      3  C         47.6170  -32.1410  -10.1380 C.2    20  ARG20       0.2592
      4  O         47.5270  -32.4940  -11.3140 O.2    20  ARG20      -0.2718
      5  CB        49.4040  -30.5810   -9.3330 C.3    20  ARG20       0.0321
      6  CG        49.6480  -29.9110  -10.6730 C.3    20  ARG20       0.0489
      7  CD        50.2850  -28.5390  -10.5020 C.3    20  ARG20       0.2205
      8  NE        49.3850  -27.6170   -9.8230 N.pl3  20  ARG20      -0.0865
      9  CZ        49.6500  -26.3330   -9.6110 C.cat  20  ARG20       0.5346
     10  NH1       50.7980  -25.8120  -10.0270 N.pl3  20  ARG20       0.1354
     11  NH2       48.7610  -25.5710   -8.9840 N.pl3  20  ARG20       0.1354
     12  N         46.5610  -31.8070   -9.4030 N.am   21  LYS21      -0.1966
     13  CA        45.2000  -32.0840   -9.8530 C.3    21  LYS21       0.1728
     14  C         44.7480  -31.2320  -11.0450 C.2    21  LYS21       0.2616
     15  O         43.9170  -31.6730  -11.8360 O.2    21  LYS21      -0.2715
     16  CB        44.2140  -31.9240   -8.6890 C.3    21  LYS21       0.0311
     17  CG        44.1720  -30.5310   -8.0750 C.3    21  LYS21       0.0038
     18  CD        43.2100  -30.4990   -6.8920 C.3    21  LYS21       0.0206
     19  CE        43.1450  -29.1200   -6.2560 C.3    21  LYS21       0.1093
     20  NZ        42.2460  -29.1110   -5.0660 N.3    21  LYS21      -0.1314
     21  N         45.2930  -30.0270  -11.1820 N.am   22  GLU22      -0.1977
     22  CA        44.8590  -29.1170  -12.2430 C.3    22  GLU22       0.1602
     23  C         45.5490  -29.4630  -13.5590 C.2    22  GLU22       0.2287
     24  O         46.7620  -29.2970  -13.6820 O.2    22  GLU22      -0.2864
     25  CB        45.1740  -27.6680  -11.8730 C.3    22  GLU22       0.0415
     26  CG        44.6380  -27.2420  -10.5200 C.3    22  GLU22       0.1163
     27  CD        45.7170  -27.2050   -9.4560 C.2    22  GLU22       0.3649
     28  OE1       46.5390  -28.1450   -9.4040 O.co2  22  GLU22      -0.2457
     29  OE2       45.7450  -26.2330   -8.6720 O.co2  22  GLU22      -0.2457
     30  N         48.0020  -27.1070  -15.2940 N.3    25  TRP25      -0.1241
     31  CA        49.2600  -26.8360  -14.5930 C.3    25  TRP25       0.1605
     32  C         50.0930  -28.0830  -14.3320 C.2    25  TRP25       0.2264
     33  O         51.2250  -27.9890  -13.8580 O.2    25  TRP25      -0.2867
     34  CB        48.9860  -26.1490  -13.2560 C.3    25  TRP25       0.0550
     35  CG        48.4380  -24.7890  -13.4140 C.ar   25  TRP25       0.0003
     36  CD1       47.1300  -24.4160  -13.3250 C.ar   25  TRP25       0.0946
     37  CD2       49.1800  -23.5990  -13.7080 C.ar   25  TRP25       0.0152
     38  NE1       47.0130  -23.0650  -13.5400 N.ar   25  TRP25      -0.2442
     39  CE2       48.2540  -22.5420  -13.7770 C.ar   25  TRP25       0.0810
     40  CE3       50.5350  -23.3270  -13.9140 C.ar   25  TRP25       0.0012
     41  CZ2       48.6410  -21.2340  -14.0440 C.ar   25  TRP25       0.0191
     42  CZ3       50.9150  -22.0290  -14.1810 C.ar   25  TRP25       0.0001
     43  CH2       49.9720  -20.9980  -14.2430 C.ar   25  TRP25       0.0015
     44  N         44.6930  -13.1980   -5.5340 N.3   255  PRO255     -0.2116
     45  CA        45.0290  -14.5210   -6.0770 C.3   255  PRO255      0.1372
     46  C         44.9580  -14.6010   -7.6040 C.2   255  PRO255      0.2244
     47  O         45.8300  -15.2020   -8.2210 O.2   255  PRO255     -0.2868
     48  CB        43.9620  -15.4420   -5.4680 C.3   255  PRO255      0.0268
     49  CG        43.2890  -14.6520   -4.3990 C.3   255  PRO255      0.0207
     50  CD        43.4390  -13.2180   -4.7660 C.3   255  PRO255      0.0892
     51  N         47.4660  -16.3240  -11.3090 N.3   259  LEU259     -0.1245
     52  CA        47.0550  -17.5920  -11.9120 C.3   259  LEU259      0.1561
     53  C         47.0270  -17.5540  -13.4380 C.2   259  LEU259      0.2260
     54  O         46.4680  -18.4470  -14.0700 O.2   259  LEU259     -0.2867
     55  CB        45.6720  -18.0020  -11.3980 C.3   259  LEU259      0.0270
     56  CG        45.5480  -18.2760   -9.8990 C.3   259  LEU259      0.0019
     57  CD1       44.1230  -18.6960   -9.5550 C.3   259  LEU259      0.0001
     58  CD2       46.5440  -19.3440   -9.4690 C.3   259  LEU259      0.0001
     59  N         46.2180  -16.6250  -20.3020 N.3   266  ARG266     -0.1231
     60  CA        44.8350  -16.5260  -19.8460 C.3   266  ARG266      0.1694
     61  C         44.6020  -17.2930  -18.5410 C.2   266  ARG266      0.2592
     62  O         45.4690  -18.0220  -18.0700 O.2   266  ARG266     -0.2718
     63  CB        43.8770  -17.0100  -20.9440 C.3   266  ARG266      0.0321
     64  CG        43.7210  -16.0100  -22.0940 C.3   266  ARG266      0.0489
     65  CD        43.2030  -16.6570  -23.3740 C.3   266  ARG266      0.2205
     66  NE        41.7650  -16.9170  -23.3590 N.pl3 266  ARG266     -0.0865
     67  CZ        40.8530  -16.2070  -24.0250 C.cat 266  ARG266      0.5346
     68  NH1       41.2000  -15.1690  -24.7770 N.pl3 266  ARG266      0.1354
     69  NH2       39.5770  -16.5410  -23.9450 N.pl3 266  ARG266      0.1354
     70  N         43.4170  -17.1100  -17.9700 N.am  267  LEU267     -0.1966
     71  CA        43.0530  -17.7020  -16.6910 C.3   267  LEU267      0.1728
     72  C         42.2050  -18.9520  -16.9320 C.2   267  LEU267      0.2616
     73  O         41.2410  -18.9140  -17.6860 O.2   267  LEU267     -0.2715
     74  CB        42.2690  -16.6750  -15.8720 C.3   267  LEU267      0.0311
     75  CG        41.8630  -17.0480  -14.4500 C.3   267  LEU267      0.0022
     76  CD1       43.0910  -17.2570  -13.5830 C.3   267  LEU267      0.0001
     77  CD2       40.9660  -15.9620  -13.8750 C.3   267  LEU267      0.0001
     78  N         42.5630  -20.0590  -16.2880 N.am  268  HIS268     -0.1973
     79  CA        41.9320  -21.3470  -16.5750 C.3   268  HIS268      0.1656
     80  C         41.3010  -21.9760  -15.3450 C.2   268  HIS268      0.2291
     81  O         41.9840  -22.2710  -14.3670 O.2   268  HIS268     -0.2864
     82  CB        42.9560  -22.3200  -17.1620 C.3   268  HIS268      0.0771
     83  CG        43.5530  -21.8530  -18.4480 C.ar  268  HIS268      0.0820
     84  ND1       43.1090  -22.2940  -19.6780 N.ar  268  HIS268     -0.2267
     85  CD2       44.5430  -20.9680  -18.7020 C.ar  268  HIS268      0.1154
     86  CE1       43.8100  -21.7090  -20.6290 C.ar  268  HIS268      0.1986
     87  NE2       44.6880  -20.9000  -20.0650 N.ar  268  HIS268     -0.2212
     88  N         36.3230  -24.8590  -10.0330 N.3   284  SER284     -0.1202
     89  CA        37.3770  -24.7240   -9.0320 C.3   284  SER284      0.2020
     90  C         38.7620  -24.4560   -9.6260 C.2   284  SER284      0.2619
     91  O         39.0230  -24.7450  -10.7900 O.2   284  SER284     -0.2717
     92  CB        37.4340  -25.9880   -8.1690 C.3   284  SER284      0.2103
     93  OG        37.8890  -27.1050   -8.9230 O.3   284  SER284     -0.2182
     94  N         39.6350  -23.8770   -8.8070 N.am  285  ASP285     -0.1960
     95  CA        41.0610  -23.7890   -9.1050 C.3   285  ASP285      0.1825
     96  C         41.3770  -22.8740  -10.2790 C.2   285  ASP285      0.2464
     97  O         42.1400  -23.2550  -11.1630 O.2   285  ASP285     -0.2730
     98  CB        41.6250  -25.1850   -9.3900 C.3   285  ASP285      0.1450
     99  CG        41.3450  -26.1670   -8.2680 C.2   285  ASP285      0.3671
    100  OD1       41.7540  -25.8870   -7.1210 O.co2 285  ASP285     -0.2456
    101  OD2       40.7250  -27.2200   -8.5310 O.co2 285  ASP285     -0.2456
    102  N         40.8260  -21.6500  -10.2820 N.am  286  PRO286     -0.2715
    103  CA        39.9440  -21.0340   -9.2880 C.3   286  PRO286      0.1536
    104  C         38.4730  -21.2170   -9.6350 C.2   286  PRO286      0.2598
    105  O         38.1530  -21.5140  -10.7840 O.2   286  PRO286     -0.2715
    106  CB        40.3030  -19.5540   -9.4060 C.3   286  PRO286      0.0310
    107  CG        40.6040  -19.3800  -10.8390 C.3   286  PRO286      0.0237
    108  CD        41.2210  -20.6770  -11.3150 C.3   286  PRO286      0.0939
    109  N         37.5910  -21.0400   -8.6520 N.am  287  ASN287     -0.1973
    110  CA        36.1570  -21.0020   -8.9020 C.3   287  ASN287      0.1688
    111  C         35.7970  -19.7310   -9.6730 C.2   287  ASN287      0.2292
    112  O         35.9690  -18.6290   -9.1670 O.2   287  ASN287     -0.2864
    113  CB        35.4040  -21.0420   -7.5700 C.3   287  ASN287      0.1181
    114  CG        33.9080  -21.2010   -7.7440 C.2   287  ASN287      0.2629
    115  OD1       33.3760  -21.0960   -8.8490 O.2   287  ASN287     -0.2716
    116  ND2       33.2200  -21.4630   -6.6470 N.am  287  ASN287     -0.0877
@<TRIPOS>BOND
     1    68    67    1
     2    67    69    1
     3    67    66    2
     4    65    66    1
     5    65    64    1
     6    64    63    1
     7    63    60    1
     8    86    87   ar
     9    86    84   ar
    10    59    60    1
    11    87    85   ar
    12    60    61    1
    13    84    83   ar
    14    85    83   ar
    15    61    62    2
    16    61    70   am
    17    83    82    1
    18    70    71    1
    19    73    72    2
    20    82    79    1
    21    72    71    1
    22    72    78   am
    23    71    74    1
    24    79    78    1
    25    79    80    1
    26    74    75    1
    27    80    81    2
    28    30    31    1
    29    31    32    1
    30    31    34    1
    31    75    77    1
    32    75    76    1
    33    32    33    2
    34    43    42   ar
    35    43    41   ar
    36    42    40   ar
    37    54    53    2
    38    41    39   ar
    39    40    37   ar
    40    39    37   ar
    41    39    38   ar
    42    37    35   ar
    43    24    23    2
    44    23    22    1
    45    38    36   ar
    46    53    52    1
    47    35    36   ar
    48    35    34    1
    49    22    25    1
    50    22    21    1
    51    52    55    1
    52    52    51    1
    53    25    26    1
    54    15    14    2
    55    55    56    1
    56   108   107    1
    57   108   102    1
    58     4     3    2
    59    21    14   am
    60    97    96    2
    61    14    13    1
    62   107   106    1
    63    91    90    2
    64   105   104    2
    65     6     7    1
    66     6     5    1
    67    26    27    1
    68     7     8    1
    69   102    96   am
    70   102   103    1
    71    96    95    1
    72     1     2    1
    73     3     2    1
    74     3    12   am
    75    88    89    1
    76    10     9    1
    77    56    57    1
    78    56    58    1
    79    13    12    1
    80    13    16    1
    81     8     9    2
    82   111   112    2
    83   111   110    1
    84   104   103    1
    85   104   109   am
    86    90    89    1
    87    90    94   am
    88     9    11    1
    89     2     5    1
    90    27    28   ar
    91    27    29   ar
    92   106   103    1
    93    98    95    1
    94    98    99    1
    95    95    94    1
    96    89    92    1
    97    93    92    1
    98   110   109    1
    99   110   113    1
   100   115   114    2
   101    16    17    1
   102   101    99   ar
   103    99   100   ar
   104    47    46    2
   105    17    18    1
   106   114   113    1
   107   114   116   am
   108    46    45    1
   109    18    19    1
   110    19    20    1
   111    45    44    1
   112    45    48    1
   113    44    50    1
   114    48    49    1
   115    50    49    1
