@<TRIPOS>MOLECULE
tmp/3m8rA00.pdb
 175 169 0 0 0
SMALL
GASTEIGER

@<TRIPOS>ATOM
      1  N         24.1940  -30.1980  -11.1390 N.3   280  ARG280     -0.1245
      2  CA        24.9020  -28.9750  -11.4990 C.3   280  ARG280      0.1563
      3  C         26.3810  -29.2700  -11.7100 C.2   280  ARG280      0.2260
      4  O         26.9150  -30.2310  -11.1520 O.2   280  ARG280     -0.2867
      5  CB        24.7840  -27.9360  -10.3870 C.3   280  ARG280      0.0307
      6  CG        23.5170  -27.1160  -10.4080 C.3   280  ARG280      0.0489
      7  CD        23.6720  -25.9190   -9.4920 C.3   280  ARG280      0.2205
      8  NE        22.4850  -25.0760   -9.4590 N.pl3 280  ARG280     -0.0865
      9  CZ        22.4120  -23.9280   -8.8000 C.cat 280  ARG280      0.5346
     10  NH1       23.4650  -23.4940   -8.1250 N.pl3 280  ARG280      0.1354
     11  NH2       21.2940  -23.2130   -8.8230 N.pl3 280  ARG280      0.1354
     12  N         21.8980  -15.5560  -20.1930 N.3   317  ASP317     -0.1225
     13  CA        21.4190  -15.9950  -18.8880 C.3   317  ASP317      0.1805
     14  C         19.9250  -16.3030  -18.9600 C.2   317  ASP317      0.2598
     15  O         19.1320  -15.4480  -19.3440 O.2   317  ASP317     -0.2718
     16  CB        21.6820  -14.8960  -17.8560 C.3   317  ASP317      0.1424
     17  CG        21.3670  -15.3330  -16.4320 C.2   317  ASP317      0.3668
     18  OD1       20.2760  -15.8890  -16.1970 O.co2 317  ASP317     -0.2456
     19  OD2       22.2110  -15.1080  -15.5410 O.co2 317  ASP317     -0.2456
     20  N         19.5410  -17.5220  -18.5940 N.am  318  TYR318     -0.1962
     21  CA        18.1320  -17.9040  -18.6020 C.3   318  TYR318      0.1771
     22  C         17.3460  -17.0450  -17.6260 C.2   318  TYR318      0.2620
     23  O         17.7880  -16.7960  -16.5060 O.2   318  TYR318     -0.2715
     24  CB        17.9540  -19.3690  -18.2100 C.3   318  TYR318      0.0574
     25  CG        18.2240  -20.3750  -19.3070 C.ar  318  TYR318     -0.0198
     26  CD1       17.3220  -20.5620  -20.3480 C.ar  318  TYR318     -0.0009
     27  CD2       19.3630  -21.1690  -19.2780 C.ar  318  TYR318     -0.0009
     28  CE1       17.5620  -21.4950  -21.3420 C.ar  318  TYR318      0.0417
     29  CE2       19.6070  -22.1050  -20.2580 C.ar  318  TYR318      0.0417
     30  CZ        18.7070  -22.2640  -21.2880 C.ar  318  TYR318      0.1957
     31  OH        18.9610  -23.2010  -22.2580 O.3   318  TYR318     -0.2866
     32  N         16.1680  -16.6110  -18.0540 N.am  319  SER319     -0.1936
     33  CA        15.2870  -15.8050  -17.2200 C.3   319  SER319      0.2055
     34  C         14.5320  -16.6750  -16.2140 C.2   319  SER319      0.2643
     35  O         13.9430  -17.6900  -16.5820 O.2   319  SER319     -0.2714
     36  CB        14.2980  -15.0400  -18.1030 C.3   319  SER319      0.2130
     37  OG        13.3500  -14.3330  -17.3260 O.3   319  SER319     -0.2179
     38  N         14.5790  -16.2750  -14.9430 N.am  320  GLN320     -0.1963
     39  CA        13.7900  -16.8990  -13.8780 C.3   320  GLN320      0.1733
     40  C         13.6710  -18.4110  -14.0410 C.2   320  GLN320      0.2616
     41  O         12.5800  -18.9670  -13.9090 O.2   320  GLN320     -0.2715
     42  CB        12.3840  -16.2960  -13.8610 C.3   320  GLN320      0.0408
     43  CG        12.3390  -14.8070  -14.1360 C.3   320  GLN320      0.0908
     44  CD        10.9190  -14.2900  -14.2660 C.2   320  GLN320      0.2608
     45  OE1       10.1930  -14.1840  -13.2780 O.2   320  GLN320     -0.2717
     46  NE2       10.5140  -13.9710  -15.4910 N.am  320  GLN320     -0.0878
     47  N         14.7860  -19.0840  -14.3040 N.am  321  ILE321     -0.1963
     48  CA        14.7050  -20.4230  -14.8850 C.3   321  ILE321      0.1727
     49  C         14.1750  -21.5190  -13.9580 C.2   321  ILE321      0.2616
     50  O         13.3740  -22.3420  -14.3860 O.2   321  ILE321     -0.2715
     51  CB        16.0370  -20.8790  -15.5270 C.3   321  ILE321      0.0290
     52  CG1       15.7490  -21.9840  -16.5540 C.3   321  ILE321      0.0022
     53  CG2       17.0310  -21.3180  -14.4650 C.3   321  ILE321      0.0023
     54  CD1       16.9390  -22.8540  -16.9150 C.3   321  ILE321      0.0001
     55  N         14.5840  -21.5470  -12.6960 N.am  322  GLU322     -0.1977
     56  CA        14.0620  -22.5930  -11.8230 C.3   322  GLU322      0.1602
     57  C         12.5670  -22.3950  -11.5750 C.2   322  GLU322      0.2287
     58  O         11.8440  -23.3600  -11.3550 O.2   322  GLU322     -0.2864
     59  CB        14.8760  -22.7230  -10.5250 C.3   322  GLU322      0.0415
     60  CG        16.1090  -23.6260  -10.7190 C.3   322  GLU322      0.1163
     61  CD        17.0390  -23.6920   -9.5150 C.2   322  GLU322      0.3649
     62  OE1       16.5600  -23.6210   -8.3640 O.co2 322  GLU322     -0.2457
     63  OE2       18.2600  -23.8410   -9.7310 O.co2 322  GLU322     -0.2457
     64  N         10.4730  -11.6660  -10.0340 N.3   346  HIS346     -0.1241
     65  CA        11.5730  -11.0520   -9.3050 C.3   346  HIS346      0.1621
     66  C         11.3780   -9.5410   -9.2050 C.2   346  HIS346      0.2264
     67  O         11.6960   -8.9360   -8.1820 O.2   346  HIS346     -0.2867
     68  CB        12.9090  -11.3730   -9.9770 C.3   346  HIS346      0.0745
     69  CG        13.2570  -12.8290   -9.9610 C.ar  346  HIS346      0.0817
     70  ND1       12.7800  -13.6970   -9.0020 N.ar  346  HIS346     -0.2268
     71  CD2       14.0430  -13.5690  -10.7790 C.ar  346  HIS346      0.1154
     72  CE1       13.2530  -14.9090   -9.2330 C.ar  346  HIS346      0.1986
     73  NE2       14.0230  -14.8580  -10.3040 N.ar  346  HIS346     -0.2212
     74  N         16.4560   -5.7940   -7.5800 N.3   366  ARG366     -0.1231
     75  CA        15.9420   -7.0240   -8.1630 C.3   366  ARG366      0.1694
     76  C         16.7130   -8.2490   -7.6760 C.2   366  ARG366      0.2591
     77  O         16.1260   -9.3010   -7.4250 O.2   366  ARG366     -0.2718
     78  CB        15.9930   -6.9460   -9.6850 C.3   366  ARG366      0.0321
     79  CG        15.3020   -8.1030  -10.3720 C.3   366  ARG366      0.0489
     80  CD        15.1070   -7.8340  -11.8530 C.3   366  ARG366      0.2205
     81  NE        14.4630   -8.9620  -12.5150 N.pl3 366  ARG366     -0.0865
     82  CZ        15.1030  -10.0620  -12.8950 C.cat 366  ARG366      0.5346
     83  NH1       16.4050  -10.1800  -12.6780 N.pl3 366  ARG366      0.1354
     84  NH2       14.4420  -11.0460  -13.4880 N.pl3 366  ARG366      0.1354
     85  N         18.0280   -8.1150   -7.5460 N.am  367  ARG367     -0.1980
     86  CA        18.8440   -9.2180   -7.0610 C.3   367  ARG367      0.1597
     87  C         18.4740   -9.5350   -5.6180 C.2   367  ARG367      0.2287
     88  O         18.4370  -10.6990   -5.2210 O.2   367  ARG367     -0.2864
     89  CB        20.3340   -8.8940   -7.1700 C.3   367  ARG367      0.0334
     90  CG        21.2200  -10.0540   -6.7570 C.3   367  ARG367      0.0492
     91  CD        22.6420   -9.9050   -7.2630 C.3   367  ARG367      0.2205
     92  NE        23.4490  -11.0750   -6.9240 N.pl3 367  ARG367     -0.0865
     93  CZ        23.9280  -11.3280   -5.7090 C.cat 367  ARG367      0.5346
     94  NH1       23.6820  -10.4940   -4.7070 N.pl3 367  ARG367      0.1354
     95  NH2       24.6500  -12.4200   -5.4910 N.pl3 367  ARG367      0.1354
     96  N         15.4620  -11.6040   -5.5570 N.3   370  LYS370     -0.1231
     97  CA        15.6670  -12.9800   -5.9930 C.3   370  LYS370      0.1693
     98  C         15.9780  -13.9090   -4.8220 C.2   370  LYS370      0.2592
     99  O         15.4620  -15.0220   -4.7590 O.2   370  LYS370     -0.2718
    100  CB        16.7770  -13.0570   -7.0460 C.3   370  LYS370      0.0285
    101  CG        16.3190  -12.6360   -8.4330 C.3   370  LYS370      0.0035
    102  CD        17.3120  -13.0450   -9.5110 C.3   370  LYS370      0.0206
    103  CE        18.4200  -12.0190   -9.6660 C.3   370  LYS370      0.1093
    104  NZ        19.4050  -12.4180  -10.7030 N.3   370  LYS370     -0.1314
    105  N         16.8130  -13.4570   -3.8920 N.am  371  THR371     -0.1953
    106  CA        17.1540  -14.2840   -2.7390 C.3   371  THR371      0.1897
    107  C         15.9020  -14.5160   -1.8950 C.2   371  THR371      0.2313
    108  O         15.7830  -15.5320   -1.2150 O.2   371  THR371     -0.2863
    109  CB        18.2560  -13.6550   -1.8460 C.3   371  THR371      0.1794
    110  OG1       17.6540  -12.9570   -0.7490 O.3   371  THR371     -0.2208
    111  CG2       19.1510  -12.7000   -2.6360 C.3   371  THR371      0.0378
    112  N         13.4670  -17.2660   -4.0690 N.3   374  PHE374     -0.1241
    113  CA        13.9380  -18.6410   -3.9760 C.3   374  PHE374      0.1605
    114  C         14.0660  -19.0770   -2.5200 C.2   374  PHE374      0.2264
    115  O         13.9190  -20.2560   -2.2010 O.2   374  PHE374     -0.2867
    116  CB        15.2660  -18.8030   -4.7100 C.3   374  PHE374      0.0534
    117  CG        15.1590  -18.5860   -6.1900 C.ar  374  PHE374     -0.0203
    118  CD1       14.3810  -19.4310   -6.9660 C.ar  374  PHE374     -0.0042
    119  CD2       15.8240  -17.5400   -6.8030 C.ar  374  PHE374     -0.0042
    120  CE1       14.2670  -19.2380   -8.3300 C.ar  374  PHE374     -0.0003
    121  CE2       15.7170  -17.3400   -8.1720 C.ar  374  PHE374     -0.0003
    122  CZ        14.9380  -18.1920   -8.9340 C.ar  374  PHE374     -0.0000
    123  N         12.0040  -22.5540   -1.3780 N.3   378  TYR378     -0.1241
    124  CA        12.6690  -23.7620   -0.9010 C.3   378  TYR378      0.1605
    125  C         12.6430  -23.9160    0.6210 C.2   378  TYR378      0.2264
    126  O         13.4270  -24.6820    1.1800 O.2   378  TYR378     -0.2867
    127  CB        14.1040  -23.8180   -1.4290 C.3   378  TYR378      0.0534
    128  CG        14.1540  -23.9420   -2.9370 C.ar  378  TYR378     -0.0201
    129  CD1       13.4410  -24.9390   -3.5860 C.ar  378  TYR378     -0.0009
    130  CD2       14.9010  -23.0640   -3.7080 C.ar  378  TYR378     -0.0009
    131  CE1       13.4670  -25.0610   -4.9560 C.ar  378  TYR378      0.0417
    132  CE2       14.9380  -23.1820   -5.0890 C.ar  378  TYR378      0.0417
    133  CZ        14.2180  -24.1840   -5.7030 C.ar  378  TYR378      0.1957
    134  OH        14.2360  -24.3150   -7.0740 O.3   378  TYR378     -0.2866
    135  N         16.2490  -27.8310   -9.2600 N.3   461  GLN461     -0.1245
    136  CA        17.6080  -27.3760   -9.5320 C.3   461  GLN461      0.1566
    137  C         18.2870  -28.2780  -10.5560 C.2   461  GLN461      0.2260
    138  O         19.0130  -27.8100  -11.4240 O.2   461  GLN461     -0.2867
    139  CB        18.4350  -27.3470   -8.2450 C.3   461  GLN461      0.0367
    140  CG        19.8340  -26.7730   -8.4420 C.3   461  GLN461      0.0905
    141  CD        20.6670  -26.8100   -7.1780 C.2   461  GLN461      0.2608
    142  OE1       21.7010  -27.4690   -7.1260 O.2   461  GLN461     -0.2717
    143  NE2       20.2160  -26.1050   -6.1490 N.am  461  GLN461     -0.0878
    144  N         16.9550  -27.7970  -14.2310 N.3   464  ALA464     -0.1245
    145  CA        17.5570  -26.5930  -14.7880 C.3   464  ALA464      0.1562
    146  C         18.9920  -26.8790  -15.2350 C.2   464  ALA464      0.2260
    147  O         19.4230  -26.4110  -16.2840 O.2   464  ALA464     -0.2867
    148  CB        17.5220  -25.4600  -13.7730 C.3   464  ALA464      0.0290
    149  N         25.9630  -21.9830  -14.0790 N.3   491  HIS491     -0.1226
    150  CA        24.6830  -22.6150  -13.7430 C.3   491  HIS491      0.1752
    151  C         23.5690  -22.4070  -14.7800 C.2   491  HIS491      0.2596
    152  O         23.1470  -23.3690  -15.4220 O.2   491  HIS491     -0.2718
    153  CB        24.2640  -22.2180  -12.3300 C.3   491  HIS491      0.0759
    154  CG        25.3600  -22.4100  -11.3280 C.ar  491  HIS491      0.0818
    155  ND1       26.0070  -23.6140  -11.1630 N.ar  491  HIS491     -0.2268
    156  CD2       25.9610  -21.5370  -10.4860 C.ar  491  HIS491      0.1154
    157  CE1       26.9450  -23.4840  -10.2380 C.ar  491  HIS491      0.1986
    158  NE2       26.9360  -22.2350   -9.8120 N.ar  491  HIS491     -0.2212
    159  N         23.0840  -21.1810  -14.9500 N.am  492  ASP492     -0.1974
    160  CA        22.1120  -20.9110  -16.0130 C.3   492  ASP492      0.1709
    161  C         22.6080  -19.8010  -16.9350 C.2   492  ASP492      0.2293
    162  O         21.8250  -19.1700  -17.6450 O.2   492  ASP492     -0.2864
    163  CB        20.7460  -20.5410  -15.4320 C.3   492  ASP492      0.1436
    164  CG        20.6930  -19.1150  -14.9350 C.2   492  ASP492      0.3671
    165  OD1       21.7180  -18.6350  -14.4060 O.co2 492  ASP492     -0.2456
    166  OD2       19.6290  -18.4760  -15.0720 O.co2 492  ASP492     -0.2456
    167  N         18.1630  -13.7880  -21.6130 N.3   527  GLU527     -0.1245
    168  CA        18.6940  -12.4440  -21.7760 C.3   527  GLU527      0.1567
    169  C         20.1140  -12.5520  -22.3120 C.2   527  GLU527      0.2260
    170  O         20.8920  -13.3870  -21.8610 O.2   527  GLU527     -0.2867
    171  CB        18.6800  -11.6930  -20.4450 C.3   527  GLU527      0.0388
    172  CG        17.2890  -11.3160  -19.9610 C.3   527  GLU527      0.1160
    173  CD        16.6110  -10.3060  -20.8670 C.2   527  GLU527      0.3649
    174  OE1       17.0650   -9.1420  -20.9040 O.co2 527  GLU527     -0.2457
    175  OE2       15.6220  -10.6730  -21.5370 O.co2 527  GLU527     -0.2457
@<TRIPOS>BOND
     1   169   170    2
     2   169   168    1
     3    31    30    1
     4   168   167    1
     5   168   171    1
     6   175   173   ar
     7    28    30   ar
     8    28    26   ar
     9    30    29   ar
    10   174   173   ar
    11   173   172    1
    12   171   172    1
    13    26    25   ar
    14    29    27   ar
    15    12    13    1
    16    15    14    2
    17    25    27   ar
    18    25    24    1
    19    14    13    1
    20    14    20   am
    21    13    16    1
    22    21    20    1
    23    21    24    1
    24    21    22    1
    25    36    37    1
    26    36    33    1
    27    32    22   am
    28    32    33    1
    29    16    17    1
    30   162   161    2
    31    22    23    2
    32    33    34    1
    33   161   160    1
    34    54    52    1
    35    35    34    2
    36    52    51    1
    37    17    18   ar
    38    17    19   ar
    39   147   146    2
    40    34    38   am
    41   160   163    1
    42   160   159    1
    43    51    48    1
    44    51    53    1
    45    46    44   am
    46   163   164    1
    47   152   151    2
    48   146   145    1
    49   166   164   ar
    50   159   151   am
    51    38    39    1
    52   164   165   ar
    53    48    47    1
    54    48    49    1
    55   145   144    1
    56   145   148    1
    57   151   150    1
    58    50    49    2
    59    47    40   am
    60    44    43    1
    61    44    45    2
    62    43    42    1
    63   149   150    1
    64    40    41    2
    65    40    39    1
    66    49    55   am
    67    39    42    1
    68   150   153    1
    69    84    82    1
    70    82    83    1
    71    82    81    2
    72    55    56    1
    73    81    80    1
    74   153   154    1
    75    80    79    1
    76    56    57    1
    77    56    59    1
    78     3     2    1
    79     3     4    2
    80    57    58    2
    81     2     1    1
    82     2     5    1
    83   138   137    2
    84   154   155   ar
    85   154   156   ar
    86   155   157   ar
    87    71    73   ar
    88    71    69   ar
    89    60    59    1
    90    60    61    1
    91   104   103    1
    92   137   136    1
    93   156   158   ar
    94     6     5    1
    95     6     7    1
    96    79    78    1
    97    73    72   ar
    98   157   158   ar
    99    64    65    1
   100    68    69    1
   101    68    65    1
   102    69    70   ar
   103    63    61   ar
   104    78    75    1
   105   103   102    1
   106   136   135    1
   107   136   139    1
   108    61    62   ar
   109   102   101    1
   110     7     8    1
   111     8     9    2
   112    65    66    1
   113    72    70   ar
   114    66    67    2
   115   122   120   ar
   116   122   121   ar
   117    11     9    1
   118     9    10    1
   119   140   139    1
   120   140   141    1
   121   101   100    1
   122   120   118   ar
   123   121   119   ar
   124    75    76    1
   125    75    74    1
   126    76    85   am
   127    76    77    2
   128    85    86    1
   129    91    92    1
   130    91    90    1
   131   141   142    2
   132   141   143   am
   133    89    86    1
   134    89    90    1
   135   134   133    1
   136    86    87    1
   137   100    97    1
   138   118   117   ar
   139    92    93    2
   140   119   117   ar
   141   117   116    1
   142    97    96    1
   143    97    98    1
   144    93    95    1
   145    93    94    1
   146   133   132   ar
   147   133   131   ar
   148    87    88    2
   149   132   130   ar
   150   131   129   ar
   151    98    99    2
   152    98   105   am
   153   116   113    1
   154   112   113    1
   155   113   114    1
   156   105   106    1
   157   130   128   ar
   158   129   128   ar
   159   128   127    1
   160   106   107    1
   161   106   109    1
   162   111   109    1
   163   114   115    2
   164   107   108    2
   165   109   110    1
   166   127   124    1
   167   123   124    1
   168   124   125    1
   169   125   126    2
