@<TRIPOS>MOLECULE
tmp/3m8sA02.pdb
 81 79 0 0 0
SMALL
GASTEIGER

@<TRIPOS>ATOM
      1  N         40.3650  -13.2320   -1.7460 N.3   251  THR251     -0.1203
      2  CA        39.7790  -14.3220   -2.5210 C.3   251  THR251      0.1994
      3  C         39.8790  -14.1120   -4.0350 C.2   251  THR251      0.2617
      4  O         39.9410  -15.0810   -4.7890 O.2   251  THR251     -0.2717
      5  CB        38.3000  -14.5490   -2.1320 C.3   251  THR251      0.1784
      6  OG1       38.2190  -14.9420   -0.7550 O.3   251  THR251     -0.2211
      7  CG2       37.6680  -15.6330   -2.9960 C.3   251  THR251      0.0376
      8  N         39.9060  -12.8590   -4.4840 N.am  252  TYR252     -0.1975
      9  CA        39.8670  -12.5770   -5.9190 C.3   252  TYR252      0.1639
     10  C         41.0050  -11.6740   -6.3920 C.2   252  TYR252      0.2290
     11  O         41.8020  -12.0690   -7.2420 O.2   252  TYR252     -0.2864
     12  CB        38.5220  -11.9530   -6.3010 C.3   252  TYR252      0.0560
     13  CG        37.3350  -12.7660   -5.8420 C.ar  252  TYR252     -0.0198
     14  CD1       36.9270  -13.8920   -6.5460 C.ar  252  TYR252     -0.0009
     15  CD2       36.6280  -12.4130   -4.6980 C.ar  252  TYR252     -0.0009
     16  CE1       35.8440  -14.6430   -6.1260 C.ar  252  TYR252      0.0417
     17  CE2       35.5440  -13.1550   -4.2700 C.ar  252  TYR252      0.0417
     18  CZ        35.1570  -14.2710   -4.9860 C.ar  252  TYR252      0.1957
     19  OH        34.0790  -15.0140   -4.5650 O.3   252  TYR252     -0.2866
     20  N         44.7870  -13.4030   -5.4620 N.3   255  PRO255     -0.2102
     21  CA        45.0980  -14.7250   -6.0240 C.3   255  PRO255      0.1504
     22  C         45.0330  -14.7750   -7.5550 C.2   255  PRO255      0.2575
     23  O         45.9160  -15.3520   -8.1880 O.2   255  PRO255     -0.2718
     24  CB        44.0090  -15.6370   -5.4330 C.3   255  PRO255      0.0282
     25  CG        43.3110  -14.8370   -4.3850 C.3   255  PRO255      0.0208
     26  CD        43.5130  -13.4010   -4.7270 C.3   255  PRO255      0.0893
     27  N         44.0050  -14.1670   -8.1380 N.am  256  LEU256     -0.1980
     28  CA        43.7030  -14.3600   -9.5570 C.3   256  LEU256      0.1596
     29  C         44.8490  -13.9820  -10.5000 C.2   256  LEU256      0.2287
     30  O         45.1820  -14.7460  -11.4060 O.2   256  LEU256     -0.2864
     31  CB        42.4250  -13.6070   -9.9380 C.3   256  LEU256      0.0297
     32  CG        41.1480  -14.2070   -9.3410 C.3   256  LEU256      0.0022
     33  CD1       39.9200  -13.4160   -9.7650 C.3   256  LEU256      0.0001
     34  CD2       41.0030  -15.6700   -9.7370 C.3   256  LEU256      0.0001
     35  N         47.5560  -16.5310  -11.2710 N.3   259  LEU259     -0.1245
     36  CA        47.1400  -17.7930  -11.8770 C.3   259  LEU259      0.1561
     37  C         47.1010  -17.7310  -13.4000 C.2   259  LEU259      0.2260
     38  O         46.6070  -18.6520  -14.0480 O.2   259  LEU259     -0.2867
     39  CB        45.7630  -18.2050  -11.3580 C.3   259  LEU259      0.0270
     40  CG        45.6640  -18.4810   -9.8600 C.3   259  LEU259      0.0019
     41  CD1       44.2250  -18.7720   -9.4840 C.3   259  LEU259      0.0001
     42  CD2       46.5710  -19.6360   -9.4630 C.3   259  LEU259      0.0001
     43  N         39.6120  -24.0910   -8.7350 N.3   285  ASP285     -0.1225
     44  CA        41.0430  -24.0110   -9.0050 C.3   285  ASP285      0.1790
     45  C         41.3940  -23.1470  -10.2070 C.2   285  ASP285      0.2440
     46  O         42.1240  -23.5930  -11.0860 O.2   285  ASP285     -0.2733
     47  CB        41.6090  -25.4150   -9.2310 C.3   285  ASP285      0.1423
     48  CG        41.3060  -26.3600   -8.0830 C.2   285  ASP285      0.3668
     49  OD1       41.6970  -26.0510   -6.9370 O.co2 285  ASP285     -0.2456
     50  OD2       40.6800  -27.4140   -8.3290 O.co2 285  ASP285     -0.2456
     51  N         40.8940  -21.9030  -10.2510 N.am  286  PRO286     -0.2718
     52  CA        40.0160  -21.2360   -9.2870 C.3   286  PRO286      0.1535
     53  C         38.5450  -21.4210   -9.6230 C.2   286  PRO286      0.2598
     54  O         38.2190  -21.7830  -10.7490 O.2   286  PRO286     -0.2715
     55  CB        40.3860  -19.7630   -9.4570 C.3   286  PRO286      0.0310
     56  CG        40.7850  -19.6460  -10.8940 C.3   286  PRO286      0.0237
     57  CD        41.2820  -20.9980  -11.3480 C.3   286  PRO286      0.0939
     58  N         37.6750  -21.1680   -8.6510 N.am  287  ASN287     -0.1973
     59  CA        36.2390  -21.1200   -8.8880 C.3   287  ASN287      0.1688
     60  C         35.8850  -19.8320   -9.6310 C.2   287  ASN287      0.2292
     61  O         36.0860  -18.7390   -9.1080 O.2   287  ASN287     -0.2864
     62  CB        35.4960  -21.1860   -7.5490 C.3   287  ASN287      0.1181
     63  CG        33.9930  -21.2870   -7.7100 C.2   287  ASN287      0.2629
     64  OD1       33.4660  -21.2290   -8.8190 O.2   287  ASN287     -0.2716
     65  ND2       33.2920  -21.4440   -6.5930 N.am  287  ASN287     -0.0877
     66  N         31.7600  -17.9520   -8.9360 N.3   290  ASN290     -0.1225
     67  CA        31.3940  -17.0520   -7.8390 C.3   290  ASN290      0.1785
     68  C         32.1740  -15.7380   -7.8510 C.2   290  ASN290      0.2597
     69  O         32.4540  -15.1620   -6.8000 O.2   290  ASN290     -0.2718
     70  CB        31.5640  -17.7410   -6.4810 C.3   290  ASN290      0.1169
     71  CG        33.0160  -17.9070   -6.0880 C.2   290  ASN290      0.2627
     72  OD1       33.9030  -17.9350   -6.9400 O.2   290  ASN290     -0.2716
     73  ND2       33.2670  -18.0240   -4.7870 N.am  290  ASN290     -0.0877
     74  N         32.5210  -15.2680   -9.0420 N.am  291  ILE291     -0.1980
     75  CA        33.1290  -13.9520   -9.1900 C.3   291  ILE291      0.1595
     76  C         32.1390  -12.8760   -8.7330 C.2   291  ILE291      0.2287
     77  O         30.9640  -12.9250   -9.0860 O.2   291  ILE291     -0.2864
     78  CB        33.5480  -13.6970  -10.6520 C.3   291  ILE291      0.0276
     79  CG1       34.5630  -14.7510  -11.0990 C.3   291  ILE291      0.0022
     80  CG2       34.1290  -12.3020  -10.8040 C.3   291  ILE291      0.0022
     81  CD1       35.7840  -14.8430  -10.2050 C.3   291  ILE291      0.0001
@<TRIPOS>BOND
     1    38    37    2
     2    37    36    1
     3    36    39    1
     4    36    35    1
     5    30    29    2
     6    39    40    1
     7    57    56    1
     8    57    51    1
     9    79    78    1
    10    79    81    1
    11    46    45    2
    12    56    55    1
    13    80    78    1
    14    54    53    2
    15    78    75    1
    16    29    28    1
    17    51    45   am
    18    51    52    1
    19    45    44    1
    20    31    28    1
    21    31    32    1
    22    40    41    1
    23    40    42    1
    24    33    32    1
    25    34    32    1
    26    60    61    2
    27    60    59    1
    28    53    52    1
    29    53    58   am
    30    28    27    1
    31    55    52    1
    32    47    44    1
    33    47    48    1
    34    75    74    1
    35    75    76    1
    36    77    76    2
    37    74    68   am
    38    44    43    1
    39    66    67    1
    40    59    58    1
    41    59    62    1
    42    64    63    2
    43    50    48   ar
    44    23    22    2
    45    27    22   am
    46    48    49   ar
    47    68    67    1
    48    68    69    2
    49    67    70    1
    50    63    62    1
    51    63    65   am
    52    22    21    1
    53    11    10    2
    54    72    71    2
    55    14    16   ar
    56    14    13   ar
    57    70    71    1
    58    10     9    1
    59    12     9    1
    60    12    13    1
    61    16    18   ar
    62    71    73   am
    63    21    20    1
    64    21    24    1
    65     9     8    1
    66    13    15   ar
    67    20    26    1
    68    24    25    1
    69    18    19    1
    70    18    17   ar
    71     4     3    2
    72    26    25    1
    73    15    17   ar
    74     8     3   am
    75     3     2    1
    76     7     5    1
    77     2     5    1
    78     2     1    1
    79     5     6    1
