@<TRIPOS>MOLECULE
tmp/3m8uA01.pdb
 91 88 0 0 0
SMALL
GASTEIGER

@<TRIPOS>ATOM
      1  N         22.1950  -21.6030  -20.1850 N.3    21  MET21      -0.1245
      2  CA        20.8840  -22.0240  -19.7730 C.3    21  MET21       0.1570
      3  C         20.5640  -21.4140  -18.4120 C.2    21  MET21       0.2261
      4  O         20.1640  -22.1150  -17.4870 O.2    21  MET21      -0.2867
      5  CB        20.8780  -23.5500  -19.7050 C.3    21  MET21       0.0387
      6  CG        19.5290  -24.1750  -19.6240 C.3    21  MET21       0.0595
      7  SD        19.6770  -25.9740  -19.7420 S.3    21  MET21      -0.1393
      8  CE        18.0080  -26.4500  -19.2530 C.3    21  MET21       0.0692
      9  N         23.3940  -26.8790  -23.7700 N.3   114  PRO114     -0.2116
     10  CA        22.6850  -27.5580  -22.6750 C.3   114  PRO114      0.1372
     11  C         21.1600  -27.6260  -22.8500 C.2   114  PRO114      0.2244
     12  O         20.5720  -28.6740  -22.5710 O.2   114  PRO114     -0.2868
     13  CB        23.0630  -26.7290  -21.4370 C.3   114  PRO114      0.0268
     14  CG        23.4940  -25.3920  -21.9820 C.3   114  PRO114      0.0207
     15  CD        24.1510  -25.7110  -23.3010 C.3   114  PRO114      0.0892
     16  N         18.5220  -30.7730  -23.2900 N.3   118  ALA118     -0.1245
     17  CA        17.4210  -31.0200  -22.3580 C.3   118  ALA118      0.1562
     18  C         16.0840  -31.0790  -23.1060 C.2   118  ALA118      0.2260
     19  O         15.1700  -31.7890  -22.6970 O.2   118  ALA118     -0.2867
     20  CB        17.3910  -29.9440  -21.2560 C.3   118  ALA118      0.0290
     21  N         28.9860  -21.5910   -8.7510 N.3   387  TRP387     -0.1241
     22  CA        27.7990  -21.9430   -9.5350 C.3   387  TRP387      0.1605
     23  C         28.0470  -22.9230  -10.6840 C.2   387  TRP387      0.2264
     24  O         27.3710  -23.9360  -10.7700 O.2   387  TRP387     -0.2867
     25  CB        27.1280  -20.6690  -10.0570 C.3   387  TRP387      0.0550
     26  CG        26.0000  -20.8920  -11.0260 C.ar  387  TRP387      0.0003
     27  CD1       25.9420  -20.4550  -12.3170 C.ar  387  TRP387      0.0946
     28  CD2       24.7680  -21.5930  -10.7830 C.ar  387  TRP387      0.0152
     29  NE1       24.7520  -20.8340  -12.8940 N.ar  387  TRP387     -0.2442
     30  CE2       24.0140  -21.5330  -11.9760 C.ar  387  TRP387      0.0810
     31  CE3       24.2290  -22.2600   -9.6770 C.ar  387  TRP387      0.0012
     32  CZ2       22.7470  -22.1170  -12.0950 C.ar  387  TRP387      0.0191
     33  CZ3       22.9680  -22.8390   -9.7970 C.ar  387  TRP387      0.0001
     34  CH2       22.2430  -22.7600  -11.0000 C.ar  387  TRP387      0.0015
     35  N         26.7340  -26.9600  -10.6190 N.3   391  ILE391     -0.1245
     36  CA        25.8500  -27.6050  -11.5900 C.3   391  ILE391      0.1561
     37  C         26.5440  -28.7500  -12.3280 C.2   391  ILE391      0.2260
     38  O         25.9550  -29.8150  -12.5280 O.2   391  ILE391     -0.2867
     39  CB        25.2930  -26.5790  -12.5950 C.3   391  ILE391      0.0252
     40  CG1       24.3530  -25.6080  -11.8780 C.3   391  ILE391      0.0019
     41  CG2       24.5510  -27.2820  -13.7230 C.3   391  ILE391      0.0019
     42  CD1       23.1930  -26.2870  -11.1350 C.3   391  ILE391      0.0001
     43  N         25.2540  -32.5790  -12.2280 N.3   395  LYS395     -0.1245
     44  CA        24.8710  -33.3070  -13.4340 C.3   395  LYS395      0.1561
     45  C         25.5940  -34.6460  -13.5310 C.2   395  LYS395      0.2260
     46  O         25.0440  -35.6170  -14.0410 O.2   395  LYS395     -0.2867
     47  CB        25.1500  -32.4600  -14.6740 C.3   395  LYS395      0.0271
     48  CG        24.1200  -31.3500  -14.8780 C.3   395  LYS395      0.0035
     49  CD        24.6300  -30.2660  -15.8120 C.3   395  LYS395      0.0206
     50  CE        24.6620  -30.7150  -17.2580 C.3   395  LYS395      0.1093
     51  NZ        25.0610  -29.5940  -18.1590 N.3   395  LYS395     -0.1314
     52  N         13.5820  -24.4270  -10.7600 N.3   406  TRP406     -0.1241
     53  CA        13.2870  -24.4270  -12.1920 C.3   406  TRP406      0.1605
     54  C         12.1260  -23.4980  -12.4780 C.2   406  TRP406      0.2264
     55  O         11.1120  -23.5360  -11.7740 O.2   406  TRP406     -0.2867
     56  CB        12.9130  -25.8420  -12.6450 C.3   406  TRP406      0.0550
     57  CG        12.5440  -25.9780  -14.1220 C.ar  406  TRP406      0.0003
     58  CD1       11.2820  -25.9340  -14.6700 C.ar  406  TRP406      0.0946
     59  CD2       13.4440  -26.2090  -15.2180 C.ar  406  TRP406      0.0152
     60  NE1       11.3520  -26.1250  -16.0340 N.ar  406  TRP406     -0.2442
     61  CE2       12.6640  -26.2930  -16.3940 C.ar  406  TRP406      0.0810
     62  CE3       14.8320  -26.3550  -15.3190 C.ar  406  TRP406      0.0012
     63  CZ2       13.2270  -26.5040  -17.6550 C.ar  406  TRP406      0.0191
     64  CZ3       15.3930  -26.5710  -16.5780 C.ar  406  TRP406      0.0001
     65  CH2       14.5890  -26.6420  -17.7240 C.ar  406  TRP406      0.0015
     66  N         21.6720  -34.3290  -17.7750 N.3   428  ASN428     -0.1225
     67  CA        21.3750  -32.9900  -18.2970 C.3   428  ASN428      0.1785
     68  C         20.6590  -32.1160  -17.2590 C.2   428  ASN428      0.2597
     69  O         21.2890  -31.3250  -16.5560 O.2   428  ASN428     -0.2718
     70  CB        20.4900  -33.0610  -19.5500 C.3   428  ASN428      0.1169
     71  CG        21.1670  -33.7510  -20.7300 C.2   428  ASN428      0.2627
     72  OD1       22.3960  -33.7890  -20.8380 O.2   428  ASN428     -0.2716
     73  ND2       20.3500  -34.2850  -21.6390 N.am  428  ASN428     -0.0877
     74  N         19.3350  -32.2600  -17.1900 N.am  429  SER429     -0.1952
     75  CA        18.4930  -31.3940  -16.3660 C.3   429  SER429      0.1924
     76  C         17.7170  -32.1720  -15.2960 C.2   429  SER429      0.2314
     77  O         17.0250  -31.5740  -14.4720 O.2   429  SER429     -0.2863
     78  CB        17.5100  -30.6280  -17.2620 C.3   429  SER429      0.2116
     79  OG        16.8660  -31.5100  -18.1820 O.3   429  SER429     -0.2180
     80  N         18.2910  -33.8490  -12.2890 N.3   431  TYR431     -0.1241
     81  CA        19.3400  -33.9910  -11.2850 C.3   431  TYR431      0.1605
     82  C         19.1000  -35.1770  -10.3460 C.2   431  TYR431      0.2264
     83  O         20.0470  -35.7290   -9.7890 O.2   431  TYR431     -0.2867
     84  CB        19.4720  -32.7150  -10.4510 C.3   431  TYR431      0.0534
     85  CG        19.8130  -31.4660  -11.2280 C.ar  431  TYR431     -0.0201
     86  CD1       20.4320  -31.5320  -12.4780 C.ar  431  TYR431     -0.0009
     87  CD2       19.5080  -30.2160  -10.7160 C.ar  431  TYR431     -0.0009
     88  CE1       20.7460  -30.3740  -13.1870 C.ar  431  TYR431      0.0417
     89  CE2       19.8150  -29.0490  -11.4160 C.ar  431  TYR431      0.0417
     90  CZ        20.4340  -29.1340  -12.6460 C.ar  431  TYR431      0.1957
     91  OH        20.7320  -27.9700  -13.3330 O.3   431  TYR431     -0.2866
@<TRIPOS>BOND
     1     9    15    1
     2     9    10    1
     3    15    14    1
     4    16    17    1
     5    18    19    2
     6    18    17    1
     7    11    10    1
     8    11    12    2
     9    10    13    1
    10    17    20    1
    11    14    13    1
    12    73    71   am
    13    72    71    2
    14    71    70    1
    15     1     2    1
    16     2     5    1
    17     2     3    1
    18     7     6    1
    19     7     8    1
    20     5     6    1
    21    70    67    1
    22     3     4    2
    23    67    66    1
    24    67    68    1
    25    79    78    1
    26    51    50    1
    27    65    63   ar
    28    65    64   ar
    29    63    61   ar
    30    78    75    1
    31    68    74   am
    32    68    69    2
    33    50    49    1
    34    74    75    1
    35    64    62   ar
    36    61    60   ar
    37    61    59   ar
    38    75    76    1
    39    60    58   ar
    40    49    48    1
    41    62    59   ar
    42    76    77    2
    43    59    57   ar
    44    48    47    1
    45    47    44    1
    46    58    57   ar
    47    57    56    1
    48    46    45    2
    49    41    39    1
    50    45    44    1
    51    44    43    1
    52    91    90    1
    53    88    90   ar
    54    88    86   ar
    55    29    27   ar
    56    29    30   ar
    57    90    89   ar
    58    56    53    1
    59    39    40    1
    60    39    36    1
    61    38    37    2
    62    54    53    1
    63    54    55    2
    64    86    85   ar
    65    37    36    1
    66    27    26   ar
    67    80    81    1
    68    53    52    1
    69    32    30   ar
    70    32    34   ar
    71    30    28   ar
    72    40    42    1
    73    36    35    1
    74    89    87   ar
    75    81    84    1
    76    81    82    1
    77    85    87   ar
    78    85    84    1
    79    26    28   ar
    80    26    25    1
    81    34    33   ar
    82    28    31   ar
    83    24    23    2
    84    23    22    1
    85    82    83    2
    86    25    22    1
    87    33    31   ar
    88    22    21    1
