@<TRIPOS>MOLECULE
tmp/3m8zA01.pdb
 134 125 0 0 0
SMALL
GASTEIGER

@<TRIPOS>ATOM
      1  N          5.3580    6.4630   -3.8900 N.3    12  ASP12      -0.1239
      2  CA         6.3230    7.5440   -3.7480 C.3    12  ASP12       0.1674
      3  C          7.4650    7.3660   -4.7500 C.2    12  ASP12       0.2266
      4  O          8.1000    6.3190   -4.7840 O.2    12  ASP12      -0.2867
      5  CB         6.8600    7.6610   -2.3170 C.3    12  ASP12       0.1410
      6  CG         7.5430    8.9950   -2.0800 C.2    12  ASP12       0.3668
      7  OD1        8.5970    9.2320   -2.7000 O.co2  12  ASP12      -0.2456
      8  OD2        7.0150    9.8290   -1.3200 O.co2  12  ASP12      -0.2456
      9  N         11.0080   17.3030   -4.7080 N.3    83  ASP83      -0.1225
     10  CA        11.0930   16.5630   -3.4470 C.3    83  ASP83       0.1805
     11  C          9.6970   16.0800   -2.9750 C.2    83  ASP83       0.2598
     12  O          8.6620   16.4550   -3.5440 O.2    83  ASP83      -0.2718
     13  CB        11.7380   17.4600   -2.3850 C.3    83  ASP83       0.1424
     14  CG        10.9060   18.6970   -2.0870 C.2    83  ASP83       0.3668
     15  OD1       11.0950   19.7500   -2.7470 O.co2  83  ASP83      -0.2456
     16  OD2       10.0430   18.6280   -1.1960 O.co2  83  ASP83      -0.2456
     17  N          9.6850   15.2550   -1.9310 N.am   84  THR84      -0.1939
     18  CA         8.4360   14.7260   -1.3750 C.3    84  THR84       0.2028
     19  C          7.5170   15.7930   -0.8170 C.2    84  THR84       0.2642
     20  O          6.3100   15.7480   -1.0900 O.2    84  THR84      -0.2714
     21  CB         8.7060   13.6070   -0.3580 C.3    84  THR84       0.1808
     22  OG1        9.2390   12.4500   -1.0090 O.3    84  THR84      -0.2208
     23  CG2        7.4480   13.1170    0.3450 C.3    84  THR84       0.0379
     24  N          8.0500   16.7530   -0.0480 N.am   85  MET85      -0.1976
     25  CA         7.2040   17.8070    0.5150 C.3    85  MET85       0.1605
     26  C          6.5440   18.6300   -0.5940 C.2    85  MET85       0.2287
     27  O          5.3350   18.8090   -0.5880 O.2    85  MET85      -0.2864
     28  CB         7.9820   18.6870    1.5020 C.3    85  MET85       0.0413
     29  CG         8.2610   17.9840    2.8410 C.3    85  MET85       0.0598
     30  SD         9.7530   18.5120    3.7280 S.3    85  MET85      -0.1393
     31  CE         9.3240   20.2040    4.1040 C.3    85  MET85       0.0692
     32  N         18.2710   12.7210    0.6100 N.3   155  ASP155     -0.1225
     33  CA        17.1000   13.6060    0.6630 C.3   155  ASP155      0.1805
     34  C         17.4370   14.9420    1.3460 C.2   155  ASP155      0.2598
     35  O         18.5900   15.1800    1.7140 O.2   155  ASP155     -0.2718
     36  CB        15.9440   12.9120    1.3960 C.3   155  ASP155      0.1424
     37  CG        15.0530   12.0950    0.4650 C.2   155  ASP155      0.3668
     38  OD1       14.6480   10.9800    0.8600 O.co2 155  ASP155     -0.2456
     39  OD2       14.7470   12.5670   -0.6530 O.co2 155  ASP155     -0.2456
     40  N         16.4260   15.8000    1.5050 N.am  156  SER156     -0.1952
     41  CA        16.5770   17.1030    2.1520 C.3   156  SER156      0.1924
     42  C         16.4390   17.0110    3.6720 C.2   156  SER156      0.2314
     43  O         15.3910   17.3280    4.2410 O.2   156  SER156     -0.2863
     44  CB        15.5490   18.0870    1.5830 C.3   156  SER156      0.2116
     45  OG        15.7680   19.3810    2.1120 O.3   156  SER156     -0.2180
     46  N         13.7270   18.6320    6.5100 N.3   192  ARG192     -0.1245
     47  CA        13.5530   18.0840    7.8560 C.3   192  ARG192      0.1563
     48  C         14.8240   18.2010    8.6750 C.2   192  ARG192      0.2260
     49  O         15.9210   18.0120    8.1540 O.2   192  ARG192     -0.2867
     50  CB        13.2100   16.5980    7.7880 C.3   192  ARG192      0.0307
     51  CG        11.8080   16.2700    7.3540 C.3   192  ARG192      0.0489
     52  CD        11.6790   14.7700    7.1940 C.3   192  ARG192      0.2205
     53  NE        12.3850   14.2760    6.0140 N.pl3 192  ARG192     -0.0865
     54  CZ        12.6740   12.9960    5.8130 C.cat 192  ARG192      0.5346
     55  NH1       12.3350   12.0970    6.7250 N.pl3 192  ARG192      0.1354
     56  NH2       13.3150   12.6190    4.7150 N.pl3 192  ARG192      0.1354
     57  N         14.3840    9.3800   18.8320 N.3   211  ARG211     -0.1245
     58  CA        14.3980   10.1610   17.6000 C.3   211  ARG211      0.1563
     59  C         13.1850   11.1030   17.5280 C.2   211  ARG211      0.2260
     60  O         12.0610   10.7080   17.8510 O.2   211  ARG211     -0.2867
     61  CB        14.4000    9.2120   16.3970 C.3   211  ARG211      0.0307
     62  CG        14.1960    9.8890   15.0480 C.3   211  ARG211      0.0489
     63  CD        13.9220    8.8810   13.9640 C.3   211  ARG211      0.2205
     64  NE        13.3300    9.5310   12.8020 N.pl3 211  ARG211     -0.0865
     65  CZ        13.1710    8.9530   11.6190 C.cat 211  ARG211      0.5346
     66  NH1       12.6240    9.6410   10.6260 N.pl3 211  ARG211      0.1354
     67  NH2       13.5560    7.6970   11.4250 N.pl3 211  ARG211      0.1354
     68  N          3.9720    7.8380    5.9330 N.3   239  LYS239     -0.1245
     69  CA         4.6830    9.1130    6.1140 C.3   239  LYS239      0.1561
     70  C          3.8000   10.3440    5.9000 C.2   239  LYS239      0.2260
     71  O          4.2510   11.4690    6.1100 O.2   239  LYS239     -0.2867
     72  CB         5.9030    9.1910    5.1730 C.3   239  LYS239      0.0271
     73  CG         6.9810    8.1200    5.4220 C.3   239  LYS239      0.0035
     74  CD         7.6290    8.2500    6.7970 C.3   239  LYS239      0.0206
     75  CE         8.7130    7.1930    7.0120 C.3   239  LYS239      0.1093
     76  NZ         9.1570    7.1600    8.4410 N.3   239  LYS239     -0.1314
     77  N          4.7460   14.3010    6.4850 N.3   243  ILE243     -0.1245
     78  CA         4.9330   15.1310    5.2940 C.3   243  ILE243      0.1561
     79  C          4.1610   16.4470    5.3970 C.2   243  ILE243      0.2260
     80  O          4.6510   17.4890    4.9670 O.2   243  ILE243     -0.2867
     81  CB         4.5160   14.3650    4.0170 C.3   243  ILE243      0.0252
     82  CG1        5.5520   13.2870    3.6840 C.3   243  ILE243      0.0019
     83  CG2        4.3260   15.3180    2.8270 C.3   243  ILE243      0.0019
     84  CD1        4.9910   12.2020    2.7820 C.3   243  ILE243      0.0001
     85  N          6.3030    4.3580    0.7100 N.3   282  VAL282     -0.1245
     86  CA         7.5750    5.0870    0.6940 C.3   282  VAL282      0.1561
     87  C          8.7740    4.2440    0.2420 C.2   282  VAL282      0.2260
     88  O          9.8060    4.7960   -0.1530 O.2   282  VAL282     -0.2867
     89  CB         7.8640    5.7540    2.0810 C.3   282  VAL282      0.0252
     90  CG1        8.2620    4.7120    3.1190 C.3   282  VAL282      0.0019
     91  CG2        8.9470    6.8210    1.9530 C.3   282  VAL282      0.0019
     92  N         10.9470    4.9740   -3.0000 N.3   285  ASP285     -0.1225
     93  CA        11.9020    6.0700   -2.8350 C.3   285  ASP285      0.1805
     94  C         13.0450    5.7150   -1.8770 C.2   285  ASP285      0.2597
     95  O         14.2170    5.8390   -2.2270 O.2   285  ASP285     -0.2718
     96  CB        11.1720    7.2990   -2.2970 C.3   285  ASP285      0.1424
     97  CG        12.0400    8.5380   -2.2990 C.2   285  ASP285      0.3668
     98  OD1       12.4930    8.9590   -1.2080 O.co2 285  ASP285     -0.2456
     99  OD2       12.2880    9.0790   -3.3930 O.co2 285  ASP285     -0.2456
    100  N         12.6920    5.2870   -0.6650 N.am  286  ALA286     -0.1979
    101  CA        13.6540    5.1530    0.4420 C.3   286  ALA286      0.1597
    102  C         14.6550    3.9990    0.2850 C.2   286  ALA286      0.2287
    103  O         15.8130    4.1130    0.6950 O.2   286  ALA286     -0.2864
    104  CB        12.9080    5.0250    1.7740 C.3   286  ALA286      0.0319
    105  N         16.8060    6.0530   -4.3920 N.3   290  HIS290     -0.1241
    106  CA        18.0260    6.7520   -3.9860 C.3   290  HIS290      0.1621
    107  C         19.2450    5.8340   -4.0230 C.2   290  HIS290      0.2264
    108  O         20.3550    6.2820   -4.3300 O.2   290  HIS290     -0.2867
    109  CB        17.8790    7.3740   -2.5880 C.3   290  HIS290      0.0745
    110  CG        16.9680    8.5670   -2.5420 C.ar  290  HIS290      0.0817
    111  ND1       17.2790    9.7680   -3.1440 N.ar  290  HIS290     -0.2268
    112  CD2       15.7550    8.7410   -1.9630 C.ar  290  HIS290      0.1154
    113  CE1       16.3030   10.6350   -2.9320 C.ar  290  HIS290      0.1986
    114  NE2       15.3600   10.0340   -2.2250 N.ar  290  HIS290     -0.2212
    115  N          6.7990   12.5520   -7.6270 N.3   327  HIS327     -0.1241
    116  CA         7.9810   12.9320   -8.4250 C.3   327  HIS327      0.1621
    117  C          8.5450   11.6290   -8.9840 C.2   327  HIS327      0.2264
    118  O          7.9350   10.5750   -8.8060 O.2   327  HIS327     -0.2867
    119  CB         9.0530   13.6570   -7.5920 C.3   327  HIS327      0.0745
    120  CG         9.4250   12.9340   -6.3370 C.ar  327  HIS327      0.0817
    121  ND1       10.4190   11.9800   -6.2940 N.ar  327  HIS327     -0.2268
    122  CD2        8.9110   13.0020   -5.0860 C.ar  327  HIS327      0.1154
    123  CE1       10.4980   11.4880   -5.0690 C.ar  327  HIS327      0.1986
    124  NE2        9.6000   12.0960   -4.3150 N.ar  327  HIS327     -0.2212
    125  N         16.2830   12.8620   -6.7380 N.3   338  HIS338     -0.1241
    126  CA        15.0590   12.5880   -7.4620 C.3   338  HIS338      0.1621
    127  C         15.1930   13.0340   -8.9050 C.2   338  HIS338      0.2264
    128  O         16.1520   13.7230   -9.2670 O.2   338  HIS338     -0.2867
    129  CB        13.9050   13.3750   -6.8450 C.3   338  HIS338      0.0745
    130  CG        13.6270   13.0360   -5.4150 C.ar  338  HIS338      0.0817
    131  ND1       13.1210   13.9590   -4.5260 N.ar  338  HIS338     -0.2268
    132  CD2       13.7820   11.8860   -4.7180 C.ar  338  HIS338      0.1154
    133  CE1       12.9730   13.3880   -3.3420 C.ar  338  HIS338      0.1986
    134  NE2       13.3680   12.1320   -3.4310 N.ar  338  HIS338     -0.2212
@<TRIPOS>BOND
     1   128   127    2
     2   117   118    2
     3   117   116    1
     4   127   126    1
     5   116   115    1
     6   116   119    1
     7   119   120    1
     8   126   129    1
     9   126   125    1
    10   129   130    1
    11   120   121   ar
    12   120   122   ar
    13   121   123   ar
    14   130   132   ar
    15   130   131   ar
    16   122   124   ar
    17   123   124   ar
    18     4     3    2
    19     3     2    1
    20   132   134   ar
    21     9    10    1
    22   131   133   ar
    23   105   106    1
    24   108   107    2
    25   107   106    1
    26   106   109    1
    27     1     2    1
    28     2     5    1
    29    12    11    2
    30    10    11    1
    31    10    13    1
    32   134   133   ar
    33    99    97   ar
    34   111   113   ar
    35   111   110   ar
    36    92    93    1
    37    11    17   am
    38   113   114   ar
    39    93    96    1
    40    93    94    1
    41    15    14   ar
    42     7     6   ar
    43   109   110    1
    44   110   112   ar
    45    13    14    1
    46     5     6    1
    47    97    96    1
    48    97    98   ar
    49    95    94    2
    50   114   112   ar
    51    14    16   ar
    52     6     8   ar
    53    17    18    1
    54    94   100   am
    55    18    19    1
    56    18    21    1
    57    20    19    2
    58    22    21    1
    59    19    24   am
    60   100   101    1
    61    39    37   ar
    62    26    27    2
    63    26    25    1
    64    21    23    1
    65    88    87    2
    66    24    25    1
    67    87    86    1
    68   102   101    1
    69   102   103    2
    70   101   104    1
    71    37    38   ar
    72    37    36    1
    73    25    28    1
    74    32    33    1
    75    33    34    1
    76    33    36    1
    77    86    85    1
    78    86    89    1
    79    34    40   am
    80    34    35    2
    81    28    29    1
    82    40    41    1
    83    44    45    1
    84    44    41    1
    85    91    89    1
    86    89    90    1
    87    41    42    1
    88    84    82    1
    89    83    81    1
    90    29    30    1
    91    42    43    2
    92    82    81    1
    93    30    31    1
    94    81    78    1
    95    56    54    1
    96    80    79    2
    97    72    73    1
    98    72    69    1
    99    78    79    1
   100    78    77    1
   101    73    74    1
   102    54    53    2
   103    54    55    1
   104    70    71    2
   105    70    69    1
   106    68    69    1
   107    53    52    1
   108    46    47    1
   109    74    75    1
   110    75    76    1
   111    52    51    1
   112    51    50    1
   113    50    47    1
   114    47    48    1
   115    49    48    2
   116    66    65    1
   117    67    65    1
   118    65    64    2
   119    64    63    1
   120    63    62    1
   121    62    61    1
   122    61    58    1
   123    59    58    1
   124    59    60    2
   125    58    57    1
