@<TRIPOS>MOLECULE
tmp/3m8zA00.pdb
 123 111 0 0 0
SMALL
GASTEIGER

@<TRIPOS>ATOM
      1  N         25.9930   10.3400    4.7390 N.3   129  ALA129     -0.1231
      2  CA        26.4400    9.1140    5.3840 C.3   129  ALA129      0.1694
      3  C         25.2330    8.3380    5.8700 C.2   129  ALA129      0.2593
      4  O         24.1810    8.9170    6.1600 O.2   129  ALA129     -0.2718
      5  CB        27.3620    9.4330    6.5670 C.3   129  ALA129      0.0304
      6  N         25.3930    7.0210    5.9530 N.am  130  SER130     -0.1938
      7  CA        24.4520    6.1790    6.6670 C.3   130  SER130      0.2055
      8  C         24.5080    6.5500    8.1510 C.2   130  SER130      0.2643
      9  O         25.5860    6.8040    8.6990 O.2   130  SER130     -0.2714
     10  CB        24.8150    4.7050    6.4690 C.3   130  SER130      0.2130
     11  OG        24.4720    3.9350    7.6070 O.3   130  SER130     -0.2179
     12  N         23.3450    6.5710    8.7930 N.am  131  GLY131     -0.1954
     13  CA        23.2470    6.9290   10.2040 C.3   131  GLY131      0.1869
     14  C         23.9460    5.9630   11.1430 C.2   131  GLY131      0.2309
     15  O         24.3700    6.3550   12.2290 O.2   131  GLY131     -0.2863
     16  N         25.0110   15.2350    9.8870 N.3   151  TYR151     -0.1241
     17  CA        25.1220   14.5460    8.6160 C.3   151  TYR151      0.1605
     18  C         23.8320   14.6750    7.8060 C.2   151  TYR151      0.2264
     19  O         22.8270   15.2240    8.2730 O.2   151  TYR151     -0.2867
     20  CB        25.5500   13.0800    8.8230 C.3   151  TYR151      0.0534
     21  CG        24.5180   12.2030    9.4890 C.ar  151  TYR151     -0.0201
     22  CD1       23.7380   11.3290    8.7350 C.ar  151  TYR151     -0.0009
     23  CD2       24.3220   12.2400   10.8720 C.ar  151  TYR151     -0.0009
     24  CE1       22.7900   10.5180    9.3340 C.ar  151  TYR151      0.0417
     25  CE2       23.3650   11.4320   11.4860 C.ar  151  TYR151      0.0417
     26  CZ        22.6040   10.5740   10.7030 C.ar  151  TYR151      0.1957
     27  OH        21.6610    9.7680   11.2830 O.3   151  TYR151     -0.2866
     28  N         21.5360   12.7830    4.1610 N.3   153  SER153     -0.1217
     29  CA        21.3140   11.5910    3.3540 C.3   153  SER153      0.1889
     30  C         21.1450   12.0370    1.9010 C.2   153  SER153      0.2288
     31  O         21.6010   13.1250    1.5380 O.2   153  SER153     -0.2866
     32  CB        20.0980   10.8200    3.8700 C.3   153  SER153      0.2089
     33  OG        18.9170   11.5980    3.7800 O.3   153  SER153     -0.2183
     34  N         18.2710   12.7210    0.6100 N.3   155  ASP155     -0.1239
     35  CA        17.1000   13.6060    0.6630 C.3   155  ASP155      0.1674
     36  C         17.4370   14.9420    1.3460 C.2   155  ASP155      0.2266
     37  O         18.5900   15.1800    1.7140 O.2   155  ASP155     -0.2867
     38  CB        15.9440   12.9120    1.3960 C.3   155  ASP155      0.1410
     39  CG        15.0530   12.0950    0.4650 C.2   155  ASP155      0.3668
     40  OD1       14.6480   10.9800    0.8600 O.co2 155  ASP155     -0.2456
     41  OD2       14.7470   12.5670   -0.6530 O.co2 155  ASP155     -0.2456
     42  N         17.5090   16.5570    4.3190 N.3   157  VAL157     -0.1245
     43  CA        17.5150   16.3760    5.7660 C.3   157  VAL157      0.1561
     44  C         18.8080   16.8800    6.3950 C.2   157  VAL157      0.2260
     45  O         19.8680   16.8830    5.7650 O.2   157  VAL157     -0.2867
     46  CB        17.2820   14.8920    6.1940 C.3   157  VAL157      0.0252
     47  CG1       15.9130   14.4020    5.7490 C.3   157  VAL157      0.0019
     48  CG2       18.3910   13.9850    5.6620 C.3   157  VAL157      0.0019
     49  N         20.6090   15.9000    9.9870 N.3   159  GLN159     -0.1245
     50  CA        20.4770   14.9680   11.1020 C.3   159  GLN159      0.1566
     51  C         21.5730   15.2440   12.1150 C.2   159  GLN159      0.2260
     52  O         22.7370   15.4400   11.7410 O.2   159  GLN159     -0.2867
     53  CB        20.5400   13.5180   10.6150 C.3   159  GLN159      0.0367
     54  CG        19.8090   13.2850    9.2860 C.3   159  GLN159      0.0905
     55  CD        19.4080   11.8440    9.0840 C.2   159  GLN159      0.2608
     56  OE1       18.7480   11.2520    9.9320 O.2   159  GLN159     -0.2717
     57  NE2       19.7960   11.2710    7.9510 N.am  159  GLN159     -0.0878
     58  N         13.7270   18.6320    6.5100 N.3   192  ARG192     -0.1245
     59  CA        13.5530   18.0840    7.8560 C.3   192  ARG192      0.1563
     60  C         14.8240   18.2010    8.6750 C.2   192  ARG192      0.2260
     61  O         15.9210   18.0120    8.1540 O.2   192  ARG192     -0.2867
     62  CB        13.2100   16.5980    7.7880 C.3   192  ARG192      0.0307
     63  CG        11.8080   16.2700    7.3540 C.3   192  ARG192      0.0489
     64  CD        11.6790   14.7700    7.1940 C.3   192  ARG192      0.2205
     65  NE        12.3850   14.2760    6.0140 N.pl3 192  ARG192     -0.0865
     66  CZ        12.6740   12.9960    5.8130 C.cat 192  ARG192      0.5346
     67  NH1       12.3350   12.0970    6.7250 N.pl3 192  ARG192      0.1354
     68  NH2       13.3150   12.6190    4.7150 N.pl3 192  ARG192      0.1354
     69  N         16.3810   16.2410   12.0080 N.3   194  ILE194     -0.1245
     70  CA        16.0910   15.0220   12.7730 C.3   194  ILE194      0.1561
     71  C         17.0950   14.8320   13.9060 C.2   194  ILE194      0.2260
     72  O         18.3000   14.8300   13.6730 O.2   194  ILE194     -0.2867
     73  CB        16.0860   13.7570   11.8750 C.3   194  ILE194      0.0252
     74  CG1       15.1310   13.9320   10.6810 C.3   194  ILE194      0.0019
     75  CG2       15.7260   12.5090   12.6980 C.3   194  ILE194      0.0019
     76  CD1       15.2400   12.8270    9.6140 C.3   194  ILE194      0.0001
     77  N         18.9320   12.4070   16.3450 N.3   196  ARG196     -0.1245
     78  CA        19.3000   10.9890   16.3250 C.3   196  ARG196      0.1563
     79  C         20.0880   10.6290   17.5770 C.2   196  ARG196      0.2260
     80  O         21.2940   10.4190   17.4980 O.2   196  ARG196     -0.2867
     81  CB        20.1440   10.6600   15.0850 C.3   196  ARG196      0.0307
     82  CG        19.4350   10.8560   13.7490 C.3   196  ARG196      0.0489
     83  CD        18.4680    9.7180   13.4720 C.3   196  ARG196      0.2205
     84  NE        17.9550    9.7720   12.1030 N.pl3 196  ARG196     -0.0865
     85  CZ        17.2450    8.8090   11.5230 C.cat 196  ARG196      0.5346
     86  NH1       16.9410    7.6940   12.1830 N.pl3 196  ARG196      0.1354
     87  NH2       16.8320    8.9640   10.2720 N.pl3 196  ARG196      0.1354
     88  N         20.9640    3.3420   18.0230 N.3   207  ARG207     -0.1245
     89  CA        20.1200    4.5290   17.9500 C.3   207  ARG207      0.1563
     90  C         18.8110    4.2630   18.6760 C.2   207  ARG207      0.2260
     91  O         18.2000    3.2050   18.5080 O.2   207  ARG207     -0.2867
     92  CB        19.8780    4.9150   16.4960 C.3   207  ARG207      0.0307
     93  CG        21.1790    5.0560   15.7290 C.3   207  ARG207      0.0489
     94  CD        21.0040    5.8440   14.4790 C.3   207  ARG207      0.2205
     95  NE        20.2870    5.0950   13.4520 N.pl3 207  ARG207     -0.0865
     96  CZ        19.9980    5.5990   12.2600 C.cat 207  ARG207      0.5346
     97  NH1       20.3760    6.8370   11.9710 N.pl3 207  ARG207      0.1354
     98  NH2       19.3400    4.8780   11.3630 N.pl3 207  ARG207      0.1354
     99  N         14.3840    9.3800   18.8320 N.3   211  ARG211     -0.1245
    100  CA        14.3980   10.1610   17.6000 C.3   211  ARG211      0.1563
    101  C         13.1850   11.1030   17.5280 C.2   211  ARG211      0.2260
    102  O         12.0610   10.7080   17.8510 O.2   211  ARG211     -0.2867
    103  CB        14.4000    9.2120   16.3970 C.3   211  ARG211      0.0307
    104  CG        14.1960    9.8890   15.0480 C.3   211  ARG211      0.0489
    105  CD        13.9220    8.8810   13.9640 C.3   211  ARG211      0.2205
    106  NE        13.3300    9.5310   12.8020 N.pl3 211  ARG211     -0.0865
    107  CZ        13.1710    8.9530   11.6190 C.cat 211  ARG211      0.5346
    108  NH1       12.6240    9.6410   10.6260 N.pl3 211  ARG211      0.1354
    109  NH2       13.5560    7.6970   11.4250 N.pl3 211  ARG211      0.1354
    110  N          3.9720    7.8380    5.9330 N.3   239  LYS239     -0.1245
    111  CA         4.6830    9.1130    6.1140 C.3   239  LYS239      0.1561
    112  C          3.8000   10.3440    5.9000 C.2   239  LYS239      0.2260
    113  O          4.2510   11.4690    6.1100 O.2   239  LYS239     -0.2867
    114  CB         5.9030    9.1910    5.1730 C.3   239  LYS239      0.0271
    115  CG         6.9810    8.1200    5.4220 C.3   239  LYS239      0.0035
    116  CD         7.6290    8.2500    6.7970 C.3   239  LYS239      0.0206
    117  CE         8.7130    7.1930    7.0120 C.3   239  LYS239      0.1093
    118  NZ         9.1570    7.1600    8.4410 N.3   239  LYS239     -0.1314
    119  N         12.6920    5.2870   -0.6650 N.3   286  ALA286     -0.1245
    120  CA        13.6540    5.1530    0.4420 C.3   286  ALA286      0.1562
    121  C         14.6550    3.9990    0.2850 C.2   286  ALA286      0.2260
    122  O         15.8130    4.1130    0.6950 O.2   286  ALA286     -0.2867
    123  CB        12.9080    5.0250    1.7740 C.3   286  ALA286      0.0290
@<TRIPOS>BOND
     1   119   120    1
     2    41    39   ar
     3   121   120    1
     4   121   122    2
     5   120   123    1
     6    39    40   ar
     7    39    38    1
     8    34    35    1
     9    35    36    1
    10    35    38    1
    11    36    37    2
    12    31    30    2
    13    30    29    1
    14    29    32    1
    15    29    28    1
    16    33    32    1
    17    42    43    1
    18    68    66    1
    19     1     2    1
    20   114   115    1
    21   114   111    1
    22     2     3    1
    23     2     5    1
    24   115   116    1
    25    48    46    1
    26    47    46    1
    27    45    44    2
    28    43    46    1
    29    43    44    1
    30    66    65    2
    31    66    67    1
    32     3     6   am
    33     3     4    2
    34   112   113    2
    35   112   111    1
    36   110   111    1
    37     6     7    1
    38    65    64    1
    39    10     7    1
    40    10    11    1
    41    58    59    1
    42     7     8    1
    43   116   117    1
    44   117   118    1
    45    64    63    1
    46    63    62    1
    47    62    59    1
    48    18    19    2
    49    18    17    1
    50    59    60    1
    51    57    55   am
    52     8     9    2
    53     8    12   am
    54    61    60    2
    55    17    20    1
    56    17    16    1
    57    22    24   ar
    58    22    21   ar
    59    12    13    1
    60    20    21    1
    61    55    54    1
    62    55    56    2
    63    54    53    1
    64    24    26   ar
    65    21    23   ar
    66    76    74    1
    67    49    50    1
    68    13    14    1
    69    87    85    1
    70    53    50    1
    71   108   107    1
    72    74    73    1
    73    26    27    1
    74    26    25   ar
    75    23    25   ar
    76    50    51    1
    77    14    15    2
    78    98    96    1
    79   109   107    1
    80    85    84    2
    81    85    86    1
    82   107   106    2
    83    52    51    2
    84    73    75    1
    85    73    70    1
    86    97    96    1
    87    69    70    1
    88    84    83    1
    89    96    95    2
    90    70    71    1
    91   106   105    1
    92    95    94    1
    93    83    82    1
    94    72    71    2
    95    82    81    1
    96   105   104    1
    97    94    93    1
    98   104   103    1
    99    81    78    1
   100    93    92    1
   101    78    77    1
   102    78    79    1
   103   103   100    1
   104    92    89    1
   105    80    79    2
   106   101   100    1
   107   101   102    2
   108   100    99    1
   109    89    88    1
   110    89    90    1
   111    91    90    2
