@<TRIPOS>MOLECULE
tmp/3m93A00.pdb
 134 133 0 0 0
SMALL
GASTEIGER

@<TRIPOS>ATOM
      1  N          1.6610  -14.7480  -41.1930 N.3    22  TRP22      -0.1227
      2  CA         1.7560  -15.1810  -39.8000 C.3    22  TRP22       0.1737
      3  C          2.9830  -16.0530  -39.4770 C.2    22  TRP22       0.2595
      4  O          3.8420  -15.6530  -38.6790 O.2    22  TRP22      -0.2718
      5  CB         0.4600  -15.8640  -39.3700 C.3    22  TRP22       0.0564
      6  CG         0.3600  -16.0640  -37.8880 C.ar   22  TRP22       0.0003
      7  CD1       -0.0350  -15.1400  -36.9580 C.ar   22  TRP22       0.0946
      8  CD2        0.6620  -17.2620  -37.1600 C.ar   22  TRP22       0.0152
      9  NE1       -0.0090  -15.6900  -35.7000 N.ar   22  TRP22      -0.2442
     10  CE2        0.4190  -16.9900  -35.7900 C.ar   22  TRP22       0.0810
     11  CE3        1.1130  -18.5420  -37.5300 C.ar   22  TRP22       0.0012
     12  CZ2        0.6110  -17.9520  -34.7870 C.ar   22  TRP22       0.0191
     13  CZ3        1.3000  -19.4990  -36.5310 C.ar   22  TRP22       0.0001
     14  CH2        1.0450  -19.1970  -35.1770 C.ar   22  TRP22       0.0015
     15  N          3.0530  -17.2260  -40.1100 N.am   23  GLU23      -0.1979
     16  CA         4.0900  -18.2370  -39.8640 C.3    23  GLU23       0.1602
     17  C          5.5480  -17.7560  -39.8540 C.2    23  GLU23       0.2287
     18  O          6.3890  -18.3300  -39.1550 O.2    23  GLU23      -0.2864
     19  CB         3.9620  -19.3700  -40.8780 C.3    23  GLU23       0.0415
     20  CG         3.1310  -20.5410  -40.3960 C.3    23  GLU23       0.1163
     21  CD         3.7510  -21.8920  -40.7550 C.2    23  GLU23       0.3649
     22  OE1        3.0000  -22.7920  -41.1980 O.co2  23  GLU23      -0.2457
     23  OE2        4.9860  -22.0520  -40.5900 O.co2  23  GLU23      -0.2457
     24  N          3.1130  -12.3220  -29.0630 N.3    56  ASP56      -0.1239
     25  CA         2.9170  -13.5330  -28.2180 C.3    56  ASP56       0.1674
     26  C          4.2150  -14.1170  -27.6570 C.2    56  ASP56       0.2266
     27  O          5.2930  -13.8380  -28.1600 O.2    56  ASP56      -0.2867
     28  CB         2.2290  -14.6480  -29.0120 C.3    56  ASP56       0.1410
     29  CG         1.0550  -14.1510  -29.8120 C.2    56  ASP56       0.3668
     30  OD1        1.0100  -14.3940  -31.0470 O.co2  56  ASP56      -0.2456
     31  OD2        0.1810  -13.5010  -29.1970 O.co2  56  ASP56      -0.2456
     32  N          5.0190  -18.2950  -26.8420 N.3    58  TYR58      -0.1241
     33  CA         4.5660  -19.6680  -26.7250 C.3    58  TYR58       0.1605
     34  C          5.6390  -20.4590  -26.0260 C.2    58  TYR58       0.2264
     35  O          6.8240  -20.1800  -26.1990 O.2    58  TYR58      -0.2867
     36  CB         4.3080  -20.2850  -28.0900 C.3    58  TYR58       0.0534
     37  CG         3.5510  -19.4150  -29.0550 C.ar   58  TYR58      -0.0201
     38  CD1        2.2170  -19.6570  -29.3340 C.ar   58  TYR58      -0.0009
     39  CD2        4.1810  -18.3580  -29.7200 C.ar   58  TYR58      -0.0009
     40  CE1        1.5080  -18.8560  -30.2590 C.ar   58  TYR58       0.0417
     41  CE2        3.4940  -17.5580  -30.6430 C.ar   58  TYR58       0.0417
     42  CZ         2.1560  -17.8090  -30.9130 C.ar   58  TYR58       0.1957
     43  OH         1.4630  -17.0160  -31.8210 O.3    58  TYR58      -0.2866
     44  N          3.8860  -24.3280  -32.4140 N.3    66  PRO66      -0.2102
     45  CA         2.7250  -23.8210  -31.6570 C.3    66  PRO66       0.1504
     46  C          1.6270  -23.2290  -32.5350 C.2    66  PRO66       0.2576
     47  O          1.3030  -22.0480  -32.4010 O.2    66  PRO66      -0.2718
     48  CB         3.3290  -22.7410  -30.7540 C.3    66  PRO66       0.0282
     49  CG         4.5120  -22.2500  -31.5050 C.3    66  PRO66       0.0208
     50  CD         5.0360  -23.4140  -32.3270 C.3    66  PRO66       0.0893
     51  N          1.0640  -24.0560  -33.4180 N.am   67  MET67      -0.1966
     52  CA        -0.0480  -23.6520  -34.2720 C.3    67  MET67       0.1736
     53  C         -1.1140  -24.7350  -34.3700 C.2    67  MET67       0.2616
     54  O         -0.8900  -25.8750  -33.9550 O.2    67  MET67      -0.2715
     55  CB         0.4440  -23.2300  -35.6540 C.3    67  MET67       0.0427
     56  CG         1.3920  -24.2020  -36.3230 C.3    67  MET67       0.0599
     57  SD         2.1890  -23.4370  -37.7610 S.3    67  MET67      -0.1393
     58  CE         2.9730  -24.8880  -38.4900 C.3    67  MET67       0.0692
     59  N         -2.2750  -24.3570  -34.9050 N.am   68  TRP68      -0.1960
     60  CA        -3.4320  -25.2450  -35.0020 C.3    68  TRP68       0.1771
     61  C         -3.1620  -26.4090  -35.9230 C.2    68  TRP68       0.2619
     62  O         -3.4530  -27.5510  -35.5760 O.2    68  TRP68      -0.2715
     63  CB        -4.6470  -24.5050  -35.5510 C.3    68  TRP68       0.0590
     64  CG        -4.9880  -23.2350  -34.8460 C.ar   68  TRP68       0.0006
     65  CD1       -4.9650  -22.9990  -33.4880 C.ar   68  TRP68       0.0946
     66  CD2       -5.4580  -22.0260  -35.4550 C.ar   68  TRP68       0.0152
     67  NE1       -5.3730  -21.7080  -33.2250 N.ar   68  TRP68      -0.2442
     68  CE2       -5.6810  -21.0880  -34.4110 C.ar   68  TRP68       0.0810
     69  CE3       -5.7100  -21.6400  -36.7780 C.ar   68  TRP68       0.0012
     70  CZ2       -6.1370  -19.7870  -34.6550 C.ar   68  TRP68       0.0191
     71  CZ3       -6.1600  -20.3440  -37.0170 C.ar   68  TRP68       0.0001
     72  CH2       -6.3710  -19.4340  -35.9580 C.ar   68  TRP68       0.0015
     73  N         -2.6110  -26.1040  -37.0990 N.am   69  GLU69      -0.1977
     74  CA        -2.4250  -27.0840  -38.1720 C.3    69  GLU69       0.1602
     75  C         -1.5240  -28.2320  -37.7580 C.2    69  GLU69       0.2287
     76  O         -1.6190  -29.3180  -38.3200 O.2    69  GLU69      -0.2864
     77  CB        -1.8620  -26.4310  -39.4470 C.3    69  GLU69       0.0415
     78  CG        -2.7730  -25.3940  -40.1210 C.3    69  GLU69       0.1163
     79  CD        -2.6810  -24.0110  -39.4830 C.2    69  GLU69       0.3649
     80  OE1       -1.6560  -23.7170  -38.8220 O.co2  69  GLU69      -0.2457
     81  OE2       -3.6380  -23.2210  -39.6460 O.co2  69  GLU69      -0.2457
     82  N         -8.0550  -25.5510  -26.0420 N.3    78  ARG78      -0.1245
     83  CA        -7.2980  -24.7500  -25.0880 C.3    78  ARG78       0.1563
     84  C         -8.1400  -24.2610  -23.9120 C.2    78  ARG78       0.2260
     85  O         -9.3710  -24.1840  -23.9940 O.2    78  ARG78      -0.2867
     86  CB        -6.6700  -23.5470  -25.7810 C.3    78  ARG78       0.0307
     87  CG        -7.6800  -22.4980  -26.1620 C.3    78  ARG78       0.0489
     88  CD        -7.0500  -21.3370  -26.8790 C.3    78  ARG78       0.2205
     89  NE        -7.8820  -20.1500  -26.7270 N.pl3  78  ARG78      -0.0865
     90  CZ        -7.9040  -19.1160  -27.5640 C.cat  78  ARG78       0.5346
     91  NH1       -8.7040  -18.0970  -27.3090 N.pl3  78  ARG78       0.1354
     92  NH2       -7.1480  -19.0920  -28.6550 N.pl3  78  ARG78       0.1354
     93  N         -1.1520  -13.9770  -25.1930 N.3   121  ASN121     -0.1240
     94  CA        -1.4400  -13.0020  -26.2440 C.3   121  ASN121      0.1653
     95  C         -1.5260  -11.5940  -25.6670 C.2   121  ASN121      0.2266
     96  O         -2.3970  -11.3110  -24.8430 O.2   121  ASN121     -0.2867
     97  CB        -2.7370  -13.3460  -26.9910 C.3   121  ASN121      0.1155
     98  CG        -2.7370  -14.7570  -27.5870 C.2   121  ASN121      0.2627
     99  OD1       -3.7060  -15.4970  -27.4310 O.2   121  ASN121     -0.2716
    100  ND2       -1.6690  -15.1210  -28.2880 N.am  121  ASN121     -0.0877
    101  N         -2.6470   -8.0210  -26.1180 N.3   123  ARG123     -0.1245
    102  CA        -3.6370   -7.3300  -26.9550 C.3   123  ARG123      0.1563
    103  C         -4.2430   -6.0760  -26.2770 C.2   123  ARG123      0.2260
    104  O         -4.0930   -5.8680  -25.0520 O.2   123  ARG123     -0.2867
    105  CB        -4.7410   -8.2990  -27.4110 C.3   123  ARG123      0.0307
    106  CG        -4.8260   -8.5080  -28.9170 C.3   123  ARG123      0.0489
    107  CD        -4.4160   -9.9140  -29.3700 C.3   123  ARG123      0.2205
    108  NE        -2.9690  -10.1380  -29.3000 N.pl3 123  ARG123     -0.0865
    109  CZ        -2.3080  -11.0800  -29.9700 C.cat 123  ARG123      0.5346
    110  NH1       -1.0010  -11.1900  -29.8130 N.pl3 123  ARG123      0.1354
    111  NH2       -2.9400  -11.9060  -30.7940 N.pl3 123  ARG123      0.1354
    112  N         -4.6990  -12.3040  -23.1680 N.3   128  LYS128     -0.1245
    113  CA        -5.2070  -13.6710  -23.0390 C.3   128  LYS128      0.1561
    114  C         -4.0980  -14.5830  -22.5830 C.2   128  LYS128      0.2260
    115  O         -2.9590  -14.3860  -22.9630 O.2   128  LYS128     -0.2867
    116  CB        -5.7640  -14.1660  -24.3750 C.3   128  LYS128      0.0271
    117  CG        -7.0070  -13.4160  -24.8200 C.3   128  LYS128      0.0035
    118  CD        -7.6630  -14.0500  -26.0250 C.3   128  LYS128      0.0206
    119  CE        -7.1750  -13.4470  -27.3410 C.3   128  LYS128      0.1093
    120  NZ        -8.0570  -13.8420  -28.4830 N.3   128  LYS128     -0.1314
    121  N         -2.8420  -24.9400  -24.1570 N.3   132  TRP132     -0.1241
    122  CA        -3.2370  -25.8030  -25.2500 C.3   132  TRP132      0.1605
    123  C         -3.1340  -27.2950  -24.8930 C.2   132  TRP132      0.2264
    124  O         -2.1170  -27.7580  -24.3730 O.2   132  TRP132     -0.2867
    125  CB        -2.3760  -25.5050  -26.4760 C.3   132  TRP132      0.0550
    126  CG        -2.7130  -24.2500  -27.2200 C.ar  132  TRP132      0.0003
    127  CD1       -3.2670  -23.1030  -26.7160 C.ar  132  TRP132      0.0946
    128  CD2       -2.4680  -23.9990  -28.6000 C.ar  132  TRP132      0.0152
    129  NE1       -3.3980  -22.1610  -27.7060 N.ar  132  TRP132     -0.2442
    130  CE2       -2.9170  -22.6840  -28.8740 C.ar  132  TRP132      0.0810
    131  CE3       -1.9240  -24.7600  -29.6410 C.ar  132  TRP132      0.0012
    132  CZ2       -2.8390  -22.1130  -30.1480 C.ar  132  TRP132      0.0191
    133  CZ3       -1.8500  -24.1910  -30.9200 C.ar  132  TRP132      0.0001
    134  CH2       -2.3060  -22.8770  -31.1560 C.ar  132  TRP132      0.0015
@<TRIPOS>BOND
     1    22    21   ar
     2     1     2    1
     3    19    20    1
     4    19    16    1
     5    21    23   ar
     6    21    20    1
     7    78    79    1
     8    78    77    1
     9    15    16    1
    10    15     3   am
    11    16    17    1
    12    17    18    2
    13     2     3    1
    14     2     5    1
    15    81    79   ar
    16    79    80   ar
    17     3     4    2
    18    77    74    1
    19     5     6    1
    20    58    57    1
    21    76    75    2
    22    74    75    1
    23    74    73    1
    24     6     8   ar
    25     6     7   ar
    26    57    56    1
    27    11     8   ar
    28    11    13   ar
    29     8    10   ar
    30    73    61   am
    31    71    69   ar
    32    71    72   ar
    33     7     9   ar
    34    69    66   ar
    35    13    14   ar
    36    56    55    1
    37    72    70   ar
    38    61    62    2
    39    61    60    1
    40    10     9   ar
    41    10    12   ar
    42    55    52    1
    43    63    60    1
    44    63    64    1
    45    66    64   ar
    46    66    68   ar
    47    14    12   ar
    48    60    59    1
    49    59    53   am
    50    64    65   ar
    51    70    68   ar
    52    68    67   ar
    53    53    52    1
    54    53    54    2
    55    52    51    1
    56    65    67   ar
    57    51    46   am
    58    46    47    2
    59    46    45    1
    60    44    50    1
    61    44    45    1
    62    50    49    1
    63    43    42    1
    64    45    48    1
    65    49    48    1
    66   134   133   ar
    67   134   132   ar
    68    30    29   ar
    69   133   131   ar
    70    42    41   ar
    71    42    40   ar
    72   111   109    1
    73    41    39   ar
    74    40    38   ar
    75   132   130   ar
    76   109   110    1
    77   109   108    2
    78    29    31   ar
    79    29    28    1
    80    39    37   ar
    81   131   128   ar
    82   107   108    1
    83   107   106    1
    84    38    37   ar
    85    24    25    1
    86    37    36    1
    87    28    25    1
    88   106   105    1
    89   130   128   ar
    90   130   129   ar
    91    92    90    1
    92   128   126   ar
    93   120   119    1
    94   100    98   am
    95    25    26    1
    96    27    26    2
    97    36    33    1
    98   129   127   ar
    99    98    99    2
   100    98    97    1
   101    90    91    1
   102    90    89    2
   103   105   102    1
   104   119   118    1
   105   126   127   ar
   106   126   125    1
   107    97    94    1
   108   102   103    1
   109   102   101    1
   110    88    89    1
   111    88    87    1
   112    32    33    1
   113    33    34    1
   114   125   122    1
   115   103   104    2
   116    94    95    1
   117    94    93    1
   118    35    34    2
   119    87    86    1
   120    82    83    1
   121   118   117    1
   122    86    83    1
   123    95    96    2
   124   122   123    1
   125   122   121    1
   126    83    84    1
   127   123   124    2
   128   117   116    1
   129   116   113    1
   130    85    84    2
   131   112   113    1
   132   113   114    1
   133   115   114    2
