@<TRIPOS>MOLECULE
tmp/3m94A00.pdb
 134 133 0 0 0
SMALL
GASTEIGER

@<TRIPOS>ATOM
      1  N         -1.6670   14.4320   -5.0040 N.3    22  TRP22      -0.1227
      2  CA        -1.6810   14.8140   -3.5900 C.3    22  TRP22       0.1737
      3  C         -2.8090   15.7930   -3.2810 C.2    22  TRP22       0.2595
      4  O         -3.5980   15.5760   -2.3540 O.2    22  TRP22      -0.2718
      5  CB        -0.3330   15.4120   -3.1600 C.3    22  TRP22       0.0564
      6  CG        -0.2960   15.7690   -1.6920 C.ar   22  TRP22       0.0003
      7  CD1        0.1120   14.9680   -0.6660 C.ar   22  TRP22       0.0946
      8  CD2       -0.7070   17.0090   -1.0930 C.ar   22  TRP22       0.0152
      9  NE1       -0.0090   15.6330    0.5360 N.ar   22  TRP22      -0.2442
     10  CE2       -0.5090   16.8850    0.3030 C.ar   22  TRP22       0.0810
     11  CE3       -1.2160   18.2130   -1.5990 C.ar   22  TRP22       0.0012
     12  CZ2       -0.8060   17.9200    1.2000 C.ar   22  TRP22       0.0191
     13  CZ3       -1.5170   19.2410   -0.7070 C.ar   22  TRP22       0.0001
     14  CH2       -1.3060   19.0860    0.6790 C.ar   22  TRP22       0.0015
     15  N         -2.8800   16.8600   -4.0740 N.am   23  GLU23      -0.1979
     16  CA        -3.8380   17.9400   -3.8600 C.3    23  GLU23       0.1602
     17  C         -5.3050   17.4950   -3.9780 C.2    23  GLU23       0.2287
     18  O         -6.1930   18.1280   -3.4010 O.2    23  GLU23      -0.2864
     19  CB        -3.5340   19.1090   -4.7980 C.3    23  GLU23       0.0415
     20  CG        -3.9710   20.4720   -4.2590 C.3    23  GLU23       0.1163
     21  CD        -3.5160   21.6370   -5.1300 C.2    23  GLU23       0.3649
     22  OE1       -2.5900   21.4530   -5.9520 O.co2  23  GLU23      -0.2457
     23  OE2       -4.0810   22.7440   -4.9860 O.co2  23  GLU23      -0.2457
     24  N         -3.1980   12.2930    6.8560 N.3    56  ASP56      -0.1239
     25  CA        -2.9310   13.5000    7.6750 C.3    56  ASP56       0.1674
     26  C         -4.2150   14.1700    8.1520 C.2    56  ASP56       0.2266
     27  O         -5.2550   14.0590    7.5050 O.2    56  ASP56      -0.2867
     28  CB        -2.2340   14.5980    6.8680 C.3    56  ASP56       0.1410
     29  CG        -1.1090   14.1000    5.9980 C.2    56  ASP56       0.3668
     30  OD1       -0.2770   13.2770    6.4360 O.co2  56  ASP56      -0.2456
     31  OD2       -1.0480   14.5960    4.8650 O.co2  56  ASP56      -0.2456
     32  N         -5.1530   18.3260    9.2250 N.3    58  TYR58      -0.1241
     33  CA        -4.6610   19.7060    9.2700 C.3    58  TYR58       0.1605
     34  C         -5.7090   20.5530    9.9780 C.2    58  TYR58       0.2264
     35  O         -6.9000   20.3840    9.7470 O.2    58  TYR58      -0.2867
     36  CB        -4.4310   20.2930    7.8700 C.3    58  TYR58       0.0534
     37  CG        -3.5750   19.4470    6.9360 C.ar   58  TYR58      -0.0201
     38  CD1       -2.2330   19.7460    6.7230 C.ar   58  TYR58      -0.0009
     39  CD2       -4.1240   18.3730    6.2380 C.ar   58  TYR58      -0.0009
     40  CE1       -1.4390   18.9790    5.8560 C.ar   58  TYR58       0.0417
     41  CE2       -3.3390   17.5950    5.3750 C.ar   58  TYR58       0.0417
     42  CZ        -2.0050   17.9070    5.1910 C.ar   58  TYR58       0.1957
     43  OH        -1.2500   17.1450    4.3440 O.3    58  TYR58      -0.2866
     44  N         -3.8480   24.4110    3.5280 N.3    66  PRO66      -0.2102
     45  CA        -2.7120   23.8000    4.2170 C.3    66  PRO66       0.1504
     46  C         -1.6310   23.2730    3.2620 C.2    66  PRO66       0.2576
     47  O         -1.2850   22.0830    3.3060 O.2    66  PRO66      -0.2718
     48  CB        -3.3580   22.6760    5.0470 C.3    66  PRO66       0.0282
     49  CG        -4.6540   22.3960    4.4040 C.3    66  PRO66       0.0208
     50  CD        -5.0800   23.6080    3.6370 C.3    66  PRO66       0.0893
     51  N         -1.1100   24.1720    2.4170 N.am   67  MET67      -0.1966
     52  CA        -0.0510   23.8640    1.4650 C.3    67  MET67       0.1736
     53  C          1.0940   24.8650    1.5540 C.2    67  MET67       0.2616
     54  O          0.8780   26.0390    1.8660 O.2    67  MET67      -0.2715
     55  CB        -0.5930   23.8860    0.0390 C.3    67  MET67       0.0427
     56  CG        -1.7370   22.9270   -0.2100 C.3    67  MET67       0.0599
     57  SD        -2.4610   23.1700   -1.8340 S.3    67  MET67      -0.1393
     58  CE        -1.1260   22.6380   -2.9160 C.3    67  MET67       0.0692
     59  N          2.3060   24.3950    1.2580 N.am   68  TRP68      -0.1960
     60  CA         3.4910   25.2570    1.1830 C.3    68  TRP68       0.1771
     61  C          3.2750   26.4690    0.2720 C.2    68  TRP68       0.2619
     62  O          3.7430   27.5590    0.5700 O.2    68  TRP68      -0.2715
     63  CB         4.6960   24.4690    0.6600 C.3    68  TRP68       0.0590
     64  CG         4.9540   23.1570    1.3460 C.ar   68  TRP68       0.0006
     65  CD1        4.8770   22.8880    2.6950 C.ar   68  TRP68       0.0946
     66  CD2        5.3720   21.9380    0.7170 C.ar   68  TRP68       0.0152
     67  NE1        5.2030   21.5710    2.9320 N.ar   68  TRP68      -0.2442
     68  CE2        5.5180   20.9670    1.7410 C.ar   68  TRP68       0.0810
     69  CE3        5.6390   21.5700   -0.6160 C.ar   68  TRP68       0.0012
     70  CZ2        5.9140   19.6450    1.4720 C.ar   68  TRP68       0.0191
     71  CZ3        6.0330   20.2570   -0.8810 C.ar   68  TRP68       0.0001
     72  CH2        6.1630   19.3110    0.1620 C.ar   68  TRP68       0.0015
     73  N          2.5500   26.2580   -0.8270 N.am   69  GLU69      -0.1977
     74  CA         2.3940   27.2440   -1.9040 C.3    69  GLU69       0.1602
     75  C          1.4910   28.4280   -1.5530 C.2    69  GLU69       0.2287
     76  O          1.6720   29.5300   -2.0800 O.2    69  GLU69      -0.2864
     77  CB         1.8680   26.5610   -3.1630 C.3    69  GLU69       0.0415
     78  CG         2.9210   25.7310   -3.9260 C.3    69  GLU69       0.1163
     79  CD         3.2400   24.3720   -3.2770 C.2    69  GLU69       0.3649
     80  OE1        2.4980   23.9200   -2.3660 O.co2  69  GLU69      -0.2457
     81  OE2        4.2390   23.7480   -3.7030 O.co2  69  GLU69      -0.2457
     82  N          7.9450   25.5370    9.8770 N.3    78  ARG78      -0.1245
     83  CA         7.2480   24.7270   10.8470 C.3    78  ARG78       0.1563
     84  C          8.1440   24.2910   11.9930 C.2    78  ARG78       0.2260
     85  O          9.3350   24.0160   11.8040 O.2    78  ARG78      -0.2867
     86  CB         6.6530   23.4870   10.1710 C.3    78  ARG78       0.0307
     87  CG         7.7010   22.4730    9.7620 C.3    78  ARG78       0.0489
     88  CD         7.1010   21.2680    9.0910 C.3    78  ARG78       0.2205
     89  NE         8.1420   20.2700    8.8670 N.pl3  78  ARG78      -0.0865
     90  CZ         7.9610   19.1180    8.2360 C.cat  78  ARG78       0.5346
     91  NH1        6.7760   18.8030    7.7450 N.pl3  78  ARG78       0.1354
     92  NH2        8.9790   18.2810    8.0840 N.pl3  78  ARG78       0.1354
     93  N          1.0250   14.1330   10.5330 N.3   121  ASN121     -0.1240
     94  CA         1.2660   13.1470    9.4830 C.3   121  ASN121      0.1653
     95  C          1.4070   11.7870   10.1500 C.2   121  ASN121      0.2266
     96  O          2.2600   11.6120   11.0210 O.2   121  ASN121     -0.2867
     97  CB         2.5490   13.4730    8.6970 C.3   121  ASN121      0.1155
     98  CG         2.5840   14.9180    8.2050 C.2   121  ASN121      0.2627
     99  OD1        3.4100   15.7080    8.6540 O.2   121  ASN121     -0.2716
    100  ND2        1.6800   15.2680    7.2840 N.am  121  ASN121     -0.0877
    101  N          2.5700    8.1200    9.7470 N.3   123  ARG123     -0.1245
    102  CA         3.4820    7.3890    8.8700 C.3   123  ARG123      0.1563
    103  C          3.9890    6.0650    9.4950 C.2   123  ARG123      0.2260
    104  O          3.9590    5.8890   10.7210 O.2   123  ARG123     -0.2867
    105  CB         4.6760    8.2860    8.4750 C.3   123  ARG123      0.0307
    106  CG         4.3350    9.6120    7.7600 C.3   123  ARG123      0.0489
    107  CD         3.7310    9.3930    6.3640 C.3   123  ARG123      0.2205
    108  NE         3.3470   10.6460    5.6960 N.pl3 123  ARG123     -0.0865
    109  CZ         2.1780   11.2820    5.8380 C.cat 123  ARG123      0.5346
    110  NH1        1.2250   10.8140    6.6420 N.pl3 123  ARG123      0.1354
    111  NH2        1.9560   12.4040    5.1650 N.pl3 123  ARG123      0.1354
    112  N          4.5640   12.5120   12.7480 N.3   128  LYS128     -0.1245
    113  CA         5.0390   13.8770   12.9160 C.3   128  LYS128      0.1561
    114  C          3.8710   14.8150   13.2520 C.2   128  LYS128      0.2260
    115  O          2.8320   14.7940   12.5810 O.2   128  LYS128     -0.2867
    116  CB         5.7350   14.3580   11.6390 C.3   128  LYS128      0.0271
    117  CG         7.0300   13.5810   11.3060 C.3   128  LYS128      0.0035
    118  CD         7.6500   13.9790    9.9760 C.3   128  LYS128      0.0206
    119  CE         6.8670   13.4490    8.7920 C.3   128  LYS128      0.1093
    120  NZ         7.6950   13.5520    7.5560 N.3   128  LYS128     -0.1314
    121  N          2.8000   25.1550   11.8760 N.3   132  TRP132     -0.1241
    122  CA         3.2030   26.0290   10.7640 C.3   132  TRP132      0.1605
    123  C          3.0330   27.5100   11.1120 C.2   132  TRP132      0.2264
    124  O          1.9680   27.9180   11.5870 O.2   132  TRP132     -0.2867
    125  CB         2.3710   25.7370    9.5050 C.3   132  TRP132      0.0550
    126  CG         2.6500   24.4240    8.8190 C.ar  132  TRP132      0.0003
    127  CD1        3.1270   23.2770    9.3850 C.ar  132  TRP132      0.0946
    128  CD2        2.4140   24.1200    7.4400 C.ar  132  TRP132      0.0152
    129  NE1        3.2280   22.2890    8.4440 N.ar  132  TRP132     -0.2442
    130  CE2        2.7970   22.7750    7.2380 C.ar  132  TRP132      0.0810
    131  CE3        1.9460   24.8610    6.3510 C.ar  132  TRP132      0.0012
    132  CZ2        2.7090   22.1480    5.9940 C.ar  132  TRP132      0.0191
    133  CZ3        1.8520   24.2370    5.1080 C.ar  132  TRP132      0.0001
    134  CH2        2.2330   22.8920    4.9430 C.ar  132  TRP132      0.0015
@<TRIPOS>BOND
     1    22    21   ar
     2    21    23   ar
     3    21    20    1
     4     1     2    1
     5    19    20    1
     6    19    16    1
     7    15    16    1
     8    15     3   am
     9    17    16    1
    10    17    18    2
    11    78    79    1
    12    78    77    1
    13    81    79   ar
    14     2     3    1
    15     2     5    1
    16     3     4    2
    17    79    80   ar
    18    77    74    1
    19     5     6    1
    20    58    57    1
    21    76    75    2
    22    74    75    1
    23    74    73    1
    24    57    56    1
    25     6     8   ar
    26     6     7   ar
    27    11     8   ar
    28    11    13   ar
    29     8    10   ar
    30    71    69   ar
    31    71    72   ar
    32    73    61   am
    33    13    14   ar
    34     7     9   ar
    35    69    66   ar
    36    56    55    1
    37    55    52    1
    38    72    70   ar
    39    61    62    2
    40    61    60    1
    41    10     9   ar
    42    10    12   ar
    43    63    60    1
    44    63    64    1
    45    14    12   ar
    46    66    64   ar
    47    66    68   ar
    48    60    59    1
    49    59    53   am
    50    64    65   ar
    51    52    53    1
    52    52    51    1
    53    70    68   ar
    54    53    54    2
    55    68    67   ar
    56    51    46   am
    57    65    67   ar
    58    46    47    2
    59    46    45    1
    60    44    50    1
    61    44    45    1
    62    50    49    1
    63    45    48    1
    64    43    42    1
    65    49    48    1
    66    31    29   ar
    67   134   133   ar
    68   134   132   ar
    69   133   131   ar
    70   111   109    1
    71    42    41   ar
    72    42    40   ar
    73    41    39   ar
    74   108   109    2
    75   108   107    1
    76   109   110    1
    77    40    38   ar
    78   132   130   ar
    79    29    30   ar
    80    29    28    1
    81    39    37   ar
    82   131   128   ar
    83   107   106    1
    84    38    37   ar
    85    24    25    1
    86    28    25    1
    87    37    36    1
    88   130   128   ar
    89   130   129   ar
    90   100    98   am
    91   128   126   ar
    92    27    26    2
    93   120   119    1
    94    25    26    1
    95    91    90    1
    96   106   105    1
    97    36    33    1
    98    92    90    1
    99    98    99    2
   100    98    97    1
   101    90    89    2
   102   129   127   ar
   103   105   102    1
   104    97    94    1
   105   119   118    1
   106   126   127   ar
   107   126   125    1
   108    89    88    1
   109   102   103    1
   110   102   101    1
   111    88    87    1
   112    32    33    1
   113    33    34    1
   114    94    95    1
   115    94    93    1
   116   103   104    2
   117   125   122    1
   118    35    34    2
   119    87    86    1
   120    82    83    1
   121   118   117    1
   122    95    96    2
   123    86    83    1
   124   122   123    1
   125   122   121    1
   126    83    84    1
   127   123   124    2
   128   117   116    1
   129   116   113    1
   130    85    84    2
   131   115   114    2
   132   112   113    1
   133   113   114    1
