@<TRIPOS>MOLECULE
tmp/3m96A00.pdb
 189 183 0 0 0
SMALL
GASTEIGER

@<TRIPOS>ATOM
      1  N          8.4210   -0.3930   10.2620 N.3     2  TRP2       -0.1241
      2  CA         7.7300   -1.4000   11.1410 C.3     2  TRP2        0.1605
      3  C          6.7020   -2.1820   10.3220 C.2     2  TRP2        0.2264
      4  O          6.1480   -1.6970    9.3430 O.2     2  TRP2       -0.2867
      5  CB         7.0440   -0.7290   12.3670 C.3     2  TRP2        0.0550
      6  CG         5.8050    0.0600   12.0110 C.ar    2  TRP2        0.0003
      7  CD1        5.7000    1.4460   11.7100 C.ar    2  TRP2        0.0946
      8  CD2        4.4260   -0.4490   11.9880 C.ar    2  TRP2        0.0152
      9  NE1        4.3900    1.7720   11.4930 N.ar    2  TRP2       -0.2442
     10  CE2        3.5940    0.6430   11.6410 C.ar    2  TRP2        0.0810
     11  CE3        3.8360   -1.7130   12.2240 C.ar    2  TRP2        0.0012
     12  CZ2        2.1970    0.5220   11.5330 C.ar    2  TRP2        0.0191
     13  CZ3        2.4040   -1.8000   12.0920 C.ar    2  TRP2        0.0001
     14  CH2        1.6260   -0.6970   11.7700 C.ar    2  TRP2        0.0015
     15  N         -3.1590    0.1880    3.5020 N.3    59  ASN59      -0.1296
     16  CA        -2.0970    1.1060    3.9820 C.3    59  ASN59       0.1339
     17  C         -0.8450    0.3040    4.2390 C.3    59  ASN59       0.2014
     18  O          0.2460    0.7730    4.7790 O.3    59  ASN59      -0.2188
     19  CB        -2.5300    1.9310    5.2060 C.3    59  ASN59       0.1102
     20  CG        -2.7690    1.0340    6.4430 C.2    59  ASN59       0.2623
     21  OD1       -2.4270   -0.1650    6.4440 O.2    59  ASN59      -0.2716
     22  ND2       -3.0990    1.7030    7.5430 N.am   59  ASN59      -0.0877
     23  N         -0.5600   -2.3030    6.1760 N.3    61  HIS61      -0.1226
     24  CA        -0.7140   -2.9600    7.5360 C.3    61  HIS61       0.1752
     25  C         -2.0850   -3.5680    7.7000 C.2    61  HIS61       0.2595
     26  O         -2.1720   -4.6510    8.2890 O.2    61  HIS61      -0.2718
     27  CB        -0.4810   -1.9250    8.6900 C.3    61  HIS61       0.0759
     28  CG         0.8130   -1.1620    8.5420 C.ar   61  HIS61       0.0818
     29  ND1        2.0340   -1.8020    8.6490 N.ar   61  HIS61      -0.2268
     30  CD2        1.0670    0.1350    8.2710 C.ar   61  HIS61       0.1154
     31  CE1        3.0060   -0.9150    8.4710 C.ar   61  HIS61       0.1986
     32  NE2        2.4550    0.2490    8.2070 N.ar   61  HIS61      -0.2212
     33  N         -3.0960   -2.9110    7.1820 N.am   62  ALA62      -0.1980
     34  CA        -4.4440   -3.4620    7.2180 C.3    62  ALA62       0.1597
     35  C         -5.1910   -2.6890    6.0950 C.2    62  ALA62       0.2287
     36  O         -4.5100   -2.0100    5.2510 O.2    62  ALA62      -0.2864
     37  CB        -5.0960   -3.2940    8.6460 C.3    62  ALA62       0.0319
     38  N         -8.1870    0.4740    5.8140 N.3    64  ASN64      -0.1240
     39  CA        -9.0160    1.4150    6.5920 C.3    64  ASN64       0.1653
     40  C        -10.2520    1.7930    5.8000 C.2    64  ASN64       0.2266
     41  O        -10.0640    2.1850    4.6020 O.2    64  ASN64      -0.2867
     42  CB        -8.2640    2.6820    6.9570 C.3    64  ASN64       0.1155
     43  CG        -7.1340    2.4550    7.8520 C.2    64  ASN64       0.2627
     44  OD1       -6.9840    1.4200    8.5120 O.2    64  ASN64      -0.2716
     45  ND2       -6.2120    3.4260    7.8560 N.am   64  ASN64      -0.0877
     46  N        -12.5160    6.1510   11.2010 N.3    89  GLN89      -0.1245
     47  CA       -12.2120    5.0250   10.2930 C.3    89  GLN89       0.1566
     48  C        -12.4740    3.7450   11.0400 C.2    89  GLN89       0.2260
     49  O        -12.5950    3.7980   12.2160 O.2    89  GLN89      -0.2867
     50  CB       -10.7950    5.0460    9.7480 C.3    89  GLN89       0.0367
     51  CG        -9.7030    5.0780   10.8910 C.3    89  GLN89       0.0905
     52  CD        -8.9650    3.7740   11.0500 C.2    89  GLN89       0.2608
     53  OE1       -9.6020    2.7310   11.1840 O.2    89  GLN89      -0.2717
     54  NE2       -7.6940    3.7890   11.0150 N.am   89  GLN89      -0.0878
     55  N        -11.0290   -0.5200   10.8040 N.3    91  HIS91      -0.1241
     56  CA       -10.1480   -1.5110   10.1730 C.3    91  HIS91       0.1621
     57  C        -10.2040   -2.7950   11.0380 C.2    91  HIS91       0.2264
     58  O        -10.8610   -2.8060   12.0690 O.2    91  HIS91      -0.2867
     59  CB        -8.6870   -1.0610   10.1270 C.3    91  HIS91       0.0745
     60  CG        -8.1430   -0.7550   11.4960 C.ar   91  HIS91       0.0817
     61  ND1       -8.3200    0.4750   12.1230 N.ar   91  HIS91      -0.2268
     62  CD2       -7.5490   -1.5770   12.3850 C.ar   91  HIS91       0.1154
     63  CE1       -7.8230    0.3710   13.3530 C.ar   91  HIS91       0.1986
     64  NE2       -7.3730   -0.8670   13.5450 N.ar   91  HIS91      -0.2212
     65  N         -7.9430   -6.4870   12.3210 N.3    93  HIS93      -0.1241
     66  CA        -6.7540   -7.3150   12.4920 C.3    93  HIS93       0.1621
     67  C         -7.1550   -8.7680   12.3690 C.2    93  HIS93       0.2264
     68  O         -8.2020   -9.1170   12.8680 O.2    93  HIS93      -0.2867
     69  CB        -6.0500   -7.0710   13.8970 C.3    93  HIS93       0.0745
     70  CG        -5.7880   -5.6420   14.1500 C.ar   93  HIS93       0.0817
     71  ND1       -4.5300   -5.0940   13.9260 N.ar   93  HIS93      -0.2268
     72  CD2       -6.6220   -4.6220   14.5140 C.ar   93  HIS93       0.1154
     73  CE1       -4.6070   -3.8040   14.2890 C.ar   93  HIS93       0.1986
     74  NE2       -5.8660   -3.5100   14.5660 N.ar   93  HIS93      -0.2212
     75  N        -11.8520   -2.6460   14.7050 N.3   116  HIS116     -0.1241
     76  CA       -11.6590   -1.4770   15.4730 C.3   116  HIS116      0.1621
     77  C        -12.3240   -0.3220   14.7790 C.2   116  HIS116      0.2264
     78  O        -11.9450    0.0290   13.6620 O.2   116  HIS116     -0.2867
     79  CB       -10.1500   -1.2140   15.5650 C.3   116  HIS116      0.0745
     80  CG        -9.4730   -2.2020   16.4590 C.ar  116  HIS116      0.0817
     81  ND1       -8.1190   -2.4240   16.4620 N.ar  116  HIS116     -0.2268
     82  CD2       -9.9920   -3.0270   17.3620 C.ar  116  HIS116      0.1154
     83  CE1       -7.7750   -3.3860   17.2960 C.ar  116  HIS116      0.1986
     84  NE2       -8.9050   -3.7420   17.9370 N.ar  116  HIS116     -0.2212
     85  N        -12.5770    3.4740   15.1070 N.3   118  VAL118     -0.1245
     86  CA       -11.7440    4.5220   15.7390 C.3   118  VAL118      0.1561
     87  C        -12.4470    5.8190   15.7700 C.2   118  VAL118      0.2260
     88  O        -12.8980    6.2890   14.7190 O.2   118  VAL118     -0.2867
     89  CB       -10.4210    4.6160   14.9350 C.3   118  VAL118      0.0252
     90  CG1       -9.5090    5.6840   15.5520 C.3   118  VAL118      0.0019
     91  CG2       -9.6630    3.2740   14.8570 C.3   118  VAL118      0.0019
     92  N         -8.2930   14.5320   14.6300 N.3   127  PHE127     -0.1241
     93  CA        -7.6850   13.2830   15.0260 C.3   127  PHE127      0.1605
     94  C         -6.2430   13.5630   15.3870 C.2   127  PHE127      0.2264
     95  O         -5.7740   13.0530   16.3950 O.2   127  PHE127     -0.2867
     96  CB        -7.8140   12.2620   13.8850 C.3   127  PHE127      0.0534
     97  CG        -7.0490   10.9880   14.1170 C.ar  127  PHE127     -0.0203
     98  CD1       -7.6330    9.9010   14.8150 C.ar  127  PHE127     -0.0042
     99  CD2       -5.7210   10.9100   13.7690 C.ar  127  PHE127     -0.0042
    100  CE1       -6.9050    8.7930   14.9820 C.ar  127  PHE127     -0.0003
    101  CE2       -4.9680    9.8030   13.9480 C.ar  127  PHE127     -0.0003
    102  CZ        -5.6110    8.7000   14.5610 C.ar  127  PHE127     -0.0000
    103  N         -4.7690   12.5000   19.2030 N.3   131  VAL131     -0.1245
    104  CA        -3.8540   11.4600   19.6090 C.3   131  VAL131      0.1561
    105  C         -2.7570   11.8570   20.5680 C.2   131  VAL131      0.2260
    106  O         -2.0800   11.0000   21.1150 O.2   131  VAL131     -0.2867
    107  CB        -3.2230   10.7090   18.4040 C.3   131  VAL131      0.0252
    108  CG1       -4.3270   10.0050   17.6000 C.3   131  VAL131      0.0019
    109  CG2       -2.3260   11.5860   17.5550 C.3   131  VAL131      0.0019
    110  N         -8.8400    9.3490   22.0220 N.3   137  LEU137     -0.1245
    111  CA        -9.5160    8.4470   21.1380 C.3   137  LEU137      0.1561
    112  C        -10.3650    7.4980   21.9580 C.2   137  LEU137      0.2260
    113  O        -10.0960    7.2250   23.1280 O.2   137  LEU137     -0.2867
    114  CB        -8.4990    7.5960   20.3780 C.3   137  LEU137      0.0270
    115  CG        -7.5920    8.3460   19.4370 C.3   137  LEU137      0.0019
    116  CD1       -6.8500    7.2500   18.5440 C.3   137  LEU137      0.0001
    117  CD2       -8.2710    9.2920   18.4760 C.3   137  LEU137      0.0001
    118  N        -11.8390    3.6400   20.9970 N.3   139  VAL139     -0.1245
    119  CA       -11.9110    2.6310   19.9480 C.3   139  VAL139      0.1561
    120  C        -12.9070    1.5700   20.4190 C.2   139  VAL139      0.2260
    121  O        -12.7940    1.0490   21.5340 O.2   139  VAL139     -0.2867
    122  CB       -10.5370    1.9810   19.6400 C.3   139  VAL139      0.0252
    123  CG1      -10.7480    0.9430   18.5490 C.3   139  VAL139      0.0019
    124  CG2       -9.5640    3.0160   19.1920 C.3   139  VAL139      0.0019
    125  N         -2.8480    3.0540   21.0630 N.3   194  LEU194     -0.1231
    126  CA        -2.8730    2.4270   19.7040 C.3   194  LEU194      0.1693
    127  C         -2.2130    1.1230   19.7860 C.2   194  LEU194      0.2593
    128  O         -1.1500    0.9570   20.5240 O.2   194  LEU194     -0.2718
    129  CB        -2.0550    3.2420   18.7480 C.3   194  LEU194      0.0284
    130  CG        -2.3910    4.6980   18.6610 C.3   194  LEU194      0.0019
    131  CD1       -1.5350    5.3310   17.4670 C.3   194  LEU194      0.0001
    132  CD2       -3.7110    5.2520   18.6800 C.3   194  LEU194      0.0001
    133  N         -2.6430    0.1530   19.0020 N.am  195  THR195     -0.1939
    134  CA        -1.9790   -1.1280   18.9830 C.3   195  THR195      0.2028
    135  C         -0.9520   -1.1600   17.8600 C.2   195  THR195      0.2643
    136  O         -0.3510   -2.1750   17.6710 O.2   195  THR195     -0.2714
    137  CB        -2.9990   -2.2770   18.8170 C.3   195  THR195      0.1808
    138  OG1       -3.5620   -2.1620   17.4960 O.3   195  THR195     -0.2208
    139  CG2       -3.9600   -2.2450   19.8680 C.3   195  THR195      0.0379
    140  N         -0.8480   -0.0940   17.0810 N.am  196  THR196     -0.1937
    141  CA         0.1670   -0.0060   16.0260 C.3   196  THR196      0.2013
    142  C          1.0250    1.1960   16.3170 C.2   196  THR196      0.2484
    143  O          0.6020    2.1570   16.9190 O.2   196  THR196     -0.2729
    144  CB        -0.4560    0.2560   14.6640 C.3   196  THR196      0.1807
    145  OG1       -1.2090    1.4610   14.7260 O.3   196  THR196     -0.2208
    146  CG2       -1.3730   -0.8370   14.2950 C.3   196  THR196      0.0379
    147  N          2.3250    1.1510   15.8920 N.am  197  PRO197     -0.2715
    148  CA         3.1160    2.4040   15.9750 C.3   197  PRO197      0.1521
    149  C          2.2530    3.5560   15.4390 C.2   197  PRO197      0.2440
    150  O          1.5660    3.3970   14.3680 O.2   197  PRO197     -0.2731
    151  CB         4.3200    2.0730   15.0620 C.3   197  PRO197      0.0310
    152  CG         4.5210    0.6280   15.2310 C.3   197  PRO197      0.0237
    153  CD         3.0320    0.0610   15.2040 C.3   197  PRO197      0.0939
    154  N          2.3270    4.7700   15.9750 N.am  198  PRO198     -0.2727
    155  CA         3.2660    5.0980   17.0620 C.3   198  PRO198      0.1402
    156  C          2.8970    4.7600   18.5010 C.2   198  PRO198      0.2269
    157  O          3.5600    5.1390   19.4340 O.2   198  PRO198     -0.2865
    158  CB         3.3560    6.6180   16.9140 C.3   198  PRO198      0.0296
    159  CG         1.9150    7.0420   16.4070 C.3   198  PRO198      0.0237
    160  CD         1.5600    5.9230   15.4350 C.3   198  PRO198      0.0939
    161  N          0.7010    5.4280   20.6270 N.3   200  LEU200     -0.1301
    162  CA         0.4180    6.5210   21.5530 C.3   200  LEU200      0.1247
    163  C         -0.6060    6.1360   22.5770 C.3   200  LEU200      0.2009
    164  O         -1.6050    5.3590   22.3170 O.3   200  LEU200     -0.2188
    165  CB        -0.0880    7.7370   20.8220 C.3   200  LEU200      0.0217
    166  CG         0.9370    8.2870   19.7990 C.3   200  LEU200      0.0015
    167  CD1        0.3730    9.3400   18.9000 C.3   200  LEU200      0.0000
    168  CD2        2.1450    8.9600   20.5060 C.3   200  LEU200      0.0000
    169  N         -5.9150    6.0930   24.1050 N.3   203  VAL203     -0.1245
    170  CA        -7.1910    5.4240   23.7510 C.3   203  VAL203      0.1561
    171  C         -7.9550    4.9560   24.9690 C.2   203  VAL203      0.2260
    172  O         -7.3880    4.3250   25.8340 O.2   203  VAL203     -0.2867
    173  CB        -6.8710    4.1560   22.9670 C.3   203  VAL203      0.0252
    174  CG1       -8.1940    3.4150   22.5500 C.3   203  VAL203      0.0019
    175  CG2       -6.1770    4.5000   21.6520 C.3   203  VAL203      0.0019
    176  N        -10.3360    2.1410   25.4210 N.3   205  TRP205     -0.1241
    177  CA       -10.7940    0.9410   24.7300 C.3   205  TRP205      0.1605
    178  C        -12.1500    0.5290   25.2760 C.2   205  TRP205      0.2264
    179  O        -12.3730    0.4530   26.4630 O.2   205  TRP205     -0.2867
    180  CB        -9.7870   -0.2130   24.9640 C.3   205  TRP205      0.0550
    181  CG        -8.6800   -0.1020   24.0050 C.ar  205  TRP205      0.0003
    182  CD1       -7.4280    0.5420   24.2030 C.ar  205  TRP205      0.0946
    183  CD2       -8.7100   -0.4710   22.6370 C.ar  205  TRP205      0.0152
    184  NE1       -6.7570    0.5190   23.0310 N.ar  205  TRP205     -0.2442
    185  CE2       -7.4610   -0.1200   22.0360 C.ar  205  TRP205      0.0810
    186  CE3       -9.6960   -1.1340   21.8370 C.ar  205  TRP205      0.0012
    187  CZ2       -7.1800   -0.3130   20.7010 C.ar  205  TRP205      0.0191
    188  CZ3       -9.4380   -1.3510   20.5740 C.ar  205  TRP205      0.0001
    189  CH2       -8.1890   -0.9230   19.9970 C.ar  205  TRP205      0.0015
@<TRIPOS>BOND
     1    15    16    1
     2    16    17    1
     3    16    19    1
     4    17    18    1
     5    41    40    2
     6    19    20    1
     7    36    35    2
     8    40    39    1
     9    38    39    1
    10    35    34    1
    11    23    24    1
    12    20    21    2
    13    20    22   am
    14    39    42    1
    15    42    43    1
    16    33    34    1
    17    33    25   am
    18    34    37    1
    19    24    25    1
    20    24    27    1
    21    25    26    2
    22    43    45   am
    23    43    44    2
    24    32    30   ar
    25    32    31   ar
    26    30    28   ar
    27    31    29   ar
    28    28    29   ar
    29    28    27    1
    30     4     3    2
    31    50    47    1
    32    50    51    1
    33    59    56    1
    34    59    60    1
    35    56    55    1
    36    56    57    1
    37     1     2    1
    38    47    48    1
    39    47    46    1
    40     3     2    1
    41    51    52    1
    42    54    52   am
    43    57    58    2
    44    48    49    2
    45    52    53    2
    46     2     5    1
    47     9    10   ar
    48     9     7   ar
    49    60    61   ar
    50    60    62   ar
    51    12    10   ar
    52    12    14   ar
    53    10     8   ar
    54     7     6   ar
    55    14    13   ar
    56     8     6   ar
    57     8    11   ar
    58     6     5    1
    59    13    11   ar
    60    61    63   ar
    61    65    66    1
    62    67    66    1
    63    67    68    2
    64    62    64   ar
    65    66    69    1
    66    63    64   ar
    67    78    77    2
    68    99   101   ar
    69    99    97   ar
    70    96    97    1
    71    96    93    1
    72    69    70    1
    73    71    70   ar
    74    71    73   ar
    75   101   102   ar
    76    97    98   ar
    77    70    72   ar
    78    73    74   ar
    79   146   144    1
    80   150   149    2
    81    72    74   ar
    82   102   100   ar
    83    92    93    1
    84   144   145    1
    85   144   141    1
    86    75    76    1
    87    88    87    2
    88    77    76    1
    89    98   100   ar
    90    91    89    1
    91    89    90    1
    92    89    86    1
    93    93    94    1
    94   151   152    1
    95   151   148    1
    96    85    86    1
    97   153   152    1
    98   153   147    1
    99    94    95    2
   100   160   154    1
   101   160   159    1
   102   149   154   am
   103   149   148    1
   104    76    79    1
   105    79    80    1
   106    86    87    1
   107   147   148    1
   108   147   142   am
   109   154   155    1
   110   141   142    1
   111   141   140    1
   112   142   143    2
   113   159   158    1
   114    80    81   ar
   115    80    82   ar
   116    81    83   ar
   117   158   155    1
   118   155   156    1
   119   140   135   am
   120    83    84   ar
   121    82    84   ar
   122   131   130    1
   123   138   137    1
   124   109   107    1
   125   108   107    1
   126   136   135    2
   127   135   134    1
   128   107   104    1
   129   117   115    1
   130   156   157    2
   131   116   115    1
   132   123   122    1
   133   130   132    1
   134   130   129    1
   135   129   126    1
   136   137   134    1
   137   137   139    1
   138   167   166    1
   139   134   133    1
   140   133   127   am
   141   124   122    1
   142   103   104    1
   143   115   114    1
   144   104   105    1
   145   122   119    1
   146   126   127    1
   147   126   125    1
   148   127   128    2
   149   166   168    1
   150   166   165    1
   151   119   120    1
   152   119   118    1
   153   189   188   ar
   154   189   187   ar
   155   114   111    1
   156   120   121    2
   157   105   106    2
   158   188   186   ar
   159   161   162    1
   160   187   185   ar
   161   165   162    1
   162   111   112    1
   163   111   110    1
   164   162   163    1
   165   175   173    1
   166   186   183   ar
   167   112   113    2
   168   185   183   ar
   169   185   184   ar
   170   164   163    1
   171   174   173    1
   172   183   181   ar
   173   173   170    1
   174   184   182   ar
   175   170   169    1
   176   170   171    1
   177   181   182   ar
   178   181   180    1
   179   177   180    1
   180   177   178    1
   181   177   176    1
   182   171   172    2
   183   178   179    2
