@<TRIPOS>MOLECULE
tmp/3m98A00.pdb
 177 172 0 0 0
SMALL
GASTEIGER

@<TRIPOS>ATOM
      1  N          8.5660   -0.5220   10.4870 N.3     2  TRP2       -0.1241
      2  CA         7.8370   -1.4790   11.3500 C.3     2  TRP2        0.1605
      3  C          6.8510   -2.2570   10.5380 C.2     2  TRP2        0.2264
      4  O          6.3800   -1.7800    9.4890 O.2     2  TRP2       -0.2867
      5  CB         7.1280   -0.7420   12.5220 C.3     2  TRP2        0.0550
      6  CG         5.9360    0.0930   12.1350 C.ar    2  TRP2        0.0003
      7  CD1        5.8940    1.4540   11.8160 C.ar    2  TRP2        0.0946
      8  CD2        4.5780   -0.3650   12.0940 C.ar    2  TRP2        0.0152
      9  NE1        4.5960    1.8340   11.5730 N.ar    2  TRP2       -0.2442
     10  CE2        3.7650    0.7500   11.7140 C.ar    2  TRP2        0.0810
     11  CE3        3.9640   -1.5960   12.3360 C.ar    2  TRP2        0.0012
     12  CZ2        2.3430    0.6730   11.6150 C.ar    2  TRP2        0.0191
     13  CZ3        2.5520   -1.6930   12.1710 C.ar    2  TRP2        0.0001
     14  CH2        1.7550   -0.5360   11.8820 C.ar    2  TRP2        0.0015
     15  N         -8.9310    2.0300    1.9940 N.3    57  LEU57      -0.1245
     16  CA        -7.5090    2.1910    1.7070 C.3    57  LEU57       0.1561
     17  C         -6.7200    0.9690    2.2520 C.2    57  LEU57       0.2260
     18  O         -6.9300    0.6430    3.4210 O.2    57  LEU57      -0.2867
     19  CB        -7.0080    3.5140    2.4720 C.3    57  LEU57       0.0270
     20  CG        -5.5080    3.7160    2.4030 C.3    57  LEU57       0.0019
     21  CD1       -4.9860    3.9150    0.9650 C.3    57  LEU57       0.0001
     22  CD2       -5.0100    4.8590    3.3170 C.3    57  LEU57       0.0001
     23  N         -3.3040    0.3360    3.6010 N.3    59  ASN59      -0.1240
     24  CA        -2.2190    1.2180    4.0480 C.3    59  ASN59       0.1653
     25  C         -0.9090    0.4560    4.2920 C.2    59  ASN59       0.2266
     26  O          0.0920    1.0100    4.8560 O.2    59  ASN59      -0.2867
     27  CB        -2.6100    2.0220    5.3260 C.3    59  ASN59       0.1155
     28  CG        -2.9350    1.1030    6.5030 C.2    59  ASN59       0.2627
     29  OD1       -2.4830   -0.0320    6.5340 O.2    59  ASN59      -0.2716
     30  ND2       -3.7780    1.5710    7.4240 N.am   59  ASN59      -0.0877
     31  N         -0.5850   -2.1140    6.3290 N.3    61  HIS61      -0.1241
     32  CA        -0.6800   -2.8030    7.6330 C.3    61  HIS61       0.1621
     33  C         -2.0600   -3.4310    7.8480 C.2    61  HIS61       0.2264
     34  O         -2.1680   -4.4550    8.5410 O.2    61  HIS61      -0.2867
     35  CB        -0.3490   -1.8240    8.7580 C.3    61  HIS61       0.0745
     36  CG         0.9860   -1.1690    8.5800 C.ar   61  HIS61       0.0817
     37  ND1        2.1750   -1.8400    8.7830 N.ar   61  HIS61      -0.2268
     38  CD2        1.3210    0.0940    8.2230 C.ar   61  HIS61       0.1154
     39  CE1        3.1890   -1.0130    8.5940 C.ar   61  HIS61       0.1986
     40  NE2        2.6940    0.1540    8.2290 N.ar   61  HIS61      -0.2212
     41  N         -8.2880    0.4130    5.8460 N.3    64  ASN64      -0.1240
     42  CA        -9.1620    1.3570    6.5650 C.3    64  ASN64       0.1653
     43  C        -10.3600    1.7550    5.7530 C.2    64  ASN64       0.2266
     44  O        -10.1920    2.1630    4.6030 O.2    64  ASN64      -0.2867
     45  CB        -8.4020    2.6490    6.9080 C.3    64  ASN64       0.1155
     46  CG        -7.3020    2.4590    7.8980 C.2    64  ASN64       0.2627
     47  OD1       -7.1670    1.4050    8.5600 O.2    64  ASN64      -0.2716
     48  ND2       -6.4510    3.5270    8.0450 N.am   64  ASN64      -0.0877
     49  N        -12.5030    6.1930   11.2680 N.3    89  GLN89      -0.1245
     50  CA       -12.2260    5.0510   10.3800 C.3    89  GLN89       0.1566
     51  C        -12.4940    3.7710   11.1530 C.2    89  GLN89       0.2260
     52  O        -12.5330    3.8090   12.4010 O.2    89  GLN89      -0.2867
     53  CB       -10.7910    5.0240    9.8540 C.3    89  GLN89       0.0367
     54  CG        -9.6780    5.1390   10.9870 C.3    89  GLN89       0.0905
     55  CD        -8.9360    3.8510   11.1700 C.2    89  GLN89       0.2608
     56  OE1       -9.5140    2.7710   11.1830 O.2    89  GLN89      -0.2717
     57  NE2       -7.6530    3.9860   11.5950 N.am   89  GLN89      -0.0878
     58  N        -11.0570   -0.5560   10.9080 N.3    91  HIS91      -0.1241
     59  CA       -10.1470   -1.5210   10.2810 C.3    91  HIS91       0.1621
     60  C        -10.2080   -2.7830   11.1180 C.2    91  HIS91       0.2264
     61  O        -10.8850   -2.8010   12.1840 O.2    91  HIS91      -0.2867
     62  CB        -8.6900   -0.9930   10.2190 C.3    91  HIS91       0.0745
     63  CG        -8.1570   -0.7130   11.6040 C.ar   91  HIS91       0.0817
     64  ND1       -8.3530    0.5090   12.2410 N.ar   91  HIS91      -0.2268
     65  CD2       -7.5310   -1.5290   12.5050 C.ar   91  HIS91       0.1154
     66  CE1       -7.8340    0.4090   13.4800 C.ar   91  HIS91       0.1986
     67  NE2       -7.3200   -0.8100   13.6500 N.ar   91  HIS91      -0.2212
     68  N         -7.9020   -6.5250   12.4450 N.3    93  HIS93      -0.1241
     69  CA        -6.6860   -7.3090   12.5930 C.3    93  HIS93       0.1621
     70  C         -7.1320   -8.7690   12.4580 C.2    93  HIS93       0.2264
     71  O         -8.1770   -9.1430   13.0150 O.2    93  HIS93      -0.2867
     72  CB        -6.0020   -7.1200   13.9580 C.3    93  HIS93       0.0745
     73  CG        -5.7250   -5.6750   14.2790 C.ar   93  HIS93       0.0817
     74  ND1       -4.4890   -5.0950   14.0610 N.ar   93  HIS93      -0.2268
     75  CD2       -6.5650   -4.6520   14.6410 C.ar   93  HIS93       0.1154
     76  CE1       -4.5610   -3.7960   14.3620 C.ar   93  HIS93       0.1986
     77  NE2       -5.8090   -3.5010   14.6770 N.ar   93  HIS93      -0.2212
     78  N        -11.8370   -2.6700   14.8220 N.3   116  HIS116     -0.1241
     79  CA       -11.5840   -1.4780   15.6380 C.3   116  HIS116      0.1621
     80  C        -12.3120   -0.3180   14.9500 C.2   116  HIS116      0.2264
     81  O        -11.9260    0.0410   13.8040 O.2   116  HIS116     -0.2867
     82  CB       -10.0860   -1.1900   15.6950 C.3   116  HIS116      0.0745
     83  CG        -9.4210   -2.1970   16.5950 C.ar  116  HIS116      0.0817
     84  ND1       -8.0740   -2.4530   16.6210 N.ar  116  HIS116     -0.2268
     85  CD2       -9.9700   -3.0270   17.5240 C.ar  116  HIS116      0.1154
     86  CE1       -7.7830   -3.3630   17.5150 C.ar  116  HIS116      0.1986
     87  NE2       -8.9220   -3.7450   18.1030 N.ar  116  HIS116     -0.2212
     88  N        -12.5880    3.4480   15.2130 N.3   118  VAL118     -0.1245
     89  CA       -11.7850    4.5000   15.8660 C.3   118  VAL118      0.1561
     90  C        -12.4650    5.8210   15.9170 C.2   118  VAL118      0.2260
     91  O        -12.9140    6.3210   14.8360 O.2   118  VAL118     -0.2867
     92  CB       -10.3790    4.6230   15.1250 C.3   118  VAL118      0.0252
     93  CG1       -9.5300    5.7330   15.7120 C.3   118  VAL118      0.0019
     94  CG2       -9.6390    3.2640   15.0340 C.3   118  VAL118      0.0019
     95  N         -8.3070   14.6130   14.7490 N.3   127  PHE127     -0.1241
     96  CA        -7.6300   13.3940   15.1810 C.3   127  PHE127      0.1605
     97  C         -6.1640   13.6520   15.5730 C.2   127  PHE127      0.2264
     98  O         -5.7090   13.0580   16.5780 O.2   127  PHE127     -0.2867
     99  CB        -7.7570   12.3970   14.0150 C.3   127  PHE127      0.0534
    100  CG        -7.0660   11.1040   14.2490 C.ar  127  PHE127     -0.0203
    101  CD1       -7.7050   10.0200   14.9430 C.ar  127  PHE127     -0.0042
    102  CD2       -5.7230   10.9610   13.8670 C.ar  127  PHE127     -0.0042
    103  CE1       -6.9960    8.8520   15.1440 C.ar  127  PHE127     -0.0003
    104  CE2       -5.0270    9.7770   14.0800 C.ar  127  PHE127     -0.0003
    105  CZ        -5.6600    8.7150   14.7580 C.ar  127  PHE127     -0.0000
    106  N         -8.8500    9.4380   22.2280 N.3   137  LEU137     -0.1245
    107  CA        -9.5360    8.4860   21.3550 C.3   137  LEU137      0.1561
    108  C        -10.4520    7.5700   22.1620 C.2   137  LEU137      0.2260
    109  O        -10.1440    7.3000   23.3410 O.2   137  LEU137     -0.2867
    110  CB        -8.5470    7.5630   20.6190 C.3   137  LEU137      0.0270
    111  CG        -7.6460    8.2840   19.6290 C.3   137  LEU137      0.0019
    112  CD1       -6.8820    7.3000   18.7680 C.3   137  LEU137      0.0001
    113  CD2       -8.2870    9.3430   18.6900 C.3   137  LEU137      0.0001
    114  N        -11.8920    3.6890   21.1840 N.3   139  VAL139     -0.1245
    115  CA       -11.9660    2.6850   20.1730 C.3   139  VAL139      0.1561
    116  C        -12.9390    1.5800   20.6320 C.2   139  VAL139      0.2260
    117  O        -12.8120    1.0580   21.7540 O.2   139  VAL139     -0.2867
    118  CB       -10.5720    2.0710   19.8430 C.3   139  VAL139      0.0252
    119  CG1      -10.7420    0.9940   18.6940 C.3   139  VAL139      0.0019
    120  CG2       -9.5880    3.1230   19.4220 C.3   139  VAL139      0.0019
    121  N         -2.8030    3.0900   21.2570 N.3   194  LEU194     -0.1231
    122  CA        -2.8850    2.4960   19.8990 C.3   194  LEU194      0.1693
    123  C         -2.1810    1.1520   19.9690 C.2   194  LEU194      0.2593
    124  O         -1.1550    0.9960   20.7150 O.2   194  LEU194     -0.2718
    125  CB        -2.1290    3.3450   18.9120 C.3   194  LEU194      0.0284
    126  CG        -2.4710    4.8170   18.8250 C.3   194  LEU194      0.0019
    127  CD1       -1.6120    5.4780   17.6760 C.3   194  LEU194      0.0001
    128  CD2       -3.7660    5.3640   18.8880 C.3   194  LEU194      0.0001
    129  N         -2.6190    0.1690   19.1460 N.am  195  THR195     -0.1939
    130  CA        -1.9550   -1.1040   19.1160 C.3   195  THR195      0.2028
    131  C         -0.9330   -1.1660   17.9910 C.2   195  THR195      0.2643
    132  O         -0.2880   -2.2230   17.8310 O.2   195  THR195     -0.2714
    133  CB        -2.9880   -2.2400   18.9570 C.3   195  THR195      0.1808
    134  OG1       -3.5420   -2.1820   17.6480 O.3   195  THR195     -0.2208
    135  CG2       -4.0110   -2.2660   20.0810 C.3   195  THR195      0.0379
    136  N         -0.8220   -0.0760   17.2080 N.am  196  THR196     -0.1937
    137  CA         0.2510   -0.0080   16.1870 C.3   196  THR196      0.2013
    138  C          1.0860    1.2080   16.4950 C.2   196  THR196      0.2484
    139  O          0.6060    2.1580   17.1340 O.2   196  THR196     -0.2729
    140  CB        -0.3090    0.2690   14.7890 C.3   196  THR196      0.1807
    141  OG1       -1.0840    1.4890   14.8490 O.3   196  THR196     -0.2208
    142  CG2       -1.1800   -0.8220   14.3100 C.3   196  THR196      0.0379
    143  N          2.3650    1.1970   16.0410 N.am  197  PRO197     -0.2715
    144  CA         3.1540    2.4650   16.1650 C.3   197  PRO197      0.1521
    145  C          2.2470    3.6400   15.6430 C.2   197  PRO197      0.2440
    146  O          1.5640    3.5240   14.5760 O.2   197  PRO197     -0.2731
    147  CB         4.3550    2.2290   15.2300 C.3   197  PRO197      0.0310
    148  CG         4.5310    0.6760   15.3820 C.3   197  PRO197      0.0237
    149  CD         3.1280    0.1090   15.3770 C.3   197  PRO197      0.0939
    150  N          2.3590    4.8190   16.2640 N.am  198  PRO198     -0.2727
    151  CA         3.3200    5.2180   17.3200 C.3   198  PRO198      0.1402
    152  C          2.9340    4.7900   18.7850 C.2   198  PRO198      0.2269
    153  O          3.5730    5.2400   19.7520 O.2   198  PRO198     -0.2865
    154  CB         3.3630    6.7540   17.1570 C.3   198  PRO198      0.0296
    155  CG         1.9470    7.0950   16.6520 C.3   198  PRO198      0.0237
    156  CD         1.5820    5.9790   15.7270 C.3   198  PRO198      0.0939
    157  N         -5.9170    6.1490   24.3520 N.3   203  VAL203     -0.1245
    158  CA        -7.1770    5.4460   24.0230 C.3   203  VAL203      0.1561
    159  C         -7.9620    4.9680   25.2280 C.2   203  VAL203      0.2260
    160  O         -7.4050    4.3090   26.0900 O.2   203  VAL203     -0.2867
    161  CB        -6.9280    4.1750   23.1500 C.3   203  VAL203      0.0252
    162  CG1       -8.2880    3.4860   22.7810 C.3   203  VAL203      0.0019
    163  CG2       -6.1130    4.5300   21.8990 C.3   203  VAL203      0.0019
    164  N        -10.3530    2.1800   25.6970 N.3   205  TRP205     -0.1241
    165  CA       -10.8150    0.9920   24.9890 C.3   205  TRP205      0.1605
    166  C        -12.2050    0.5820   25.4980 C.2   205  TRP205      0.2264
    167  O        -12.4350    0.5130   26.7440 O.2   205  TRP205     -0.2867
    168  CB        -9.8090   -0.2150   25.2120 C.3   205  TRP205      0.0550
    169  CG        -8.7030   -0.0800   24.2410 C.ar  205  TRP205      0.0003
    170  CD1       -7.4830    0.5430   24.4370 C.ar  205  TRP205      0.0946
    171  CD2       -8.7490   -0.4750   22.8550 C.ar  205  TRP205      0.0152
    172  NE1       -6.7620    0.5790   23.2640 N.ar  205  TRP205     -0.2442
    173  CE2       -7.5040   -0.0610   22.2710 C.ar  205  TRP205      0.0810
    174  CE3       -9.7410   -1.1150   22.0290 C.ar  205  TRP205      0.0012
    175  CZ2       -7.2000   -0.2840   20.8940 C.ar  205  TRP205      0.0191
    176  CZ3       -9.4480   -1.3870   20.7250 C.ar  205  TRP205      0.0001
    177  CH2       -8.1780   -0.9620   20.1370 C.ar  205  TRP205      0.0015
@<TRIPOS>BOND
     1    21    20    1
     2    16    15    1
     3    16    17    1
     4    16    19    1
     5    17    18    2
     6    20    19    1
     7    20    22    1
     8    23    24    1
     9    24    25    1
    10    24    27    1
    11    25    26    2
    12    44    43    2
    13    27    28    1
    14    43    42    1
    15    41    42    1
    16    31    32    1
    17    28    29    2
    18    28    30   am
    19    42    45    1
    20    45    46    1
    21    32    33    1
    22    32    35    1
    23    33    34    2
    24    46    48   am
    25    46    47    2
    26    38    40   ar
    27    38    36   ar
    28    40    39   ar
    29    36    35    1
    30    36    37   ar
    31    39    37   ar
    32     4     3    2
    33    53    50    1
    34    53    54    1
    35    62    59    1
    36    62    63    1
    37    59    58    1
    38    59    60    1
    39    50    51    1
    40    50    49    1
    41     1     2    1
    42     3     2    1
    43    54    55    1
    44    60    61    2
    45    51    52    2
    46    55    56    2
    47    55    57   am
    48     2     5    1
    49     9    10   ar
    50     9     7   ar
    51    63    64   ar
    52    63    65   ar
    53    12    10   ar
    54    12    14   ar
    55    10     8   ar
    56     7     6   ar
    57    14    13   ar
    58     8     6   ar
    59     8    11   ar
    60     6     5    1
    61    13    11   ar
    62    64    66   ar
    63    68    69    1
    64    70    69    1
    65    70    71    2
    66    65    67   ar
    67    69    72    1
    68    66    67   ar
    69    81    80    2
    70   102   104   ar
    71   102   100   ar
    72    72    73    1
    73    99   100    1
    74    99    96    1
    75    74    73   ar
    76    74    76   ar
    77   104   105   ar
    78   100   101   ar
    79    73    75   ar
    80   142   140    1
    81    76    77   ar
    82   146   145    2
    83    75    77   ar
    84    95    96    1
    85   105   103   ar
    86   140   141    1
    87   140   137    1
    88    78    79    1
    89    91    90    2
    90   101   103   ar
    91    80    79    1
    92    94    92    1
    93    92    93    1
    94    92    89    1
    95    96    97    1
    96    88    89    1
    97   147   148    1
    98   147   144    1
    99   149   148    1
   100   149   143    1
   101    97    98    2
   102    79    82    1
   103   145   144    1
   104   145   150   am
   105    82    83    1
   106   156   150    1
   107   156   155    1
   108    89    90    1
   109   143   144    1
   110   143   138   am
   111   137   138    1
   112   137   136    1
   113   150   151    1
   114   138   139    2
   115    83    84   ar
   116    83    85   ar
   117    84    86   ar
   118   155   154    1
   119   154   151    1
   120   136   131   am
   121   151   152    1
   122    86    87   ar
   123    85    87   ar
   124   134   133    1
   125   127   126    1
   126   132   131    2
   127   131   130    1
   128   113   111    1
   129   119   118    1
   130   112   111    1
   131   152   153    2
   132   126   128    1
   133   126   125    1
   134   125   122    1
   135   133   130    1
   136   133   135    1
   137   130   129    1
   138   129   123   am
   139   120   118    1
   140   111   110    1
   141   118   115    1
   142   122   123    1
   143   122   121    1
   144   123   124    2
   145   177   176   ar
   146   177   175   ar
   147   115   116    1
   148   115   114    1
   149   110   107    1
   150   116   117    2
   151   176   174   ar
   152   175   173   ar
   153   107   108    1
   154   107   106    1
   155   163   161    1
   156   174   171   ar
   157   108   109    2
   158   173   171   ar
   159   173   172   ar
   160   162   161    1
   161   171   169   ar
   162   161   158    1
   163   172   170   ar
   164   158   157    1
   165   158   159    1
   166   169   170   ar
   167   169   168    1
   168   165   168    1
   169   165   166    1
   170   165   164    1
   171   159   160    2
   172   166   167    2
