@<TRIPOS>MOLECULE
tmp/3m9fA00.pdb
 133 126 0 0 0
SMALL
GASTEIGER

@<TRIPOS>ATOM
      1  N         -2.5250   19.0580   -5.7340 N.3     8  ARG8       -0.1245
      2  CA        -3.7280   18.3990   -6.2550 C.3     8  ARG8        0.1563
      3  C         -3.3240   16.9950   -6.7100 C.2     8  ARG8        0.2260
      4  O         -2.2960   16.8620   -7.4100 O.2     8  ARG8       -0.2867
      5  CB        -4.3140   19.1700   -7.4410 C.3     8  ARG8        0.0307
      6  CG        -4.9390   20.5150   -7.0420 C.3     8  ARG8        0.0489
      7  CD        -5.6060   21.2180   -8.2210 C.3     8  ARG8        0.2205
      8  NE        -5.9970   22.5760   -7.8370 N.pl3   8  ARG8       -0.0865
      9  CZ        -5.9240   23.6520   -8.6280 C.cat   8  ARG8        0.5346
     10  NH1       -5.4910   23.5540   -9.8880 N.pl3   8  ARG8        0.1354
     11  NH2       -6.2860   24.8400   -8.1560 N.pl3   8  ARG8        0.1354
     12  N         -8.4760   14.6100  -11.5720 N.3    23  LEU23      -0.1245
     13  CA        -8.3020   14.8320  -10.1440 C.3    23  LEU23       0.1561
     14  C         -8.9480   13.6940   -9.3600 C.2    23  LEU23       0.2260
     15  O        -10.1220   13.4110   -9.5490 O.2    23  LEU23      -0.2867
     16  CB        -8.9810   16.1530   -9.7820 C.3    23  LEU23       0.0270
     17  CG        -8.8630   16.6910   -8.3740 C.3    23  LEU23       0.0019
     18  CD1       -7.3920   16.9800   -8.0610 C.3    23  LEU23       0.0001
     19  CD2       -9.7560   17.9690   -8.2690 C.3    23  LEU23       0.0001
     20  N        -10.8440   12.6510   -6.4120 N.3    25  ASP25      -0.1239
     21  CA       -11.6520   13.6060   -5.6490 C.3    25  ASP25       0.1674
     22  C        -12.6070   12.8570   -4.7250 C.2    25  ASP25       0.2266
     23  O        -13.6890   12.4380   -5.1510 O.2    25  ASP25      -0.2867
     24  CB       -12.4050   14.5150   -6.6270 C.3    25  ASP25       0.1410
     25  CG       -13.1740   15.6420   -5.9310 C.2    25  ASP25       0.3668
     26  OD1      -13.3470   15.5870   -4.6990 O.co2  25  ASP25      -0.2456
     27  OD2      -13.5890   16.5940   -6.6300 O.co2  25  ASP25      -0.2456
     28  N        -14.3240   14.0100   -2.3590 N.3    27  GLY27      -0.1210
     29  CA       -15.5230   14.8320   -2.1080 C.3    27  GLY27       0.1956
     30  C        -16.6060   14.7140   -3.1750 C.2    27  GLY27       0.2612
     31  O        -17.7610   15.0720   -2.9380 O.2    27  GLY27      -0.2717
     32  N        -16.2280   14.2100   -4.3540 N.am   28  ALA28      -0.1965
     33  CA       -17.1490   14.0590   -5.4750 C.3    28  ALA28       0.1728
     34  C        -17.8860   12.7130   -5.4350 C.2    28  ALA28       0.2616
     35  O        -17.2610   11.6470   -5.4860 O.2    28  ALA28      -0.2715
     36  CB       -16.3820   14.2070   -6.7890 C.3    28  ALA28       0.0334
     37  N        -19.2160   12.7640   -5.3440 N.am   29  ASP29      -0.1957
     38  CA       -20.0240   11.5430   -5.4500 C.3    29  ASP29       0.1840
     39  C        -19.7930   10.8490   -6.7840 C.2    29  ASP29       0.2622
     40  O        -19.7670    9.6160   -6.8620 O.2    29  ASP29      -0.2715
     41  CB       -21.5210   11.8880   -5.4120 C.3    29  ASP29       0.1450
     42  CG       -21.9850   12.3790   -4.0620 C.2    29  ASP29       0.3671
     43  OD1      -23.0770   12.9940   -4.0190 O.co2  29  ASP29      -0.2456
     44  OD2      -21.2910   12.1430   -3.0550 O.co2  29  ASP29      -0.2456
     45  N        -19.6780   11.6610   -7.8330 N.am   30  ASP30      -0.1971
     46  CA       -19.6760   11.1780   -9.2120 C.3    30  ASP30       0.1709
     47  C        -18.4330   11.6410   -9.9680 C.2    30  ASP30       0.2293
     48  O        -17.8230   12.6440   -9.6410 O.2    30  ASP30      -0.2864
     49  CB       -20.8960   11.7210   -9.9610 C.3    30  ASP30       0.1436
     50  CG       -22.2160   11.3990   -9.2630 C.2    30  ASP30       0.3671
     51  OD1      -22.4190   10.2370   -8.8360 O.co2  30  ASP30      -0.2456
     52  OD2      -23.0580   12.3040   -9.1680 O.co2  30  ASP30      -0.2456
     53  N        -16.9160   13.2960  -13.1740 N.3    32  VAL32      -0.1245
     54  CA       -17.3350   14.3240  -14.1260 C.3    32  VAL32       0.1561
     55  C        -16.1630   14.7850  -14.9640 C.2    32  VAL32       0.2260
     56  O        -15.1390   15.2340  -14.4290 O.2    32  VAL32      -0.2867
     57  CB       -17.9180   15.5940  -13.4450 C.3    32  VAL32       0.0252
     58  CG1      -18.7050   16.4230  -14.4900 C.3    32  VAL32       0.0019
     59  CG2      -18.7970   15.2160  -12.2990 C.3    32  VAL32       0.0019
     60  N        -28.6650   15.0540  -16.5800 N.3    45  LYS45      -0.1231
     61  CA       -28.5630   15.0160  -15.1340 C.3    45  LYS45       0.1693
     62  C        -28.0780   16.3860  -14.6870 C.2    45  LYS45       0.2592
     63  O        -27.3670   17.0550  -15.4280 O.2    45  LYS45      -0.2718
     64  CB       -27.5470   13.9520  -14.7010 C.3    45  LYS45       0.0285
     65  CG       -27.4750   13.7250  -13.1670 C.3    45  LYS45       0.0035
     66  CD       -26.4870   12.5890  -12.8730 C.3    45  LYS45       0.0206
     67  CE       -26.1290   12.4540  -11.4160 C.3    45  LYS45       0.1093
     68  NZ       -27.2820   12.0260  -10.5900 N.3    45  LYS45      -0.1314
     69  N        -28.4900   16.8010  -13.4970 N.am   46  MET46      -0.1965
     70  CA       -27.9630   18.0060  -12.8540 C.3    46  MET46       0.1736
     71  C        -27.1150   17.5970  -11.6780 C.2    46  MET46       0.2616
     72  O        -27.5270   16.7730  -10.8470 O.2    46  MET46      -0.2715
     73  CB       -29.1050   18.9230  -12.3720 C.3    46  MET46       0.0427
     74  CG       -29.8860   19.5760  -13.4860 C.3    46  MET46       0.0599
     75  SD       -28.9940   20.9570  -14.1880 S.3    46  MET46      -0.1393
     76  CE       -29.4890   22.2800  -13.0610 C.3    46  MET46       0.0692
     77  N        -25.9080   18.1500  -11.6120 N.am   47  ILE47      -0.1963
     78  CA       -25.0480   17.9260  -10.4630 C.3    47  ILE47       0.1727
     79  C        -24.6500   19.2610   -9.8620 C.2    47  ILE47       0.2617
     80  O        -24.5200   20.2800  -10.5640 O.2    47  ILE47      -0.2715
     81  CB       -23.8020   17.0780  -10.7920 C.3    47  ILE47       0.0290
     82  CG1      -22.9710   17.7450  -11.8900 C.3    47  ILE47       0.0022
     83  CG2      -24.1930   15.6500  -11.1680 C.3    47  ILE47       0.0023
     84  CD1      -21.5850   17.1400  -12.0630 C.3    47  ILE47       0.0001
     85  N        -24.4840   19.2620   -8.5460 N.am   48  GLY48      -0.1940
     86  CA       -24.3860   20.5190   -7.8490 C.3    48  GLY48       0.2014
     87  C        -23.2160   20.5140   -6.9310 C.2    48  GLY48       0.2639
     88  O        -22.5570   19.4880   -6.7400 O.2    48  GLY48      -0.2714
     89  N        -22.9530   21.6950   -6.4030 N.am   49  GLY49      -0.1939
     90  CA       -22.0800   21.8580   -5.2720 C.3    49  GLY49       0.2014
     91  C        -21.6660   23.3060   -5.2050 C.2    49  GLY49       0.2638
     92  O        -22.4810   24.1900   -5.3920 O.2    49  GLY49      -0.2714
     93  N        -20.3950   23.5520   -4.9340 N.am   50  ILE50      -0.1977
     94  CA       -19.9630   24.9230   -4.7340 C.3    50  ILE50       0.1596
     95  C        -20.2120   25.6860   -6.0240 C.2    50  ILE50       0.2287
     96  O        -19.8770   25.2180   -7.0960 O.2    50  ILE50      -0.2864
     97  CB       -18.5250   24.9940   -4.2070 C.3    50  ILE50       0.0276
     98  CG1      -18.6110   24.7690   -2.6800 C.3    50  ILE50       0.0022
     99  CG2      -17.9040   26.3110   -4.5520 C.3    50  ILE50       0.0022
    100  CD1      -17.3810   25.0510   -1.8870 C.3    50  ILE50       0.0001
    101  N        -25.4040   24.4810   -9.7120 N.3    53  PHE53      -0.1241
    102  CA       -25.5480   23.2370  -10.4680 C.3    53  PHE53       0.1605
    103  C        -25.1410   23.4090  -11.9100 C.2    53  PHE53       0.2264
    104  O        -25.2160   24.5080  -12.4470 O.2    53  PHE53      -0.2867
    105  CB       -27.0020   22.7460  -10.4300 C.3    53  PHE53       0.0534
    106  CG       -27.3910   22.1210   -9.1340 C.ar   53  PHE53      -0.0203
    107  CD1      -27.5310   20.7410   -9.0300 C.ar   53  PHE53      -0.0042
    108  CD2      -27.6450   22.9120   -8.0090 C.ar   53  PHE53      -0.0042
    109  CE1      -27.9020   20.1520   -7.8170 C.ar   53  PHE53      -0.0003
    110  CE2      -28.0350   22.3200   -6.8090 C.ar   53  PHE53      -0.0003
    111  CZ       -28.1410   20.9420   -6.7170 C.ar   53  PHE53      -0.0000
    112  N        -14.8810   22.6030  -14.5100 N.3    81  PRO81      -0.2102
    113  CA       -13.6080   23.2970  -14.7700 C.3    81  PRO81       0.1504
    114  C        -12.3660   22.3780  -14.7450 C.2    81  PRO81       0.2575
    115  O        -11.2840   22.8040  -15.1290 O.2    81  PRO81      -0.2718
    116  CB       -13.5520   24.3540  -13.6610 C.3    81  PRO81       0.0282
    117  CG       -14.3660   23.7910  -12.5510 C.3    81  PRO81       0.0208
    118  CD       -15.4450   22.9360  -13.1860 C.3    81  PRO81       0.0893
    119  N        -12.5350   21.1270  -14.3100 N.am   82  VAL82      -0.1980
    120  CA       -11.4480   20.1630  -14.1600 C.3    82  VAL82       0.1595
    121  C        -12.0130   18.7320  -14.2900 C.2    82  VAL82       0.2287
    122  O        -13.1280   18.4780  -13.8570 O.2    82  VAL82      -0.2864
    123  CB       -10.6620   20.3610  -12.7780 C.3    82  VAL82       0.0276
    124  CG1      -11.6130   20.4510  -11.5790 C.3    82  VAL82       0.0022
    125  CG2       -9.6900   19.2340  -12.5240 C.3    82  VAL82       0.0022
    126  N        -12.7380   15.2800  -13.0560 N.3    84  ILE84      -0.1245
    127  CA       -12.8250   14.7380  -11.6940 C.3    84  ILE84       0.1561
    128  C        -13.1420   13.2420  -11.7020 C.2    84  ILE84       0.2260
    129  O        -14.1060   12.8070  -12.3450 O.2    84  ILE84      -0.2867
    130  CB       -13.9140   15.5030  -10.8880 C.3    84  ILE84       0.0252
    131  CG1      -13.4880   16.9560  -10.6420 C.3    84  ILE84       0.0019
    132  CG2      -14.2530   14.7940   -9.5650 C.3    84  ILE84       0.0019
    133  CD1      -14.6900   17.8680  -10.3890 C.3    84  ILE84       0.0001
@<TRIPOS>BOND
     1    60    61    1
     2    63    62    2
     3    61    64    1
     4    61    62    1
     5   115   114    2
     6    55    56    2
     7    55    54    1
     8   113   114    1
     9   113   112    1
    10   113   116    1
    11   114   119   am
    12    64    65    1
    13    62    69   am
    14   112   118    1
    15    58    57    1
    16   119   120    1
    17   121   120    1
    18   121   122    2
    19    75    74    1
    20    75    76    1
    21   120   123    1
    22    54    57    1
    23    54    53    1
    24   116   117    1
    25    69    70    1
    26    74    73    1
    27    57    59    1
    28   118   117    1
    29    65    66    1
    30   126   127    1
    31    66    67    1
    32    70    73    1
    33    70    71    1
    34   123   125    1
    35   123   124    1
    36   104   103    2
    37   129   128    2
    38    84    82    1
    39   103   102    1
    40    82    81    1
    41   128   127    1
    42   127   130    1
    43    71    77   am
    44    71    72    2
    45    77    78    1
    46    12    13    1
    47    67    68    1
    48    83    81    1
    49   130   131    1
    50   130   132    1
    51    81    78    1
    52   131   133    1
    53    80    79    2
    54   102   105    1
    55   102   101    1
    56    78    79    1
    57   105   106    1
    58    13    16    1
    59    13    14    1
    60    47    48    2
    61    47    46    1
    62    49    50    1
    63    49    46    1
    64    10     9    1
    65    79    85   am
    66    16    17    1
    67    15    14    2
    68    50    52   ar
    69    50    51   ar
    70    46    45    1
    71   106   107   ar
    72   106   108   ar
    73   107   109   ar
    74     9    11    1
    75     9     8    2
    76    85    86    1
    77    17    19    1
    78    17    18    1
    79     7     8    1
    80     7     6    1
    81   108   110   ar
    82    86    87    1
    83    45    39   am
    84   109   111   ar
    85     5     6    1
    86     5     2    1
    87     4     3    2
    88    96    95    2
    89    87    88    2
    90    87    89   am
    91    40    39    2
    92   110   111   ar
    93    36    33    1
    94    39    38    1
    95     3     2    1
    96    27    25   ar
    97    24    25    1
    98    24    21    1
    99    20    21    1
   100    89    90    1
   101     2     1    1
   102    95    94    1
   103    25    26   ar
   104    21    22    1
   105    35    34    2
   106    33    34    1
   107    33    32    1
   108    38    41    1
   109    38    37    1
   110    34    37   am
   111    41    42    1
   112    92    91    2
   113    90    91    1
   114    91    93   am
   115    23    22    2
   116    93    94    1
   117    94    97    1
   118    99    97    1
   119    32    30   am
   120    97    98    1
   121    42    43   ar
   122    42    44   ar
   123    30    31    2
   124    30    29    1
   125    98   100    1
   126    28    29    1
