@<TRIPOS>MOLECULE
tmp/3m9iA05.pdb
 86 83 0 0 0
SMALL
GASTEIGER

@<TRIPOS>ATOM
      1  N         23.8630   -2.7290   40.9350 N.3     1  ALA1       -0.1245
      2  CA        23.1120   -3.8120   41.6290 C.3     1  ALA1        0.1562
      3  C         23.3890   -5.1680   40.9850 C.2     1  ALA1        0.2260
      4  O         23.8720   -5.2430   39.8550 O.2     1  ALA1       -0.2867
      5  CB        21.6170   -3.5110   41.5900 C.3     1  ALA1        0.0290
      6  N         21.4190   -5.1660   37.5460 N.3     4  TRP4       -0.1227
      7  CA        21.9340   -4.5350   36.3390 C.3     4  TRP4        0.1737
      8  C         23.2060   -5.2070   35.8900 C.2     4  TRP4        0.2595
      9  O         23.6040   -5.1030   34.7360 O.2     4  TRP4       -0.2718
     10  CB        22.1600   -3.0460   36.5680 C.3     4  TRP4        0.0564
     11  CG        20.8640   -2.3190   36.6310 C.ar    4  TRP4        0.0003
     12  CD1       20.2350   -1.8440   37.7480 C.ar    4  TRP4        0.0946
     13  CD2       19.9860   -2.0560   35.5320 C.ar    4  TRP4        0.0152
     14  NE1       19.0200   -1.3040   37.4110 N.ar    4  TRP4       -0.2442
     15  CE2       18.8390   -1.4200   36.0570 C.ar    4  TRP4        0.0810
     16  CE3       20.0560   -2.2990   34.1500 C.ar    4  TRP4        0.0012
     17  CZ2       17.7660   -1.0190   35.2500 C.ar    4  TRP4        0.0191
     18  CZ3       18.9860   -1.9010   33.3430 C.ar    4  TRP4        0.0001
     19  CH2       17.8570   -1.2680   33.8990 C.ar    4  TRP4        0.0015
     20  N         23.8420   -5.8990   36.8190 N.am    5  ARG5       -0.1980
     21  CA        25.0440   -6.6320   36.5010 C.3     5  ARG5        0.1597
     22  C         24.5060   -7.8640   35.7810 C.2     5  ARG5        0.2287
     23  O         25.1450   -8.4060   34.8830 O.2     5  ARG5       -0.2864
     24  CB        25.7660   -7.0110   37.7910 C.3     5  ARG5        0.0334
     25  CG        27.1710   -7.5600   37.6150 C.3     5  ARG5        0.0492
     26  CD        28.0200   -7.1730   38.8230 C.3     5  ARG5        0.2205
     27  NE        27.3340   -7.4820   40.0770 N.pl3   5  ARG5       -0.0865
     28  CZ        27.4680   -6.7780   41.1970 C.cat   5  ARG5        0.5346
     29  NH1       28.2690   -5.7170   41.2250 N.pl3   5  ARG5        0.1354
     30  NH2       26.7870   -7.1220   42.2840 N.pl3   5  ARG5        0.1354
     31  N         21.3920   -7.8640   34.1680 N.3     7  ILE7       -0.1231
     32  CA        20.7700   -7.3990   32.9250 C.3     7  ILE7        0.1692
     33  C         21.8670   -7.0630   31.9320 C.2     7  ILE7        0.2592
     34  O         21.7190   -7.2790   30.7300 O.2     7  ILE7       -0.2718
     35  CB        19.9200   -6.1270   33.1260 C.3     7  ILE7        0.0266
     36  CG1       18.7480   -6.4160   34.0680 C.3     7  ILE7        0.0019
     37  CG2       19.4240   -5.6070   31.7660 C.3     7  ILE7        0.0020
     38  CD1       17.8700   -7.5510   33.6230 C.3     7  ILE7        0.0001
     39  N         22.9680   -6.5170   32.4380 N.am    8  PHE8       -0.1976
     40  CA        24.1000   -6.1730   31.5900 C.3     8  PHE8        0.1639
     41  C         24.6200   -7.4490   30.9520 C.2     8  PHE8        0.2290
     42  O         24.7980   -7.5290   29.7340 O.2     8  PHE8       -0.2864
     43  CB        25.2340   -5.5580   32.4100 C.3     8  PHE8        0.0560
     44  CG        26.5690   -5.6390   31.7270 C.ar    8  PHE8       -0.0200
     45  CD1       26.9200   -4.7160   30.7420 C.ar    8  PHE8       -0.0042
     46  CD2       27.4370   -6.6990   31.9960 C.ar    8  PHE8       -0.0042
     47  CE1       28.1060   -4.8500   30.0310 C.ar    8  PHE8       -0.0003
     48  CE2       28.6270   -6.8460   31.2900 C.ar    8  PHE8       -0.0003
     49  CZ        28.9630   -5.9200   30.3040 C.ar    8  PHE8       -0.0000
     50  N         22.7000   -8.7410   28.1640 N.3    11  PHE11      -0.1241
     51  CA        22.8720   -7.9680   26.9430 C.3    11  PHE11       0.1605
     52  C         24.1700   -8.3580   26.2470 C.2    11  PHE11       0.2264
     53  O         24.1960   -8.5830   25.0360 O.2    11  PHE11      -0.2867
     54  CB        22.8660   -6.4740   27.2600 C.3    11  PHE11       0.0534
     55  CG        23.4130   -5.6160   26.1580 C.ar   11  PHE11      -0.0203
     56  CD1       24.7770   -5.3230   26.0960 C.ar   11  PHE11      -0.0042
     57  CD2       22.5690   -5.1030   25.1720 C.ar   11  PHE11      -0.0042
     58  CE1       25.2910   -4.5300   25.0640 C.ar   11  PHE11      -0.0003
     59  CE2       23.0750   -4.3080   24.1340 C.ar   11  PHE11      -0.0003
     60  CZ        24.4300   -4.0220   24.0790 C.ar   11  PHE11      -0.0000
     61  N         13.1360   -7.4040   31.6050 N.3    82  CYS82      -0.1235
     62  CA        14.4340   -6.7600   31.4120 C.3    82  CYS82       0.1677
     63  C         15.4050   -7.6570   30.6340 C.2    82  CYS82       0.2270
     64  O         16.2390   -7.1710   29.8690 O.2    82  CYS82      -0.2867
     65  CB        15.0300   -6.3770   32.7720 C.3    82  CYS82       0.0956
     66  SG        14.1280   -5.0460   33.6320 S.3    82  CYS82      -0.0801
     67  N         14.3890   -7.8020   26.9980 N.3    85  VAL85      -0.1231
     68  CA        14.7710   -6.5480   26.3690 C.3    85  VAL85       0.1692
     69  C         16.2850   -6.5310   26.1860 C.2    85  VAL85       0.2591
     70  O         16.7770   -6.2730   25.0850 O.2    85  VAL85      -0.2718
     71  CB        14.3550   -5.3410   27.2130 C.3    85  VAL85       0.0266
     72  CG1       14.7500   -4.0800   26.5060 C.3    85  VAL85       0.0020
     73  CG2       12.8520   -5.3630   27.4480 C.3    85  VAL85       0.0020
     74  N         17.0250   -6.8070   27.2590 N.am   86  ALA86      -0.1980
     75  CA        18.4820   -6.8270   27.1760 C.3    86  ALA86       0.1597
     76  C         18.8950   -7.8250   26.0870 C.2    86  ALA86       0.2287
     77  O         19.7840   -7.5570   25.2890 O.2    86  ALA86      -0.2864
     78  CB        19.0990   -7.2240   28.5410 C.3    86  ALA86       0.0319
     79  N         18.1490   -6.5260   22.6330 N.3    89  LEU89      -0.1245
     80  CA        19.0530   -5.4090   22.3840 C.3    89  LEU89       0.1561
     81  C         20.4550   -5.9610   22.1480 C.2    89  LEU89       0.2260
     82  O         21.1490   -5.5590   21.2160 O.2    89  LEU89      -0.2867
     83  CB        19.0740   -4.4560   23.5840 C.3    89  LEU89       0.0270
     84  CG        17.8680   -3.5450   23.7850 C.3    89  LEU89       0.0019
     85  CD1       18.0240   -2.7480   25.0740 C.3    89  LEU89       0.0001
     86  CD2       17.7600   -2.6180   22.5900 C.3    89  LEU89       0.0001
@<TRIPOS>BOND
     1    82    81    2
     2    81    80    1
     3    80    79    1
     4    80    83    1
     5    86    84    1
     6    83    84    1
     7    84    85    1
     8    60    59   ar
     9    60    58   ar
    10    59    57   ar
    11    53    52    2
    12    58    56   ar
    13    70    69    2
    14    57    55   ar
    15    77    76    2
    16    76    75    1
    17    56    55   ar
    18    55    54    1
    19    69    68    1
    20    69    74   am
    21    52    51    1
    22    68    67    1
    23    68    71    1
    24    72    71    1
    25    51    54    1
    26    51    50    1
    27    75    74    1
    28    75    78    1
    29    71    73    1
    30    42    41    2
    31    64    63    2
    32    47    49   ar
    33    47    45   ar
    34    49    48   ar
    35    63    62    1
    36    34    33    2
    37    45    44   ar
    38    41    40    1
    39    48    46   ar
    40    62    61    1
    41    62    65    1
    42    40    43    1
    43    40    39    1
    44    44    46   ar
    45    44    43    1
    46    37    35    1
    47    33    39   am
    48    33    32    1
    49    65    66    1
    50    32    35    1
    51    32    31    1
    52    35    36    1
    53    18    19   ar
    54    18    16   ar
    55    38    36    1
    56    19    17   ar
    57    16    13   ar
    58     9     8    2
    59    23    22    2
    60    17    15   ar
    61    13    15   ar
    62    13    11   ar
    63    22    21    1
    64     8     7    1
    65     8    20   am
    66    15    14   ar
    67     7    10    1
    68     7     6    1
    69    21    20    1
    70    21    24    1
    71    10    11    1
    72    11    12   ar
    73    14    12   ar
    74    25    24    1
    75    25    26    1
    76    26    27    1
    77     4     3    2
    78    27    28    2
    79     1     2    1
    80     3     2    1
    81    28    29    1
    82    28    30    1
    83     5     2    1
