@<TRIPOS>MOLECULE
tmp/3m9iA02.pdb
 83 80 0 0 0
SMALL
GASTEIGER

@<TRIPOS>ATOM
      1  N         22.7000   -8.7410   28.1640 N.3    11  PHE11      -0.1227
      2  CA        22.8720   -7.9680   26.9430 C.3    11  PHE11       0.1736
      3  C         24.1700   -8.3580   26.2470 C.2    11  PHE11       0.2595
      4  O         24.1960   -8.5830   25.0360 O.2    11  PHE11      -0.2718
      5  CB        22.8660   -6.4740   27.2600 C.3    11  PHE11       0.0547
      6  CG        23.4130   -5.6160   26.1580 C.ar   11  PHE11      -0.0202
      7  CD1       24.7770   -5.3230   26.0960 C.ar   11  PHE11      -0.0042
      8  CD2       22.5690   -5.1030   25.1720 C.ar   11  PHE11      -0.0042
      9  CE1       25.2910   -4.5300   25.0640 C.ar   11  PHE11      -0.0003
     10  CE2       23.0750   -4.3080   24.1340 C.ar   11  PHE11      -0.0003
     11  CZ        24.4300   -4.0220   24.0790 C.ar   11  PHE11      -0.0000
     12  N         25.2500   -8.4470   27.0120 N.am   12  PHE12      -0.1976
     13  CA        26.5360   -8.8150   26.4330 C.3    12  PHE12       0.1639
     14  C         26.6410  -10.2920   26.0340 C.2    12  PHE12       0.2290
     15  O         27.2620  -10.6190   25.0210 O.2    12  PHE12      -0.2864
     16  CB        27.6670   -8.4640   27.3980 C.3    12  PHE12       0.0560
     17  CG        28.5600   -7.3580   26.9070 C.ar   12  PHE12      -0.0200
     18  CD1       29.8780   -7.6230   26.5340 C.ar   12  PHE12      -0.0042
     19  CD2       28.0870   -6.0470   26.8280 C.ar   12  PHE12      -0.0042
     20  CE1       30.7160   -6.5900   26.0890 C.ar   12  PHE12      -0.0003
     21  CE2       28.9100   -5.0060   26.3870 C.ar   12  PHE12      -0.0003
     22  CZ        30.2280   -5.2770   26.0170 C.ar   12  PHE12      -0.0000
     23  N         24.6980  -10.5850   22.9660 N.3    15  LEU15      -0.1245
     24  CA        25.4270   -9.9110   21.9050 C.3    15  LEU15       0.1561
     25  C         26.4430  -10.9000   21.3060 C.2    15  LEU15       0.2260
     26  O         26.4610  -11.1270   20.0980 O.2    15  LEU15      -0.2867
     27  CB        26.1450   -8.6690   22.4650 C.3    15  LEU15       0.0270
     28  CG        26.8810   -7.7190   21.4960 C.3    15  LEU15       0.0019
     29  CD1       27.3230   -6.4740   22.2560 C.3    15  LEU15       0.0001
     30  CD2       28.0940   -8.4070   20.8600 C.3    15  LEU15       0.0001
     31  N         22.4420   -5.9410   18.6160 N.3    93  ALA93      -0.1245
     32  CA        23.7480   -5.3220   18.7150 C.3    93  ALA93       0.1562
     33  C         24.7400   -6.2960   18.1170 C.2    93  ALA93       0.2260
     34  O         25.4630   -5.9720   17.1740 O.2    93  ALA93      -0.2867
     35  CB        24.0920   -5.0460   20.1810 C.3    93  ALA93       0.0290
     36  N         24.6080   -6.3330   14.5630 N.3    96  ALA96      -0.1231
     37  CA        25.0690   -5.1040   13.9100 C.3    96  ALA96       0.1694
     38  C         26.5820   -5.1250   13.7790 C.2    96  ALA96       0.2591
     39  O         27.1290   -4.7740   12.7350 O.2    96  ALA96      -0.2718
     40  CB        24.6390   -3.8780   14.7190 C.3    96  ALA96       0.0304
     41  N         27.2550   -5.5360   14.8470 N.am   97  VAL97      -0.1980
     42  CA        28.7090   -5.6070   14.8370 C.3    97  VAL97       0.1595
     43  C         29.1670   -6.6740   13.8660 C.2    97  VAL97       0.2287
     44  O         30.0550   -6.4280   13.0640 O.2    97  VAL97      -0.2864
     45  CB        29.2990   -5.9680   16.2350 C.3    97  VAL97       0.0276
     46  CG1       30.8060   -5.9300   16.1720 C.3    97  VAL97       0.0022
     47  CG2       28.8010   -5.0120   17.2940 C.3    97  VAL97       0.0022
     48  N         27.8250   -7.6630   11.3940 N.3    99  TYR99      -0.1227
     49  CA        27.5310   -7.0380   10.1060 C.3    99  TYR99       0.1736
     50  C         28.6240   -6.0660    9.6650 C.2    99  TYR99       0.2596
     51  O         28.9800   -6.0040    8.4920 O.2    99  TYR99      -0.2718
     52  CB        26.2270   -6.2580   10.2220 C.3    99  TYR99       0.0548
     53  CG        25.8010   -5.5430    8.9640 C.ar   99  TYR99      -0.0200
     54  CD1       24.8320   -6.0900    8.1250 C.ar   99  TYR99      -0.0009
     55  CD2       26.3450   -4.3070    8.6250 C.ar   99  TYR99      -0.0009
     56  CE1       24.4180   -5.4190    6.9870 C.ar   99  TYR99       0.0417
     57  CE2       25.9360   -3.6320    7.4970 C.ar   99  TYR99       0.0417
     58  CZ        24.9730   -4.1880    6.6830 C.ar   99  TYR99       0.1957
     59  OH        24.5460   -3.5000    5.5700 O.3    99  TYR99      -0.2866
     60  N         29.1230   -5.2840   10.6120 N.am  100  SER100     -0.1952
     61  CA        30.1560   -4.2990   10.3420 C.3   100  SER100      0.1924
     62  C         31.5060   -4.9350   10.0230 C.2   100  SER100      0.2314
     63  O         32.2320   -4.4630    9.1410 O.2   100  SER100     -0.2863
     64  CB        30.2960   -3.3620   11.5480 C.3   100  SER100      0.2116
     65  OG        30.6660   -4.0830   12.7020 O.3   100  SER100     -0.2180
     66  N         30.3820   -7.7190    2.8920 N.3   104  PRO104     -0.2116
     67  CA        29.0500   -7.7380    2.2840 C.3   104  PRO104      0.1372
     68  C         28.7420   -9.0200    1.5130 C.2   104  PRO104      0.2244
     69  O         27.6190   -9.5310    1.5480 O.2   104  PRO104     -0.2868
     70  CB        29.0840   -6.5140    1.3840 C.3   104  PRO104      0.0268
     71  CG        29.9750   -5.5530    2.1880 C.3   104  PRO104      0.0207
     72  CD        31.0910   -6.4620    2.5940 C.3   104  PRO104      0.0892
     73  N         28.2300  -11.8870    4.4490 N.3   107  ARG107     -0.1245
     74  CA        27.0380  -11.7310    5.2560 C.3   107  ARG107      0.1563
     75  C         25.8530  -11.7360    4.2990 C.2   107  ARG107      0.2260
     76  O         25.3490  -10.6880    3.8930 O.2   107  ARG107     -0.2867
     77  CB        27.0870  -10.4310    6.0730 C.3   107  ARG107      0.0307
     78  CG        27.2180   -9.1570    5.2810 C.3   107  ARG107      0.0489
     79  CD        27.0460   -7.9600    6.2010 C.3   107  ARG107      0.2205
     80  NE        27.3750   -6.6930    5.5490 N.pl3 107  ARG107     -0.0865
     81  CZ        26.7360   -6.2030    4.4900 C.cat 107  ARG107      0.5346
     82  NH1       25.7230   -6.8740    3.9510 N.pl3 107  ARG107      0.1354
     83  NH2       27.1150   -5.0430    3.9670 N.pl3 107  ARG107      0.1354
@<TRIPOS>BOND
     1    70    71    1
     2    70    67    1
     3    68    69    2
     4    68    67    1
     5    71    72    1
     6    67    66    1
     7    72    66    1
     8    76    75    2
     9    82    81    1
    10    83    81    1
    11    75    74    1
    12    73    74    1
    13    81    80    2
    14    74    77    1
    15    78    77    1
    16    78    79    1
    17    80    79    1
    18    59    58    1
    19    58    56   ar
    20    58    57   ar
    21    56    54   ar
    22    57    55   ar
    23    54    53   ar
    24    51    50    2
    25    55    53   ar
    26    53    52    1
    27    63    62    2
    28    50    49    1
    29    50    60   am
    30    62    61    1
    31    49    52    1
    32    49    48    1
    33    61    60    1
    34    61    64    1
    35    64    65    1
    36    39    38    2
    37    44    43    2
    38    38    37    1
    39    38    41   am
    40    43    42    1
    41    37    36    1
    42    37    40    1
    43    42    41    1
    44    42    45    1
    45    46    45    1
    46    45    47    1
    47    34    33    2
    48    33    32    1
    49    31    32    1
    50    32    35    1
    51    26    25    2
    52    30    28    1
    53    25    24    1
    54    28    29    1
    55    28    27    1
    56    24    27    1
    57    24    23    1
    58    11    10   ar
    59    11     9   ar
    60    10     8   ar
    61    15    14    2
    62     4     3    2
    63     9     7   ar
    64     8     6   ar
    65    22    20   ar
    66    22    21   ar
    67    14    13    1
    68    20    18   ar
    69     7     6   ar
    70     6     5    1
    71     3     2    1
    72     3    12   am
    73    21    19   ar
    74    13    12    1
    75    13    16    1
    76    18    17   ar
    77    19    17   ar
    78    17    16    1
    79     2     5    1
    80     2     1    1
