@<TRIPOS>MOLECULE
tmp/3m9iA01.pdb
 131 124 0 0 0
SMALL
GASTEIGER

@<TRIPOS>ATOM
      1  N         22.7000   -8.7410   28.1640 N.3    11  PHE11      -0.1241
      2  CA        22.8720   -7.9680   26.9430 C.3    11  PHE11       0.1605
      3  C         24.1700   -8.3580   26.2470 C.2    11  PHE11       0.2264
      4  O         24.1960   -8.5830   25.0360 O.2    11  PHE11      -0.2867
      5  CB        22.8660   -6.4740   27.2600 C.3    11  PHE11       0.0534
      6  CG        23.4130   -5.6160   26.1580 C.ar   11  PHE11      -0.0203
      7  CD1       24.7770   -5.3230   26.0960 C.ar   11  PHE11      -0.0042
      8  CD2       22.5690   -5.1030   25.1720 C.ar   11  PHE11      -0.0042
      9  CE1       25.2910   -4.5300   25.0640 C.ar   11  PHE11      -0.0003
     10  CE2       23.0750   -4.3080   24.1340 C.ar   11  PHE11      -0.0003
     11  CZ        24.4300   -4.0220   24.0790 C.ar   11  PHE11      -0.0000
     12  N         14.3890   -7.8020   26.9980 N.3    85  VAL85      -0.1245
     13  CA        14.7710   -6.5480   26.3690 C.3    85  VAL85       0.1561
     14  C         16.2850   -6.5310   26.1860 C.2    85  VAL85       0.2260
     15  O         16.7770   -6.2730   25.0850 O.2    85  VAL85      -0.2867
     16  CB        14.3550   -5.3410   27.2130 C.3    85  VAL85       0.0252
     17  CG1       14.7500   -4.0800   26.5060 C.3    85  VAL85       0.0019
     18  CG2       12.8520   -5.3630   27.4480 C.3    85  VAL85       0.0019
     19  N         17.1130   -8.9800   23.3690 N.3    88  LEU88      -0.1231
     20  CA        16.7810   -8.4440   22.0420 C.3    88  LEU88       0.1693
     21  C         17.6930   -7.2880   21.6430 C.2    88  LEU88       0.2591
     22  O         17.9630   -7.0800   20.4600 O.2    88  LEU88      -0.2718
     23  CB        15.3410   -7.9490   22.0250 C.3    88  LEU88       0.0284
     24  CG        14.2740   -9.0170   22.1760 C.3    88  LEU88       0.0019
     25  CD1       12.9450   -8.3290   22.3960 C.3    88  LEU88       0.0001
     26  CD2       14.2610   -9.9050   20.9380 C.3    88  LEU88       0.0001
     27  N         18.1490   -6.5260   22.6330 N.am   89  LEU89      -0.1980
     28  CA        19.0530   -5.4090   22.3840 C.3    89  LEU89       0.1596
     29  C         20.4550   -5.9610   22.1480 C.2    89  LEU89       0.2287
     30  O         21.1490   -5.5590   21.2160 O.2    89  LEU89      -0.2864
     31  CB        19.0740   -4.4560   23.5840 C.3    89  LEU89       0.0297
     32  CG        17.8680   -3.5450   23.7850 C.3    89  LEU89       0.0022
     33  CD1       18.0240   -2.7480   25.0740 C.3    89  LEU89       0.0001
     34  CD2       17.7600   -2.6180   22.5900 C.3    89  LEU89       0.0001
     35  N         20.3450   -7.6500   18.6030 N.3    92  VAL92      -0.1231
     36  CA        20.4760   -6.7320   17.4670 C.3    92  VAL92       0.1692
     37  C         21.8340   -6.0560   17.4450 C.2    92  VAL92       0.2591
     38  O         22.3240   -5.6460   16.3880 O.2    92  VAL92      -0.2718
     39  CB        19.3990   -5.6320   17.4650 C.3    92  VAL92       0.0266
     40  CG1       19.7610   -4.5760   16.4340 C.3    92  VAL92       0.0020
     41  CG2       18.0390   -6.2300   17.1290 C.3    92  VAL92       0.0020
     42  N         22.4420   -5.9410   18.6160 N.am   93  ALA93      -0.1980
     43  CA        23.7480   -5.3220   18.7150 C.3    93  ALA93       0.1597
     44  C         24.7400   -6.2960   18.1170 C.2    93  ALA93       0.2287
     45  O         25.4630   -5.9720   17.1740 O.2    93  ALA93      -0.2864
     46  CB        24.0920   -5.0460   20.1810 C.3    93  ALA93       0.0319
     47  N         24.6080   -6.3330   14.5630 N.3    96  ALA96      -0.1245
     48  CA        25.0690   -5.1040   13.9100 C.3    96  ALA96       0.1562
     49  C         26.5820   -5.1250   13.7790 C.2    96  ALA96       0.2260
     50  O         27.1290   -4.7740   12.7350 O.2    96  ALA96      -0.2867
     51  CB        24.6390   -3.8780   14.7190 C.3    96  ALA96       0.0290
     52  N         27.8250   -7.6630   11.3940 N.3    99  TYR99      -0.1241
     53  CA        27.5310   -7.0380   10.1060 C.3    99  TYR99       0.1605
     54  C         28.6240   -6.0660    9.6650 C.2    99  TYR99       0.2264
     55  O         28.9800   -6.0040    8.4920 O.2    99  TYR99      -0.2867
     56  CB        26.2270   -6.2580   10.2220 C.3    99  TYR99       0.0534
     57  CG        25.8010   -5.5430    8.9640 C.ar   99  TYR99      -0.0201
     58  CD1       24.8320   -6.0900    8.1250 C.ar   99  TYR99      -0.0009
     59  CD2       26.3450   -4.3070    8.6250 C.ar   99  TYR99      -0.0009
     60  CE1       24.4180   -5.4190    6.9870 C.ar   99  TYR99       0.0417
     61  CE2       25.9360   -3.6320    7.4970 C.ar   99  TYR99       0.0417
     62  CZ        24.9730   -4.1880    6.6830 C.ar   99  TYR99       0.1957
     63  OH        24.5460   -3.5000    5.5700 O.3    99  TYR99      -0.2866
     64  N         28.2300  -11.8870    4.4490 N.3   107  ARG107     -0.1231
     65  CA        27.0380  -11.7310    5.2560 C.3   107  ARG107      0.1694
     66  C         25.8530  -11.7360    4.2990 C.2   107  ARG107      0.2592
     67  O         25.3490  -10.6880    3.8930 O.2   107  ARG107     -0.2718
     68  CB        27.0870  -10.4310    6.0730 C.3   107  ARG107      0.0321
     69  CG        27.2180   -9.1570    5.2810 C.3   107  ARG107      0.0489
     70  CD        27.0460   -7.9600    6.2010 C.3   107  ARG107      0.2205
     71  NE        27.3750   -6.6930    5.5490 N.pl3 107  ARG107     -0.0865
     72  CZ        26.7360   -6.2030    4.4900 C.cat 107  ARG107      0.5346
     73  NH1       25.7230   -6.8740    3.9510 N.pl3 107  ARG107      0.1354
     74  NH2       27.1150   -5.0430    3.9670 N.pl3 107  ARG107      0.1354
     75  N         25.4280  -12.9380    3.9230 N.am  108  GLY108     -0.1957
     76  CA        24.3190  -13.0670    3.0030 C.3   108  GLY108      0.1869
     77  C         23.0240  -12.5110    3.5600 C.2   108  GLY108      0.2309
     78  O         22.7220  -11.3240    3.4240 O.2   108  GLY108     -0.2863
     79  N         22.4250  -12.7740    6.7140 N.3   110  LEU110     -0.1245
     80  CA        22.8030  -12.4500    8.0800 C.3   110  LEU110      0.1561
     81  C         22.3080  -13.5970    8.9540 C.2   110  LEU110      0.2260
     82  O         21.9790  -13.4230   10.1280 O.2   110  LEU110     -0.2867
     83  CB        22.1770  -11.1240    8.5050 C.3   110  LEU110      0.0270
     84  CG        22.8730  -10.3510    9.6240 C.3   110  LEU110      0.0019
     85  CD1       24.3550  -10.1610    9.3180 C.3   110  LEU110      0.0001
     86  CD2       22.1870   -9.0000    9.7560 C.3   110  LEU110      0.0001
     87  N         15.1760  -12.5820   15.8890 N.3   183  PHE183     -0.1241
     88  CA        14.8170  -11.1720   15.7990 C.3   183  PHE183      0.1605
     89  C         15.9370  -10.3110   15.2150 C.2   183  PHE183      0.2264
     90  O         15.7350   -9.6240   14.2200 O.2   183  PHE183     -0.2867
     91  CB        14.4410  -10.6520   17.1910 C.3   183  PHE183      0.0534
     92  CG        14.0110   -9.2080   17.2170 C.ar  183  PHE183     -0.0203
     93  CD1       12.8430   -8.7980   16.5750 C.ar  183  PHE183     -0.0042
     94  CD2       14.7560   -8.2620   17.9170 C.ar  183  PHE183     -0.0042
     95  CE1       12.4180   -7.4670   16.6340 C.ar  183  PHE183     -0.0003
     96  CE2       14.3390   -6.9300   17.9800 C.ar  183  PHE183     -0.0003
     97  CZ        13.1630   -6.5340   17.3350 C.ar  183  PHE183     -0.0000
     98  N         15.2070   -7.9130   11.9980 N.3   187  ILE187     -0.1231
     99  CA        15.0860   -6.4640   12.0060 C.3   187  ILE187      0.1692
    100  C         16.1210   -5.8110   11.0930 C.2   187  ILE187      0.2592
    101  O         15.7670   -4.9980   10.2470 O.2   187  ILE187     -0.2718
    102  CB        15.1860   -5.8920   13.4550 C.3   187  ILE187      0.0266
    103  CG1       14.9270   -4.3870   13.4390 C.3   187  ILE187      0.0019
    104  CG2       16.5360   -6.1820   14.0490 C.3   187  ILE187      0.0020
    105  CD1       14.3940   -3.8570   14.7510 C.3   187  ILE187      0.0001
    106  N         17.3910   -6.1700   11.2490 N.am  188  LEU188     -0.1966
    107  CA        18.4400   -5.6040   10.4110 C.3   188  LEU188      0.1728
    108  C         18.1590   -5.8840    8.9410 C.2   188  LEU188      0.2617
    109  O         18.0750   -4.9700    8.1270 O.2   188  LEU188     -0.2715
    110  CB        19.7990   -6.1820   10.7890 C.3   188  LEU188      0.0311
    111  CG        20.2800   -5.9450   12.2230 C.3   188  LEU188      0.0022
    112  CD1       21.7780   -6.1040   12.2270 C.3   188  LEU188      0.0001
    113  CD2       19.8970   -4.5470   12.7230 C.3   188  LEU188      0.0001
    114  N         18.0180   -7.1560    8.6000 N.am  189  THR189     -0.1937
    115  CA        17.7140   -7.5520    7.2320 C.3   189  THR189      0.2028
    116  C         16.3180   -7.0170    6.8960 C.2   189  THR189      0.2642
    117  O         15.8850   -7.0190    5.7410 O.2   189  THR189     -0.2714
    118  CB        17.7790   -9.0950    7.1240 C.3   189  THR189      0.1808
    119  OG1       19.1540   -9.5060    7.1450 O.3   189  THR189     -0.2208
    120  CG2       17.1110   -9.5990    5.8670 C.3   189  THR189      0.0379
    121  N         15.6260   -6.5360    7.9260 N.am  190  ARG190     -0.1977
    122  CA        14.2740   -5.9970    7.7870 C.3   190  ARG190      0.1597
    123  C         13.2770   -7.0060    7.2280 C.2   190  ARG190      0.2287
    124  O         12.1650   -6.6370    6.8530 O.2   190  ARG190     -0.2864
    125  CB        14.2990   -4.7260    6.9280 C.3   190  ARG190      0.0334
    126  CG        14.7920   -3.4830    7.7040 C.3   190  ARG190      0.0492
    127  CD        15.2640   -2.3490    6.7850 C.3   190  ARG190      0.2205
    128  NE        16.5290   -2.6600    6.1170 N.pl3 190  ARG190     -0.0865
    129  CZ        16.7060   -2.6410    4.7970 C.cat 190  ARG190      0.5346
    130  NH1       15.6970   -2.3250    3.9910 N.pl3 190  ARG190      0.1354
    131  NH2       17.8940   -2.9330    4.2780 N.pl3 190  ARG190      0.1354
@<TRIPOS>BOND
     1    76    77    1
     2    76    75    1
     3    78    77    2
     4    67    66    2
     5    75    66   am
     6    73    72    1
     7    74    72    1
     8   130   129    1
     9   131   129    1
    10    66    65    1
    11    64    65    1
    12    72    71    2
    13   129   128    2
    14    65    68    1
    15    69    68    1
    16    69    70    1
    17    71    70    1
    18    63    62    1
    19   117   116    2
    20   120   118    1
    21   128   127    1
    22    62    60   ar
    23    62    61   ar
    24    79    80    1
    25   127   126    1
    26   124   123    2
    27   116   115    1
    28   116   121   am
    29   125   126    1
    30   125   122    1
    31    60    58   ar
    32   118   119    1
    33   118   115    1
    34   123   122    1
    35   115   114    1
    36    61    59   ar
    37   122   121    1
    38    80    83    1
    39    80    81    1
    40    58    57   ar
    41   109   108    2
    42    55    54    2
    43    83    84    1
    44   114   108   am
    45    59    57   ar
    46   108   107    1
    47    81    82    2
    48    57    56    1
    49    85    84    1
    50    84    86    1
    51    54    53    1
    52    53    56    1
    53    53    52    1
    54   101   100    2
    55   107   110    1
    56   107   106    1
    57   110   111    1
    58   100   106   am
    59   100    99    1
    60    98    99    1
    61    99   102    1
    62   111   112    1
    63   111   113    1
    64    50    49    2
    65   103   102    1
    66   103   105    1
    67   102   104    1
    68    49    48    1
    69    48    47    1
    70    48    51    1
    71    90    89    2
    72    89    88    1
    73    88    87    1
    74    88    91    1
    75    38    37    2
    76    40    39    1
    77    93    95   ar
    78    93    92   ar
    79    95    97   ar
    80    41    39    1
    81    45    44    2
    82    91    92    1
    83    92    94   ar
    84    97    96   ar
    85    37    36    1
    86    37    42   am
    87    39    36    1
    88    36    35    1
    89    94    96   ar
    90    44    43    1
    91    42    43    1
    92    43    46    1
    93    22    21    2
    94    26    24    1
    95    30    29    2
    96    21    20    1
    97    21    27   am
    98    23    20    1
    99    23    24    1
   100    20    19    1
   101    29    28    1
   102    24    25    1
   103    28    27    1
   104    28    31    1
   105    34    32    1
   106    31    32    1
   107    32    33    1
   108    11    10   ar
   109    11     9   ar
   110    10     8   ar
   111     4     3    2
   112     9     7   ar
   113    15    14    2
   114     8     6   ar
   115     7     6   ar
   116     6     5    1
   117    14    13    1
   118     3     2    1
   119    13    12    1
   120    13    16    1
   121    17    16    1
   122     2     5    1
   123     2     1    1
   124    16    18    1
