@<TRIPOS>MOLECULE
tmp/3m9kB00.pdb
 100 94 0 0 0
SMALL
GASTEIGER

@<TRIPOS>ATOM
      1  N         53.6100   14.6150   -2.3040 N.3    27  PHE27      -0.1241
      2  CA        54.0990   13.6040   -3.2430 C.3    27  PHE27       0.1605
      3  C         55.6200   13.6000   -3.0730 C.2    27  PHE27       0.2264
      4  O         56.3040   14.5930   -3.3920 O.2    27  PHE27      -0.2867
      5  CB        53.6750   13.9470   -4.6880 C.3    27  PHE27       0.0534
      6  CG        52.2150   13.8020   -4.9510 C.ar   27  PHE27      -0.0203
      7  CD1       51.6770   12.6130   -5.3810 C.ar   27  PHE27      -0.0042
      8  CD2       51.3520   14.8760   -4.8000 C.ar   27  PHE27      -0.0042
      9  CE1       50.3440   12.4580   -5.6120 C.ar   27  PHE27      -0.0003
     10  CE2       49.9960   14.7090   -5.0660 C.ar   27  PHE27      -0.0003
     11  CZ        49.4980   13.5150   -5.4750 C.ar   27  PHE27      -0.0000
     12  N         55.7580    8.2160   -4.3860 N.3    59  VAL59      -0.1245
     13  CA        55.4240    7.9210   -5.7720 C.3    59  VAL59       0.1561
     14  C         56.1730    6.6900   -6.2690 C.2    59  VAL59       0.2260
     15  O         55.6850    5.9940   -7.1590 O.2    59  VAL59      -0.2867
     16  CB        55.7010    9.0950   -6.7070 C.3    59  VAL59       0.0252
     17  CG1       54.8160   10.3160   -6.3010 C.3    59  VAL59       0.0019
     18  CG2       57.1640    9.4310   -6.7470 C.3    59  VAL59       0.0019
     19  N         48.0700    6.5060   -7.5260 N.3    65  VAL65      -0.1231
     20  CA        47.5160    7.8640   -7.4970 C.3    65  VAL65       0.1692
     21  C         48.1670    8.7640   -8.5240 C.2    65  VAL65       0.2592
     22  O         47.5000    9.5770   -9.1720 O.2    65  VAL65      -0.2718
     23  CB        47.7040    8.4840   -6.0730 C.3    65  VAL65       0.0266
     24  CG1       47.1990   10.0030   -6.0020 C.3    65  VAL65       0.0020
     25  CG2       46.9560    7.5840   -5.0070 C.3    65  VAL65       0.0020
     26  N         49.4720    8.6510   -8.6390 N.am   66  ALA66      -0.1966
     27  CA        50.2550    9.5450   -9.4890 C.3    66  ALA66       0.1728
     28  C         51.0610    8.7460  -10.4950 C.2    66  ALA66       0.2616
     29  O         51.6460    7.7470  -10.1390 O.2    66  ALA66      -0.2715
     30  CB        51.1730   10.3540   -8.6430 C.3    66  ALA66       0.0334
     31  N         51.0940    9.1850  -11.7490 N.am   67  SER67      -0.1950
     32  CA        52.0110    8.5690  -12.7080 C.3    67  SER67       0.1924
     33  C         53.4050    9.1700  -12.5380 C.2    67  SER67       0.2314
     34  O         53.5890   10.3850  -12.5740 O.2    67  SER67      -0.2863
     35  CB        51.5420    8.7540  -14.1480 C.3    67  SER67       0.2116
     36  OG        52.3560    7.9840  -15.0120 O.3    67  SER67      -0.2180
     37  N         54.9940   11.7550  -14.7990 N.3    70  GLU70      -0.1231
     38  CA        54.7690   13.1790  -14.6200 C.3    70  GLU70       0.1699
     39  C         55.7330   13.8040  -13.6180 C.2    70  GLU70       0.2592
     40  O         55.6990   15.0160  -13.3950 O.2    70  GLU70      -0.2718
     41  CB        53.3240   13.4190  -14.1410 C.3    70  GLU70       0.0402
     42  CG        52.2560   12.8290  -15.0710 C.3    70  GLU70       0.1161
     43  CD        52.5050   13.1810  -16.5250 C.2    70  GLU70       0.3649
     44  OE1       52.4870   12.2690  -17.3890 O.co2  70  GLU70      -0.2457
     45  OE2       52.7570   14.3750  -16.8040 O.co2  70  GLU70      -0.2457
     46  N         56.6100   12.9950  -13.0250 N.am   71  VAL71      -0.1966
     47  CA        57.5000   13.4740  -11.9390 C.3    71  VAL71       0.1727
     48  C         58.7100   14.1690  -12.5060 C.2    71  VAL71       0.2616
     49  O         59.5130   13.5680  -13.2800 O.2    71  VAL71      -0.2715
     50  CB        57.9570   12.3210  -11.0230 C.3    71  VAL71       0.0290
     51  CG1       59.0780   12.7690  -10.1090 C.3    71  VAL71       0.0023
     52  CG2       56.7920   11.7310  -10.2440 C.3    71  VAL71       0.0023
     53  N         58.8320   15.4460  -12.1560 N.am   72  LYS72      -0.1963
     54  CA        60.0090   16.2110  -12.4930 C.3    72  LYS72       0.1728
     55  C         60.6150   16.6390  -11.1850 C.2    72  LYS72       0.2617
     56  O         61.5360   15.9710  -10.7050 O.2    72  LYS72      -0.2715
     57  CB        59.6480   17.3770  -13.4050 C.3    72  LYS72       0.0311
     58  CG        59.6820   17.0050  -14.8790 C.3    72  LYS72       0.0038
     59  CD        60.1270   18.2320  -15.7220 C.3    72  LYS72       0.0206
     60  CE        60.5740   17.8470  -17.1480 C.3    72  LYS72       0.1093
     61  NZ        59.4500   17.6490  -18.1390 N.3    72  LYS72      -0.1314
     62  N         60.0900   17.6870  -10.5390 N.am   73  SER73      -0.1936
     63  CA        60.7140   18.2350   -9.3180 C.3    73  SER73       0.2055
     64  C         60.0000   17.8000   -8.0300 C.2    73  SER73       0.2642
     65  O         58.7790   17.7960   -7.9760 O.2    73  SER73      -0.2714
     66  CB        60.6950   19.7440   -9.3900 C.3    73  SER73       0.2130
     67  OG        61.5800   20.3160   -8.4590 O.3    73  SER73      -0.2179
     68  N         60.7640   17.4580   -6.9870 N.am   74  MET74      -0.1976
     69  CA        60.1540   16.8740   -5.8040 C.3    74  MET74       0.1605
     70  C         60.7100   17.5450   -4.5580 C.2    74  MET74       0.2287
     71  O         61.7830   18.1710   -4.5760 O.2    74  MET74      -0.2864
     72  CB        60.4390   15.3750   -5.7570 C.3    74  MET74       0.0413
     73  CG        59.8190   14.5910   -6.8910 C.3    74  MET74       0.0598
     74  SD        58.0310   14.6540   -6.9270 S.3    74  MET74      -0.1393
     75  CE        57.6800   13.1420   -5.9490 C.3    74  MET74       0.0692
     76  N         56.4200   17.3700   -4.4520 N.3    76  THR76      -0.1218
     77  CA        55.3370   18.2120   -4.9550 C.3    76  THR76       0.1862
     78  C         54.1990   18.2040   -3.9650 C.2    76  THR76       0.2287
     79  O         53.7590   17.1520   -3.5000 O.2    76  THR76      -0.2866
     80  CB        54.8690   17.7030   -6.3180 C.3    76  THR76       0.1770
     81  OG1       55.9360   17.8900   -7.2690 O.3    76  THR76      -0.2211
     82  CG2       53.6300   18.4280   -6.8040 C.3    76  THR76       0.0375
     83  N         50.2840   19.2500   -3.4210 N.3    78  GLN78      -0.1245
     84  CA        49.0100   19.6350   -4.0310 C.3    78  GLN78       0.1566
     85  C         47.9760   19.9420   -2.9580 C.2    78  GLN78       0.2260
     86  O         48.0170   19.3330   -1.8870 O.2    78  GLN78      -0.2867
     87  CB        48.4810   18.4930   -4.8810 C.3    78  GLN78       0.0367
     88  CG        49.3090   18.2680   -6.1420 C.3    78  GLN78       0.0905
     89  CD        48.6390   17.2960   -7.0880 C.2    78  GLN78       0.2608
     90  OE1       47.8200   16.4530   -6.6880 O.2    78  GLN78      -0.2717
     91  NE2       49.0290   17.3890   -8.3690 N.am   78  GLN78      -0.0878
     92  N         49.2830   24.0310   -6.1630 N.3    88  GLU88      -0.1245
     93  CA        50.3610   23.0460   -6.3410 C.3    88  GLU88       0.1567
     94  C         51.6750   23.7900   -6.4820 C.2    88  GLU88       0.2260
     95  O         51.7830   24.8180   -7.2000 O.2    88  GLU88      -0.2867
     96  CB        50.0950   22.2410   -7.5880 C.3    88  GLU88       0.0388
     97  CG        51.1440   21.1580   -7.9230 C.3    88  GLU88       0.1160
     98  CD        50.7370   20.1870   -9.0440 C.2    88  GLU88       0.3649
     99  OE1       49.5880   20.1280   -9.5150 O.co2  88  GLU88      -0.2457
    100  OE2       51.6250   19.4320   -9.4520 O.co2  88  GLU88      -0.2457
@<TRIPOS>BOND
     1    61    60    1
     2    44    43   ar
     3    60    59    1
     4    45    43   ar
     5    43    42    1
     6    59    58    1
     7    42    41    1
     8    36    35    1
     9    58    57    1
    10    37    38    1
    11    38    41    1
    12    38    39    1
    13    35    32    1
    14    39    40    2
    15    39    46   am
    16    57    54    1
    17    49    48    2
    18    46    47    1
    19    32    33    1
    20    32    31    1
    21    34    33    2
    22    48    53   am
    23    48    47    1
    24    54    53    1
    25    54    55    1
    26    47    50    1
    27    31    28   am
    28    55    56    2
    29    55    62   am
    30    50    52    1
    31    50    51    1
    32    62    63    1
    33    28    29    2
    34    28    27    1
    35    99    98   ar
    36    27    30    1
    37    27    26    1
    38   100    98   ar
    39    66    63    1
    40    66    67    1
    41    63    64    1
    42    22    21    2
    43    98    97    1
    44    26    21   am
    45    21    20    1
    46    91    89   am
    47    64    65    2
    48    64    68   am
    49    97    96    1
    50    96    93    1
    51    19    20    1
    52    20    23    1
    53    81    80    1
    54    95    94    2
    55    15    14    2
    56    89    90    2
    57    89    88    1
    58    68    69    1
    59    74    73    1
    60    74    75    1
    61    73    72    1
    62    82    80    1
    63    18    16    1
    64    16    17    1
    65    16    13    1
    66    94    93    1
    67    93    92    1
    68    80    77    1
    69    14    13    1
    70    88    87    1
    71    23    24    1
    72    23    25    1
    73    69    72    1
    74    69    70    1
    75    13    12    1
    76     9    11   ar
    77     9     7   ar
    78    11    10   ar
    79     7     6   ar
    80    10     8   ar
    81    77    76    1
    82    77    78    1
    83     6     8   ar
    84     6     5    1
    85    87    84    1
    86     5     2    1
    87    71    70    2
    88    84    83    1
    89    84    85    1
    90    78    79    2
    91     4     3    2
    92     2     3    1
    93     2     1    1
    94    85    86    2
