@<TRIPOS>MOLECULE
tmp/3m9sN00.pdb
 198 186 0 0 0
SMALL
GASTEIGER

@<TRIPOS>ATOM
      1  N        -35.8830 -105.1670    0.9460 N.3    63  GLY63      -0.1225
      2  CA       -34.6700 -104.3660    0.9810 C.3    63  GLY63       0.1811
      3  C        -33.3490 -105.0650    0.7150 C.2    63  GLY63       0.2280
      4  O        -33.0230 -106.0860    1.3160 O.2    63  GLY63      -0.2866
      5  N        -30.3740 -103.6600    1.1180 N.3    65  GLY65      -0.1210
      6  CA       -29.3180 -103.2150    2.0100 C.3    65  GLY65       0.1956
      7  C        -28.7540 -104.3050    2.9100 C.2    65  GLY65       0.2612
      8  O        -27.6580 -104.1870    3.4570 O.2    65  GLY65      -0.2717
      9  N        -29.5160 -105.3810    3.0560 N.am   66  GLY66      -0.1942
     10  CA       -29.1220 -106.5230    3.8670 C.3    66  GLY66       0.2014
     11  C        -30.1960 -106.7600    4.8980 C.2    66  GLY66       0.2638
     12  O        -30.3510 -107.8560    5.4270 O.2    66  GLY66      -0.2714
     13  N        -30.9290 -105.6810    5.1570 N.am   67  ALA67      -0.1977
     14  CA       -32.0320 -105.6340    6.1030 C.3    67  ALA67       0.1597
     15  C        -33.0620 -106.6800    5.7710 C.2    67  ALA67       0.2287
     16  O        -33.4980 -107.4070    6.6350 O.2    67  ALA67      -0.2864
     17  CB       -32.6780 -104.2450    6.0680 C.3    67  ALA67       0.0319
     18  N        -36.1500 -106.0120    4.8850 N.3    69  PHE69      -0.1241
     19  CA       -37.5280 -105.5330    5.0950 C.3    69  PHE69       0.1605
     20  C        -38.3270 -105.2280    3.8060 C.2    69  PHE69       0.2264
     21  O        -37.7550 -104.7900    2.8110 O.2    69  PHE69      -0.2867
     22  CB       -37.5250 -104.3110    6.0000 C.3    69  PHE69       0.0534
     23  CG       -38.8770 -103.9480    6.5240 C.ar   69  PHE69      -0.0203
     24  CD1      -39.7100 -103.1180    5.8060 C.ar   69  PHE69      -0.0042
     25  CD2      -39.3090 -104.4230    7.7540 C.ar   69  PHE69      -0.0042
     26  CE1      -40.9630 -102.7750    6.3050 C.ar   69  PHE69      -0.0003
     27  CE2      -40.5570 -104.0820    8.2630 C.ar   69  PHE69      -0.0003
     28  CZ       -41.3870 -103.2600    7.5430 C.ar   69  PHE69      -0.0000
     29  N        -40.0230 -103.2980    1.2850 N.3    71  THR71      -0.1218
     30  CA       -39.8480 -101.8760    0.9330 C.3    71  THR71       0.1862
     31  C        -41.0760 -101.1980    0.3410 C.2    71  THR71       0.2287
     32  O        -41.0640  -99.9950    0.1340 O.2    71  THR71      -0.2866
     33  CB       -38.6400 -101.6160    0.0020 C.3    71  THR71       0.1770
     34  OG1      -39.0250 -101.7910   -1.3660 O.3    71  THR71      -0.2211
     35  CG2      -37.4950 -102.5420    0.3410 C.3    71  THR71       0.0375
     36  N        -42.5770 -100.3580    3.6770 N.3    74  LYS74      -0.1245
     37  CA       -41.7200  -99.3250    4.2510 C.3    74  LYS74       0.1561
     38  C        -42.1940  -97.9290    3.8470 C.2    74  LYS74       0.2260
     39  O        -42.2560  -97.0190    4.6920 O.2    74  LYS74      -0.2867
     40  CB       -40.2640  -99.5250    3.8190 C.3    74  LYS74       0.0271
     41  CG       -39.2600  -98.6720    4.5690 C.3    74  LYS74       0.0035
     42  CD       -37.8630  -98.9760    4.0840 C.3    74  LYS74       0.0206
     43  CE       -36.8530  -98.8240    5.2000 C.3    74  LYS74       0.1093
     44  NZ       -35.5370  -99.3770    4.8270 N.3    74  LYS74      -0.1314
     45  N        -28.7940  -94.8650    0.2580 N.3    91  ASN91      -0.1240
     46  CA       -27.6890  -95.3230    1.0740 C.3    91  ASN91       0.1653
     47  C        -26.6110  -96.0080    0.2120 C.2    91  ASN91       0.2266
     48  O        -26.5090  -97.2370    0.1670 O.2    91  ASN91      -0.2867
     49  CB       -28.2130  -96.2550    2.1770 C.3    91  ASN91       0.1155
     50  CG       -27.1000  -96.9530    2.9320 C.2    91  ASN91       0.2627
     51  OD1      -26.0180  -96.3980    3.1380 O.2    91  ASN91      -0.2716
     52  ND2      -27.3560  -98.1900    3.3350 N.am   91  ASN91      -0.0877
     53  N        -23.4940  -96.0710    0.8760 N.3    93  ASP93      -0.1225
     54  CA       -22.3390  -96.3460    1.7220 C.3    93  ASP93       0.1805
     55  C        -22.2250  -97.8390    1.7870 C.2    93  ASP93       0.2598
     56  O        -22.8360  -98.4500    2.6460 O.2    93  ASP93      -0.2718
     57  CB       -22.5800  -95.8270    3.1450 C.3    93  ASP93       0.1424
     58  CG       -21.3980  -96.0850    4.0880 C.2    93  ASP93       0.3668
     59  OD1      -20.3800  -95.3640    3.9840 O.co2  93  ASP93      -0.2456
     60  OD2      -21.5070  -96.9790    4.9630 O.co2  93  ASP93      -0.2456
     61  N        -21.4600  -98.4420    0.8870 N.am   94  GLU94      -0.1965
     62  CA       -21.3750  -99.9050    0.7980 C.3    94  GLU94       0.1733
     63  C        -20.0500 -100.4210    1.3550 C.2    94  GLU94       0.2617
     64  O        -19.0610 -100.5140    0.6280 O.2    94  GLU94      -0.2715
     65  CB       -21.5090 -100.3320   -0.6620 C.3    94  GLU94       0.0429
     66  CG       -21.1880 -101.7870   -0.9230 C.3    94  GLU94       0.1163
     67  CD       -21.3410 -102.1790   -2.3790 C.2    94  GLU94       0.3649
     68  OE1      -20.7650 -101.4840   -3.2470 O.co2  94  GLU94      -0.2457
     69  OE2      -22.0310 -103.1930   -2.6400 O.co2  94  GLU94      -0.2457
     70  N        -20.0200 -100.7760    2.6330 N.am   95  SER95      -0.1936
     71  CA       -18.7340 -100.9580    3.3010 C.3    95  SER95       0.2055
     72  C        -18.5210 -102.3300    3.9250 C.2    95  SER95       0.2642
     73  O        -17.4560 -102.5860    4.4950 O.2    95  SER95      -0.2714
     74  CB       -18.5270  -99.8480    4.3310 C.3    95  SER95       0.2130
     75  OG       -18.6700  -98.5760    3.7100 O.3    95  SER95      -0.2179
     76  N        -19.5200 -103.2070    3.7770 N.am   96  GLU96      -0.1976
     77  CA       -19.5390 -104.5370    4.3920 C.3    96  GLU96       0.1602
     78  C        -18.7710 -105.5410    3.5720 C.2    96  GLU96       0.2287
     79  O        -19.2130 -105.9030    2.4860 O.2    96  GLU96      -0.2864
     80  CB       -20.9690 -105.0340    4.5360 C.3    96  GLU96       0.0415
     81  CG       -21.0560 -106.4570    4.9890 C.3    96  GLU96       0.1163
     82  CD       -22.3410 -106.7200    5.7170 C.2    96  GLU96       0.3649
     83  OE1      -23.1480 -105.7660    5.8350 O.co2  96  GLU96      -0.2457
     84  OE2      -22.5450 -107.8720    6.1680 O.co2  96  GLU96      -0.2457
     85  N        -23.4040 -102.2910   -5.2650 N.3   102  ASP102     -0.1239
     86  CA       -23.8280 -100.9020   -5.4300 C.3   102  ASP102      0.1674
     87  C        -22.8570 -100.1260   -6.3270 C.2   102  ASP102      0.2266
     88  O        -23.2780  -99.3390   -7.1850 O.2   102  ASP102     -0.2867
     89  CB       -23.9260 -100.2040   -4.0710 C.3   102  ASP102      0.1410
     90  CG       -24.9460 -100.8450   -3.1460 C.2   102  ASP102      0.3668
     91  OD1      -25.7870 -101.6150   -3.6550 O.co2 102  ASP102     -0.2456
     92  OD2      -24.8980 -100.5620   -1.9150 O.co2 102  ASP102     -0.2456
     93  N        -17.6390  -97.9380    8.5230 N.3   179  TYR179     -0.1227
     94  CA       -18.6570  -98.9450    8.2020 C.3   179  TYR179      0.1736
     95  C        -19.9630  -98.6170    8.8780 C.2   179  TYR179      0.2595
     96  O        -21.0340  -98.7650    8.2900 O.2   179  TYR179     -0.2718
     97  CB       -18.1840 -100.3420    8.6170 C.3   179  TYR179      0.0548
     98  CG       -19.2170 -101.4740    8.5880 C.ar  179  TYR179     -0.0200
     99  CD1      -19.6970 -101.9870    7.3800 C.ar  179  TYR179     -0.0009
    100  CD2      -19.6610 -102.0740    9.7810 C.ar  179  TYR179     -0.0009
    101  CE1      -20.6080 -103.0310    7.3620 C.ar  179  TYR179      0.0417
    102  CE2      -20.5760 -103.1170    9.7710 C.ar  179  TYR179      0.0417
    103  CZ       -21.0430 -103.5930    8.5640 C.ar  179  TYR179      0.1957
    104  OH       -21.9520 -104.6280    8.5540 O.3   179  TYR179     -0.2866
    105  N        -19.8660  -98.1600   10.1190 N.am  180  ILE180     -0.1980
    106  CA       -21.0480  -97.8950   10.9170 C.3   180  ILE180      0.1595
    107  C        -21.9800  -96.8690   10.2710 C.2   180  ILE180      0.2287
    108  O        -23.1830  -96.8620   10.4920 O.2   180  ILE180     -0.2864
    109  CB       -20.6680  -97.5160   12.3620 C.3   180  ILE180      0.0276
    110  CG1      -21.8730  -96.8890   13.0830 C.3   180  ILE180      0.0022
    111  CG2      -19.4000  -96.6760   12.3850 C.3   180  ILE180      0.0022
    112  CD1      -23.0110  -97.8710   13.3970 C.3   180  ILE180      0.0001
    113  N        -23.2080  -96.9780    7.6960 N.3   182  GLY182     -0.1210
    114  CA       -24.0790  -97.6760    6.7710 C.3   182  GLY182      0.1956
    115  C        -25.4090  -97.8840    7.4520 C.2   182  GLY182      0.2612
    116  O        -26.4550  -97.9900    6.8160 O.2   182  GLY182     -0.2717
    117  N        -25.3550  -97.9290    8.7730 N.am  183  GLU183     -0.1965
    118  CA       -26.5450  -98.1300    9.5700 C.3   183  GLU183      0.1733
    119  C        -27.4530  -96.9310    9.2970 C.2   183  GLU183      0.2616
    120  O        -27.0080  -95.7940    9.4190 O.2   183  GLU183     -0.2715
    121  CB       -26.1450  -98.2300   11.0540 C.3   183  GLU183      0.0429
    122  CG       -27.0990  -99.0060   11.9610 C.3   183  GLU183      0.1163
    123  CD       -28.2320  -98.1490   12.4770 C.2   183  GLU183      0.3649
    124  OE1      -28.0870  -96.9050   12.4570 O.co2 183  GLU183     -0.2457
    125  OE2      -29.2600  -98.7180   12.9040 O.co2 183  GLU183     -0.2457
    126  N        -28.7070  -97.1820    8.9080 N.am  184  GLU184     -0.1977
    127  CA       -29.5950  -96.1110    8.4290 C.3   184  GLU184      0.1602
    128  C        -29.7150  -94.8830    9.3430 C.2   184  GLU184      0.2287
    129  O        -29.9300  -93.7670    8.8650 O.2   184  GLU184     -0.2864
    130  CB       -30.9960  -96.6460    8.1000 C.3   184  GLU184      0.0415
    131  CG       -31.6720  -97.3130    9.2800 C.3   184  GLU184      0.1163
    132  CD       -33.1900  -97.3650    9.1520 C.2   184  GLU184      0.3649
    133  OE1      -33.7850  -96.3080    8.8370 O.co2 184  GLU184     -0.2457
    134  OE2      -33.7810  -98.4550    9.3760 O.co2 184  GLU184     -0.2457
    135  N        -35.1980  -94.1270    4.0510 N.3   217  ILE217     -0.1231
    136  CA       -33.8520  -94.4430    3.5970 C.3   217  ILE217      0.1692
    137  C        -33.9250  -95.7590    2.8790 C.2   217  ILE217      0.2592
    138  O        -34.6180  -96.6660    3.3370 O.2   217  ILE217     -0.2718
    139  CB       -32.8500  -94.6010    4.7660 C.3   217  ILE217      0.0266
    140  CG1      -33.0370  -93.4880    5.7820 C.3   217  ILE217      0.0019
    141  CG2      -31.4340  -94.5940    4.2470 C.3   217  ILE217      0.0020
    142  CD1      -32.3930  -93.7690    7.0760 C.3   217  ILE217      0.0001
    143  N        -33.2320  -95.8640    1.7500 N.am  218  ASN218     -0.1960
    144  CA       -33.1610  -97.1250    1.0180 C.3   218  ASN218      0.1819
    145  C        -31.7940  -97.3980    0.4180 C.2   218  ASN218      0.2621
    146  O        -30.9850  -96.4810    0.2710 O.2   218  ASN218     -0.2715
    147  CB       -34.2280  -97.1930   -0.0750 C.3   218  ASN218      0.1195
    148  CG       -35.5750  -97.6050    0.4680 C.2   218  ASN218      0.2630
    149  OD1      -36.5460  -96.8550    0.3690 O.2   218  ASN218     -0.2716
    150  ND2      -35.6380  -98.7900    1.0770 N.am  218  ASN218     -0.0877
    151  N        -31.5470  -98.6600    0.0820 N.am  219  ASN219     -0.1972
    152  CA       -30.2780  -99.0570   -0.4780 C.3   219  ASN219      0.1688
    153  C        -30.2820  -98.7110   -1.9550 C.2   219  ASN219      0.2292
    154  O        -31.3540  -98.5770   -2.5500 O.2   219  ASN219     -0.2864
    155  CB       -30.0670 -100.5480   -0.2710 C.3   219  ASN219      0.1181
    156  CG       -28.7130 -101.0030   -0.7340 C.2   219  ASN219      0.2629
    157  OD1      -28.5940 -101.7020   -1.7390 O.2   219  ASN219     -0.2716
    158  ND2      -27.6770 -100.5900   -0.0230 N.am  219  ASN219     -0.0877
    159  N        -31.9420 -101.5320   -3.9680 N.3   222  THR222     -0.1218
    160  CA       -33.3810 -101.4170   -3.7500 C.3   222  THR222      0.1862
    161  C        -33.9940 -100.4150   -4.7090 C.2   222  THR222      0.2287
    162  O        -35.0390 -100.6620   -5.2900 O.2   222  THR222     -0.2866
    163  CB       -33.6880 -100.9040   -2.3250 C.3   222  THR222      0.1770
    164  OG1      -32.9960 -101.6980   -1.3560 O.3   222  THR222     -0.2211
    165  CG2      -35.1700 -100.9470   -2.0430 C.3   222  THR222      0.0375
    166  N        -26.2580 -109.3250    1.6190 N.3   324  THR324     -0.1218
    167  CA       -26.0490 -108.4200    0.5080 C.3   324  THR324      0.1862
    168  C        -25.8360 -109.2260   -0.7620 C.2   324  THR324      0.2287
    169  O        -25.6120 -108.6740   -1.8360 O.2   324  THR324     -0.2866
    170  CB       -24.8020 -107.5630    0.7700 C.3   324  THR324      0.1770
    171  OG1      -23.7260 -108.4100    1.1910 O.3   324  THR324     -0.2211
    172  CG2      -25.0620 -106.5760    1.8710 C.3   324  THR324      0.0375
    173  N        -27.2410 -101.3170   18.8080 N.3   399  CYS399     -0.1221
    174  CA       -27.5080 -101.5190   17.3930 C.3   399  CYS399      0.1794
    175  C        -26.9980 -102.8840   16.9570 C.2   399  CYS399      0.2443
    176  O        -26.2880 -103.5690   17.7050 O.2   399  CYS399     -0.2733
    177  CB       -26.9000 -100.3900   16.5230 C.3   399  CYS399      0.0970
    178  SG       -25.1840 -100.6510   15.8070 S.3   399  CYS399     -0.0800
    179  N        -27.3890 -103.2800   15.7420 N.am  400  PRO400     -0.2718
    180  CA       -27.0920 -104.5500   15.0830 C.3   400  PRO400      0.1535
    181  C        -25.6230 -104.8750   14.9130 C.2   400  PRO400      0.2598
    182  O        -25.2940 -106.0510   14.8860 O.2   400  PRO400     -0.2715
    183  CB       -27.7420 -104.3740   13.7260 C.3   400  PRO400      0.0310
    184  CG       -28.8700 -103.4740   13.9800 C.3   400  PRO400      0.0237
    185  CD       -28.4370 -102.5310   15.0270 C.3   400  PRO400      0.0939
    186  N        -24.7610 -103.8730   14.7850 N.am  401  LEU401     -0.1978
    187  CA       -23.3370 -104.1270   14.5980 C.3   401  LEU401      0.1596
    188  C        -22.8080 -105.2160   15.5540 C.2   401  LEU401      0.2287
    189  O        -22.0200 -106.0830   15.1760 O.2   401  LEU401     -0.2864
    190  CB       -22.5430 -102.8330   14.7550 C.3   401  LEU401      0.0297
    191  CG       -21.1030 -102.9190   14.2440 C.3   401  LEU401      0.0022
    192  CD1      -20.6040 -101.5480   13.8470 C.3   401  LEU401      0.0001
    193  CD2      -20.1430 -103.5590   15.2370 C.3   401  LEU401      0.0001
    194  N        -23.8150 -108.4830   14.2870 N.3   404  ALA404     -0.1245
    195  CA       -23.0290 -108.7110   13.0900 C.3   404  ALA404      0.1562
    196  C        -21.6880 -109.3630   13.4270 C.2   404  ALA404      0.2260
    197  O        -21.1750 -110.1730   12.6710 O.2   404  ALA404     -0.2867
    198  CB       -22.8320 -107.4130   12.3310 C.3   404  ALA404      0.0290
@<TRIPOS>BOND
     1    88    87    2
     2    87    86    1
     3    86    85    1
     4    86    89    1
     5   162   161    2
     6   161   160    1
     7    89    90    1
     8   159   160    1
     9   160   163    1
    10    91    90   ar
    11    68    67   ar
    12    90    92   ar
    13    69    67   ar
    14   154   153    2
    15    67    66    1
    16   163   165    1
    17   163   164    1
    18   153   152    1
    19   169   168    2
    20   157   156    2
    21    34    33    1
    22    66    65    1
    23   168   167    1
    24   156   155    1
    25   156   158   am
    26    65    62    1
    27   152   155    1
    28   152   151    1
    29   147   148    1
    30   147   144    1
    31    33    35    1
    32    33    30    1
    33   151   145   am
    34    32    31    2
    35    48    47    2
    36    47    46    1
    37    45    46    1
    38   146   145    2
    39    31    30    1
    40   149   148    2
    41   145   144    1
    42   148   150   am
    43   167   170    1
    44   167   166    1
    45    64    63    2
    46     3     2    1
    47     3     4    2
    48   170   171    1
    49   170   172    1
    50    62    61    1
    51    62    63    1
    52    53    54    1
    53    61    55   am
    54    30    29    1
    55     1     2    1
    56   144   143    1
    57    46    49    1
    58     5     6    1
    59    63    70   am
    60    54    55    1
    61    54    57    1
    62   143   137   am
    63    55    56    2
    64     6     7    1
    65    49    50    1
    66    79    78    2
    67    70    71    1
    68    21    20    2
    69   137   138    2
    70   137   136    1
    71     7     9   am
    72     7     8    2
    73    50    51    2
    74    50    52   am
    75     9    10    1
    76    57    58    1
    77    71    72    1
    78    71    74    1
    79    78    77    1
    80   136   135    1
    81   136   139    1
    82    36    37    1
    83    75    74    1
    84    76    72   am
    85    76    77    1
    86    20    19    1
    87    40    37    1
    88    40    41    1
    89    38    37    1
    90    38    39    2
    91    10    11    1
    92    72    73    2
    93    59    58   ar
    94    42    41    1
    95    42    43    1
    96    58    60   ar
    97   141   139    1
    98    77    80    1
    99    80    81    1
   100   139   140    1
   101    44    43    1
   102    18    19    1
   103    11    13   am
   104    11    12    2
   105    81    82    1
   106    19    22    1
   107    13    14    1
   108    82    83   ar
   109    82    84   ar
   110    15    14    1
   111    15    16    2
   112   140   142    1
   113    24    26   ar
   114    24    23   ar
   115    22    23    1
   116    17    14    1
   117    26    28   ar
   118    23    25   ar
   119   114   115    1
   120   114   113    1
   121   116   115    2
   122   101    99   ar
   123   101   103   ar
   124    99    98   ar
   125   115   117   am
   126    28    27   ar
   127    25    27   ar
   128   130   127    1
   129   130   131    1
   130    94    93    1
   131    94    97    1
   132    94    95    1
   133    96    95    2
   134   127   126    1
   135   127   128    1
   136   104   103    1
   137   103   102   ar
   138    98    97    1
   139    98   100   ar
   140   117   118    1
   141   133   132   ar
   142   129   128    2
   143    95   105   am
   144   126   119   am
   145   132   131    1
   146   132   134   ar
   147   119   120    2
   148   119   118    1
   149   118   121    1
   150   102   100   ar
   151   105   106    1
   152   107   108    2
   153   107   106    1
   154   106   109    1
   155   121   122    1
   156   122   123    1
   157   198   195    1
   158   109   111    1
   159   109   110    1
   160   124   123   ar
   161   123   125   ar
   162   197   196    2
   163   110   112    1
   164   195   196    1
   165   195   194    1
   166   183   184    1
   167   183   180    1
   168   192   191    1
   169   184   185    1
   170   191   190    1
   171   191   193    1
   172   187   190    1
   173   187   186    1
   174   187   188    1
   175   186   181   am
   176   182   181    2
   177   181   180    1
   178   185   179    1
   179   180   179    1
   180   189   188    2
   181   179   175   am
   182   178   177    1
   183   177   174    1
   184   175   174    1
   185   175   176    2
   186   174   173    1
