@<TRIPOS>MOLECULE
tmp/3m9vA00.pdb
 156 144 0 0 0
SMALL
GASTEIGER

@<TRIPOS>ATOM
      1  N         11.9300   26.5300  -20.4140 N.3    97  ARG97      -0.1245
      2  CA        13.0530   27.2280  -21.0460 C.3    97  ARG97       0.1563
      3  C         12.8710   28.7610  -21.0580 C.2    97  ARG97       0.2260
      4  O         13.8410   29.5150  -20.8910 O.2    97  ARG97      -0.2867
      5  CB        13.3470   26.5950  -22.4150 C.3    97  ARG97       0.0307
      6  CG        14.6070   27.0590  -23.1410 C.3    97  ARG97       0.0489
      7  CD        15.9020   26.9020  -22.3540 C.3    97  ARG97       0.2205
      8  NE        16.2840   25.5050  -22.2530 N.pl3  97  ARG97      -0.0865
      9  CZ        17.3640   25.0650  -21.6180 C.cat  97  ARG97       0.5346
     10  NH1       17.6240   23.7610  -21.6040 N.pl3  97  ARG97       0.1354
     11  NH2       18.1770   25.9280  -21.0220 N.pl3  97  ARG97       0.1354
     12  N         11.6240   30.4370  -18.6360 N.3    99  LEU99      -0.1231
     13  CA        12.0500   30.7850  -17.2890 C.3    99  LEU99       0.1693
     14  C         13.5540   30.7010  -17.0800 C.2    99  LEU99       0.2593
     15  O         14.1060   31.5750  -16.4190 O.2    99  LEU99      -0.2718
     16  CB        11.3730   29.8790  -16.2510 C.3    99  LEU99       0.0284
     17  CG         9.8400   29.8770  -16.2360 C.3    99  LEU99       0.0019
     18  CD1        9.3530   28.8150  -15.2100 C.3    99  LEU99       0.0001
     19  CD2        9.3280   31.2800  -15.8480 C.3    99  LEU99       0.0001
     20  N         14.2440   29.6940  -17.5970 N.am  100  THR100     -0.1939
     21  CA        15.6750   29.6910  -17.2920 C.3   100  THR100      0.2028
     22  C         16.4380   30.6460  -18.2180 C.2   100  THR100      0.2642
     23  O         17.4900   31.1610  -17.8300 O.2   100  THR100     -0.2714
     24  CB        16.2620   28.2710  -17.3910 C.3   100  THR100      0.1808
     25  OG1       15.9230   27.7330  -18.6740 O.3   100  THR100     -0.2208
     26  CG2       15.6400   27.3690  -16.3490 C.3   100  THR100      0.0379
     27  N         15.9410   30.8840  -19.4350 N.am  101  LEU101     -0.1977
     28  CA        16.5690   31.8700  -20.3050 C.3   101  LEU101      0.1596
     29  C         16.3400   33.2580  -19.7370 C.2   101  LEU101      0.2287
     30  O         17.2470   34.0750  -19.8320 O.2   101  LEU101     -0.2864
     31  CB        16.1080   31.8270  -21.7620 C.3   101  LEU101      0.0297
     32  CG        16.7430   30.6830  -22.5570 C.3   101  LEU101      0.0022
     33  CD1       16.1550   30.6920  -23.9710 C.3   101  LEU101      0.0001
     34  CD2       18.2800   30.6970  -22.5240 C.3   101  LEU101      0.0001
     35  N         16.3080   33.9980  -16.7110 N.3   103  TYR103     -0.1227
     36  CA        17.2750   34.2070  -15.6520 C.3   103  TYR103      0.1736
     37  C         18.6770   34.4520  -16.2110 C.2   103  TYR103      0.2595
     38  O         19.4820   35.1750  -15.6180 O.2   103  TYR103     -0.2718
     39  CB        17.2780   32.9390  -14.7960 C.3   103  TYR103      0.0548
     40  CG        18.2720   32.9640  -13.6610 C.ar  103  TYR103     -0.0200
     41  CD1       17.8480   33.2350  -12.3590 C.ar  103  TYR103     -0.0009
     42  CD2       19.6230   32.7260  -13.8970 C.ar  103  TYR103     -0.0009
     43  CE1       18.7580   33.2470  -11.3150 C.ar  103  TYR103      0.0417
     44  CE2       20.5460   32.7460  -12.8580 C.ar  103  TYR103      0.0417
     45  CZ        20.0980   33.0240  -11.5810 C.ar  103  TYR103      0.1957
     46  OH        20.9940   33.0480  -10.5390 O.3   103  TYR103     -0.2866
     47  N         19.0070   33.8160  -17.3280 N.am  104  GLU104     -0.1979
     48  CA        20.2750   34.1060  -18.0030 C.3   104  GLU104      0.1602
     49  C         20.3070   35.5690  -18.4540 C.2   104  GLU104      0.2287
     50  O         21.2790   36.2900  -18.2470 O.2   104  GLU104     -0.2864
     51  CB        20.4250   33.2250  -19.2420 C.3   104  GLU104      0.0415
     52  CG        20.6720   31.7560  -18.9440 C.3   104  GLU104      0.1163
     53  CD        22.0670   31.5570  -18.3780 C.2   104  GLU104      0.3649
     54  OE1       22.4760   30.4090  -18.1150 O.co2 104  GLU104     -0.2457
     55  OE2       22.7850   32.5650  -18.2190 O.co2 104  GLU104     -0.2457
     56  N         19.6720   16.7490  -23.1310 N.3   134  ILE134     -0.1245
     57  CA        20.3290   16.6300  -21.8360 C.3   134  ILE134      0.1561
     58  C         21.1080   15.3260  -21.7240 C.2   134  ILE134      0.2260
     59  O         22.3000   15.3250  -21.4420 O.2   134  ILE134     -0.2867
     60  CB        19.3050   16.7400  -20.6910 C.3   134  ILE134      0.0252
     61  CG1       18.6280   18.1090  -20.7850 C.3   134  ILE134      0.0019
     62  CG2       20.0120   16.5150  -19.3540 C.3   134  ILE134      0.0019
     63  CD1       17.3850   18.2070  -19.9240 C.3   134  ILE134      0.0001
     64  N         23.5360   19.8550  -23.4040 N.3   173  ASN173     -0.1240
     65  CA        24.5090   19.7710  -22.3270 C.3   173  ASN173      0.1653
     66  C         25.7450   19.0350  -22.8310 C.2   173  ASN173      0.2266
     67  O         25.6630   17.8770  -23.2430 O.2   173  ASN173     -0.2867
     68  CB        23.9200   19.0120  -21.1430 C.3   173  ASN173      0.1155
     69  CG        22.8710   19.8290  -20.4100 C.2   173  ASN173      0.2627
     70  OD1       22.4790   20.9180  -20.8430 O.2   173  ASN173     -0.2716
     71  ND2       22.4350   19.3120  -19.2690 N.am  173  ASN173     -0.0877
     72  N         27.0430   24.8770  -22.5170 N.3   185  SER185     -0.1217
     73  CA        25.7470   24.6950  -23.1620 C.3   185  SER185      0.1889
     74  C         25.7390   25.3130  -24.5510 C.2   185  SER185      0.2288
     75  O         25.2960   26.4380  -24.7250 O.2   185  SER185     -0.2866
     76  CB        24.6770   25.3490  -22.2890 C.3   185  SER185      0.2089
     77  OG        24.6050   24.6360  -21.0720 O.3   185  SER185     -0.2183
     78  N         29.7500   26.4910  -18.7320 N.3   229  ARG229     -0.1245
     79  CA        29.4230   26.3700  -17.3100 C.3   229  ARG229      0.1563
     80  C         30.7200   26.1220  -16.5370 C.2   229  ARG229      0.2260
     81  O         31.7570   26.6850  -16.8870 O.2   229  ARG229     -0.2867
     82  CB        28.4210   25.2350  -17.0840 C.3   229  ARG229      0.0307
     83  CG        27.1740   25.3100  -17.9480 C.3   229  ARG229      0.0489
     84  CD        26.5100   26.6740  -17.9020 C.3   229  ARG229      0.2205
     85  NE        25.2460   26.6260  -18.6420 N.pl3 229  ARG229     -0.0865
     86  CZ        24.3390   27.5980  -18.7230 C.cat 229  ARG229      0.5346
     87  NH1       24.5140   28.7580  -18.1110 N.pl3 229  ARG229      0.1354
     88  NH2       23.2340   27.4170  -19.4330 N.pl3 229  ARG229      0.1354
     89  N         24.6530   24.8910   -5.8040 N.3   236  ALA236     -0.1231
     90  CA        23.8310   26.0240   -6.2180 C.3   236  ALA236      0.1694
     91  C         23.1340   25.7380   -7.5490 C.2   236  ALA236      0.2591
     92  O         22.0900   26.3230   -7.8550 O.2   236  ALA236     -0.2718
     93  CB        24.6540   27.3190   -6.3210 C.3   236  ALA236      0.0304
     94  N         23.7220   24.8190   -8.3050 N.am  237  VAL237     -0.1980
     95  CA        23.2680   24.4440   -9.6480 C.3   237  VAL237      0.1595
     96  C         21.9660   23.6350   -9.6080 C.2   237  VAL237      0.2287
     97  O         21.1970   23.6060  -10.5670 O.2   237  VAL237     -0.2864
     98  CB        24.4110   23.6590  -10.3340 C.3   237  VAL237      0.0276
     99  CG1       23.9360   22.6430  -11.3510 C.3   237  VAL237      0.0022
    100  CG2       25.3750   24.6550  -10.9770 C.3   237  VAL237      0.0022
    101  N         19.5110   24.5680   -8.2080 N.3   239  ALA239     -0.1231
    102  CA        18.3570   25.4510   -8.3150 C.3   239  ALA239      0.1694
    103  C         17.8770   25.5550   -9.7580 C.2   239  ALA239      0.2593
    104  O         16.6650   25.6260   -9.9880 O.2   239  ALA239     -0.2718
    105  CB        18.6580   26.8550   -7.8280 C.3   239  ALA239      0.0304
    106  N         18.8050   25.6130  -10.7070 N.am  240  GLY240     -0.1942
    107  CA        18.4490   25.6930  -12.1190 C.3   240  GLY240      0.2014
    108  C         17.8110   24.3960  -12.6000 C.2   240  GLY240      0.2638
    109  O         16.8710   24.4130  -13.4000 O.2   240  GLY240     -0.2714
    110  N         18.3130   23.2620  -12.1130 N.am  241  GLN241     -0.1977
    111  CA        17.6970   21.9970  -12.4850 C.3   241  GLN241      0.1601
    112  C         16.2860   21.8660  -11.9490 C.2   241  GLN241      0.2287
    113  O         15.4350   21.1720  -12.5220 O.2   241  GLN241     -0.2864
    114  CB        18.5520   20.8360  -11.9910 C.3   241  GLN241      0.0394
    115  CG        19.8620   20.7970  -12.7380 C.3   241  GLN241      0.0908
    116  CD        20.8570   19.9270  -12.0260 C.2   241  GLN241      0.2608
    117  OE1       20.4970   19.0360  -11.2560 O.2   241  GLN241     -0.2717
    118  NE2       22.1310   20.1900  -12.2680 N.am  241  GLN241     -0.0878
    119  N         14.1870   24.5850  -11.4020 N.3   243  VAL243     -0.1231
    120  CA        13.4110   25.4800  -12.2440 C.3   243  VAL243      0.1692
    121  C         13.1230   24.7780  -13.5800 C.2   243  VAL243      0.2592
    122  O         12.0000   24.8250  -14.0970 O.2   243  VAL243     -0.2718
    123  CB        14.1040   26.8590  -12.4030 C.3   243  VAL243      0.0266
    124  CG1       13.3790   27.7130  -13.4470 C.3   243  VAL243      0.0020
    125  CG2       14.1200   27.6510  -11.0700 C.3   243  VAL243      0.0020
    126  N         14.1390   24.1290  -14.1440 N.am  244  SER244     -0.1952
    127  CA        13.9720   23.4120  -15.3990 C.3   244  SER244      0.1924
    128  C         12.9250   22.3100  -15.4350 C.2   244  SER244      0.2314
    129  O         12.4650   21.9890  -16.5290 O.2   244  SER244     -0.2863
    130  CB        15.2840   22.6980  -15.7720 C.3   244  SER244      0.2116
    131  OG        16.1970   23.7090  -16.1450 O.3   244  SER244     -0.2180
    132  N         13.0390   30.4450   -5.3270 N.3   307  SER307     -0.1217
    133  CA        13.5440   30.9070   -6.6110 C.3   307  SER307      0.1889
    134  C         13.7140   32.4260   -6.6170 C.2   307  SER307      0.2288
    135  O         14.7320   32.9490   -7.0610 O.2   307  SER307     -0.2866
    136  CB        12.5560   30.5440   -7.7200 C.3   307  SER307      0.2089
    137  OG        13.2070   30.7030   -8.9580 O.3   307  SER307     -0.2183
    138  N         23.6450   30.5530   -1.7060 N.3   314  MET314     -0.1245
    139  CA        23.1860   29.9380   -2.9480 C.3   314  MET314      0.1570
    140  C         23.2710   28.4190   -2.9760 C.2   314  MET314      0.2261
    141  O         22.4710   27.7660   -3.6400 O.2   314  MET314     -0.2867
    142  CB        23.9320   30.5160   -4.1540 C.3   314  MET314      0.0387
    143  CG        23.6710   31.9860   -4.3310 C.3   314  MET314      0.0595
    144  SD        22.0090   32.3230   -4.9330 S.3   314  MET314     -0.1393
    145  CE        22.1990   31.5400   -6.5490 C.3   314  MET314      0.0692
    146  N         20.3200   27.2890   -0.9810 N.3   317  ARG317     -0.1245
    147  CA        19.1400   27.5660   -1.7960 C.3   317  ARG317      0.1563
    148  C         18.8270   26.4300   -2.7770 C.2   317  ARG317      0.2260
    149  O         17.6630   26.0270   -2.8870 O.2   317  ARG317     -0.2867
    150  CB        19.3210   28.8690   -2.5610 C.3   317  ARG317      0.0307
    151  CG        18.2950   29.0810   -3.6610 C.3   317  ARG317      0.0489
    152  CD        18.4210   30.5260   -4.1070 C.3   317  ARG317      0.2205
    153  NE        17.5050   30.9410   -5.1670 N.pl3 317  ARG317     -0.0865
    154  CZ        17.7530   30.8050   -6.4710 C.cat 317  ARG317      0.5346
    155  NH1       16.8770   31.2630   -7.3520 N.pl3 317  ARG317      0.1354
    156  NH2       18.8650   30.2290   -6.9080 N.pl3 317  ARG317      0.1354
@<TRIPOS>BOND
     1    75    74    2
     2    74    73    1
     3    33    32    1
     4    64    65    1
     5    67    66    2
     6    73    72    1
     7    73    76    1
     8     6     5    1
     9     6     7    1
    10    56    57    1
    11    66    65    1
    12    32    34    1
    13    32    31    1
    14     5     2    1
    15     7     8    1
    16    65    68    1
    17    76    77    1
    18     8     9    2
    19    57    58    1
    20    57    60    1
    21    31    28    1
    22    58    59    2
    23     9    10    1
    24     9    11    1
    25    68    69    1
    26     3     2    1
    27     3     4    2
    28     2     1    1
    29    70    69    2
    30    61    60    1
    31    61    63    1
    32    60    62    1
    33    69    71   am
    34    28    29    1
    35    28    27    1
    36    30    29    2
    37    27    22   am
    38    88    86    1
    39    51    52    1
    40    51    48    1
    41    52    53    1
    42    78    79    1
    43    86    85    2
    44    86    87    1
    45    25    24    1
    46    85    84    1
    47    12    13    1
    48    49    50    2
    49    49    48    1
    50    53    55   ar
    51    53    54   ar
    52    22    23    2
    53    22    21    1
    54    48    47    1
    55    83    84    1
    56    83    82    1
    57    20    21    1
    58    20    14   am
    59    24    21    1
    60    24    26    1
    61    47    37   am
    62    79    82    1
    63    79    80    1
    64    13    14    1
    65    13    16    1
    66    14    15    2
    67    81    80    2
    68    35    36    1
    69   129   128    2
    70    16    17    1
    71    17    19    1
    72    17    18    1
    73    37    36    1
    74    37    38    2
    75   131   130    1
    76   130   127    1
    77    36    39    1
    78   128   127    1
    79   127   126    1
    80    39    40    1
    81   126   121   am
    82   122   121    2
    83    42    40   ar
    84    42    44   ar
    85    40    41   ar
    86   121   120    1
    87   124   123    1
    88   109   108    2
    89    44    45   ar
    90   115   116    1
    91   115   114    1
    92   108   107    1
    93   108   110   am
    94   113   112    2
    95   111   110    1
    96   111   114    1
    97   111   112    1
    98   123   120    1
    99   123   125    1
   100    41    43   ar
   101   118   116   am
   102   120   119    1
   103   107   106    1
   104   116   117    2
   105    45    43   ar
   106    45    46    1
   107    99    98    1
   108   100    98    1
   109   106   103   am
   110    97    96    2
   111    98    95    1
   112   104   103    2
   113   103   102    1
   114    95    96    1
   115    95    94    1
   116   137   136    1
   117   102   101    1
   118   102   105    1
   119    94    91   am
   120    92    91    2
   121   136   133    1
   122    91    90    1
   123   155   154    1
   124   135   134    2
   125   156   154    1
   126   134   133    1
   127   133   132    1
   128   145   144    1
   129   154   153    2
   130    93    90    1
   131    90    89    1
   132   153   152    1
   133   144   143    1
   134   143   142    1
   135   142   139    1
   136   152   151    1
   137   151   150    1
   138   141   140    2
   139   140   139    1
   140   139   138    1
   141   149   148    2
   142   148   147    1
   143   150   147    1
   144   147   146    1
