@<TRIPOS>MOLECULE
tmp/3ma0A00.pdb
 127 122 0 0 0
SMALL
GASTEIGER

@<TRIPOS>ATOM
      1  N         60.2650  -39.9820   20.0950 N.3    14  LEU14      -0.1245
      2  CA        59.8300  -40.7060   21.2820 C.3    14  LEU14       0.1561
      3  C         60.4640  -40.0460   22.4620 C.2    14  LEU14       0.2260
      4  O         61.6450  -39.6750   22.4260 O.2    14  LEU14      -0.2867
      5  CB        60.2030  -42.1750   21.2380 C.3    14  LEU14       0.0270
      6  CG        59.7460  -42.9330   20.0060 C.3    14  LEU14       0.0019
      7  CD1       60.4320  -44.2840   19.9880 C.3    14  LEU14       0.0001
      8  CD2       58.2270  -43.0920   19.9750 C.3    14  LEU14       0.0001
      9  N         61.7460  -41.0170   25.1630 N.3    16  ARG16      -0.1231
     10  CA        63.0140  -41.5150   25.7150 C.3    16  ARG16       0.1694
     11  C         64.2820  -40.9360   25.0520 C.2    16  ARG16       0.2592
     12  O         65.3080  -40.7760   25.7190 O.2    16  ARG16      -0.2718
     13  CB        63.0660  -43.0360   25.7190 C.3    16  ARG16       0.0321
     14  CG        63.2370  -43.6660   24.3330 C.3    16  ARG16       0.0489
     15  CD        63.5650  -45.1330   24.4550 C.3    16  ARG16       0.2205
     16  NE        64.9860  -45.3430   24.7230 N.pl3  16  ARG16      -0.0865
     17  CZ        65.5950  -46.5160   24.6170 C.cat  16  ARG16       0.5346
     18  NH1       64.9130  -47.6110   24.2760 N.pl3  16  ARG16       0.1354
     19  NH2       66.8960  -46.5950   24.8690 N.pl3  16  ARG16       0.1354
     20  N         64.2240  -40.6130   23.7540 N.am   17  TRP17      -0.1976
     21  CA        65.4760  -40.3730   23.0200 C.3    17  TRP17       0.1640
     22  C         66.1970  -39.1370   23.4710 C.2    17  TRP17       0.2290
     23  O         67.4270  -39.1010   23.4490 O.2    17  TRP17      -0.2864
     24  CB        65.2810  -40.3330   21.5050 C.3    17  TRP17       0.0576
     25  CG        64.7300  -41.5790   20.8280 C.ar   17  TRP17       0.0006
     26  CD1       63.6920  -41.6160   19.9290 C.ar   17  TRP17       0.0946
     27  CD2       65.1990  -42.9320   20.9500 C.ar   17  TRP17       0.0152
     28  NE1       63.4960  -42.9060   19.4820 N.ar   17  TRP17      -0.2442
     29  CE2       64.3980  -43.7340   20.0910 C.ar   17  TRP17       0.0810
     30  CE3       66.2150  -43.5490   21.7020 C.ar   17  TRP17       0.0012
     31  CZ2       64.5660  -45.1240   19.9760 C.ar   17  TRP17       0.0191
     32  CZ3       66.4040  -44.9320   21.5820 C.ar   17  TRP17       0.0001
     33  CH2       65.5820  -45.7030   20.7210 C.ar   17  TRP17       0.0015
     34  N         70.9470  -49.5540   21.7440 N.3    90  ASP90      -0.1225
     35  CA        69.5370  -49.9680   21.8470 C.3    90  ASP90       0.1805
     36  C         69.0510  -50.9500   20.7720 C.2    90  ASP90       0.2597
     37  O         68.3120  -51.8820   21.0910 O.2    90  ASP90      -0.2718
     38  CB        68.5650  -48.7820   21.9450 C.3    90  ASP90       0.1424
     39  CG        67.1900  -49.2050   22.4840 C.2    90  ASP90       0.3668
     40  OD1       67.0290  -49.3260   23.7540 O.co2  90  ASP90      -0.2456
     41  OD2       66.2700  -49.4520   21.6460 O.co2  90  ASP90      -0.2456
     42  N         69.4270  -50.7240   19.5120 N.am   91  ARG91      -0.1979
     43  CA        68.9090  -51.5290   18.3710 C.3    91  ARG91       0.1597
     44  C         70.0750  -52.1380   17.6350 C.2    91  ARG91       0.2287
     45  O         71.0450  -51.4530   17.3570 O.2    91  ARG91      -0.2864
     46  CB        68.1200  -50.6560   17.3850 C.3    91  ARG91       0.0334
     47  CG        66.9850  -49.9190   17.9810 C.3    91  ARG91       0.0492
     48  CD        66.4470  -48.9170   17.0040 C.3    91  ARG91       0.2205
     49  NE        65.1210  -48.4260   17.4060 N.pl3  91  ARG91      -0.0865
     50  CZ        64.5020  -47.4090   16.8040 C.cat  91  ARG91       0.5346
     51  NH1       65.1280  -46.7650   15.8150 N.pl3  91  ARG91       0.1354
     52  NH2       63.2830  -47.0030   17.1950 N.pl3  91  ARG91       0.1354
     53  N         63.1030  -51.8780   12.4150 N.3   135  ASP135     -0.1239
     54  CA        63.7650  -51.8790   13.7500 C.3   135  ASP135      0.1674
     55  C         63.8700  -53.3200   14.2330 C.2   135  ASP135      0.2266
     56  O         62.8680  -53.9780   14.5280 O.2   135  ASP135     -0.2867
     57  CB        62.9670  -50.9690   14.7100 C.3   135  ASP135      0.1410
     58  CG        63.4230  -51.0410   16.1850 C.2   135  ASP135      0.3668
     59  OD1       64.4420  -51.6860   16.5090 O.co2 135  ASP135     -0.2456
     60  OD2       62.7150  -50.4270   17.0320 O.co2 135  ASP135     -0.2456
     61  N         64.4310  -54.4510   16.9740 N.3   137  ASN137     -0.1240
     62  CA        63.7810  -54.6310   18.2860 C.3   137  ASN137      0.1653
     63  C         62.3190  -54.9860   18.1430 C.2   137  ASN137      0.2266
     64  O         61.7770  -55.7500   18.9480 O.2   137  ASN137     -0.2867
     65  CB        63.8770  -53.3620   19.1670 C.3   137  ASN137      0.1155
     66  CG        65.2620  -53.1230   19.7060 C.2   137  ASN137      0.2627
     67  OD1       66.1600  -53.9470   19.5310 O.2   137  ASN137     -0.2716
     68  ND2       65.4540  -51.9800   20.3640 N.am  137  ASN137     -0.0877
     69  N         60.4270  -57.8640   20.1750 N.3   141  PHE141     -0.1241
     70  CA        59.1890  -57.6950   20.9220 C.3   141  PHE141      0.1605
     71  C         58.1470  -58.7100   20.4360 C.2   141  PHE141      0.2264
     72  O         57.5700  -59.4480   21.2470 O.2   141  PHE141     -0.2867
     73  CB        58.6480  -56.2610   20.8010 C.3   141  PHE141      0.0534
     74  CG        59.6390  -55.1810   21.1920 C.ar  141  PHE141     -0.0203
     75  CD1       60.4680  -55.3300   22.3270 C.ar  141  PHE141     -0.0042
     76  CD2       59.7270  -54.0130   20.4500 C.ar  141  PHE141     -0.0042
     77  CE1       61.3660  -54.3450   22.7080 C.ar  141  PHE141     -0.0003
     78  CE2       60.6420  -52.9980   20.8240 C.ar  141  PHE141     -0.0003
     79  CZ        61.4670  -53.1710   21.9590 C.ar  141  PHE141     -0.0000
     80  N         57.2950  -45.9190   14.1360 N.3   169  TRP169     -0.1241
     81  CA        56.7520  -45.9310   15.4980 C.3   169  TRP169      0.1605
     82  C         55.8610  -44.7190   15.7350 C.2   169  TRP169      0.2264
     83  O         55.8040  -44.1950   16.8560 O.2   169  TRP169     -0.2867
     84  CB        57.8730  -45.9140   16.5440 C.3   169  TRP169      0.0550
     85  CG        58.6900  -47.1680   16.7210 C.ar  169  TRP169      0.0003
     86  CD1       59.9400  -47.4320   16.2030 C.ar  169  TRP169      0.0946
     87  CD2       58.3400  -48.3020   17.5130 C.ar  169  TRP169      0.0152
     88  NE1       60.3740  -48.6770   16.6170 N.ar  169  TRP169     -0.2442
     89  CE2       59.4060  -49.2360   17.4090 C.ar  169  TRP169      0.0810
     90  CE3       57.2080  -48.6450   18.2820 C.ar  169  TRP169      0.0012
     91  CZ2       59.3820  -50.4710   18.0630 C.ar  169  TRP169      0.0191
     92  CZ3       57.2100  -49.8710   18.9520 C.ar  169  TRP169      0.0001
     93  CH2       58.2890  -50.7570   18.8360 C.ar  169  TRP169      0.0015
     94  N         54.8010  -50.1340   21.9410 N.3   196  ASN196     -0.1240
     95  CA        55.3390  -49.0550   22.8210 C.3   196  ASN196      0.1653
     96  C         54.2740  -48.0510   23.2150 C.2   196  ASN196      0.2266
     97  O         53.1610  -48.1560   22.7140 O.2   196  ASN196     -0.2867
     98  CB        56.6130  -48.3800   22.2570 C.3   196  ASN196      0.1155
     99  CG        56.3260  -47.3510   21.1740 C.2   196  ASN196      0.2627
    100  OD1       55.1950  -47.2150   20.6790 O.2   196  ASN196     -0.2716
    101  ND2       57.3620  -46.6150   20.7980 N.am  196  ASN196     -0.0877
    102  N         55.3090  -49.5990   26.2130 N.3   221  GLN221     -0.1231
    103  CA        56.7490  -49.6480   26.4920 C.3   221  GLN221      0.1698
    104  C         57.2720  -48.2330   26.5520 C.2   221  GLN221      0.2592
    105  O         56.8390  -47.3880   25.7490 O.2   221  GLN221     -0.2718
    106  CB        57.5120  -50.4550   25.4160 C.3   221  GLN221      0.0381
    107  CG        59.0130  -50.4620   25.5980 C.3   221  GLN221      0.0905
    108  CD        59.7480  -51.3780   24.6480 C.2   221  GLN221      0.2608
    109  OE1       60.8820  -51.7980   24.9310 O.2   221  GLN221     -0.2717
    110  NE2       59.1230  -51.6880   23.4980 N.am  221  GLN221     -0.0878
    111  N         58.1640  -47.9970   27.5220 N.am  222  ASP222     -0.1974
    112  CA        58.9790  -46.7600   27.6910 C.3   222  ASP222      0.1709
    113  C         58.5910  -45.9570   28.9430 C.2   222  ASP222      0.2293
    114  O         59.3920  -45.1680   29.4420 O.2   222  ASP222     -0.2864
    115  CB        58.9890  -45.8020   26.4710 C.3   222  ASP222      0.1436
    116  CG        59.6740  -46.3950   25.2180 C.2   222  ASP222      0.3671
    117  OD1       60.2870  -47.4780   25.2630 O.co2 222  ASP222     -0.2456
    118  OD2       59.5950  -45.7240   24.1540 O.co2 222  ASP222     -0.2456
    119  N         62.0360  -48.9820   31.3930 N.3   242  LYS242     -0.1245
    120  CA        63.4200  -49.3410   31.1450 C.3   242  LYS242      0.1561
    121  C         64.2510  -48.1440   31.6410 C.2   242  LYS242      0.2260
    122  O         64.1180  -47.0460   31.0910 O.2   242  LYS242     -0.2867
    123  CB        63.6450  -49.5740   29.6250 C.3   242  LYS242      0.0271
    124  CG        62.7280  -50.5940   28.9590 C.3   242  LYS242      0.0035
    125  CD        63.1920  -50.9880   27.5330 C.3   242  LYS242      0.0206
    126  CE        62.9500  -49.8590   26.4690 C.3   242  LYS242      0.1093
    127  NZ        63.2580  -50.3370   25.0530 N.3   242  LYS242     -0.1314
@<TRIPOS>BOND
     1    53    54    1
     2    54    55    1
     3    54    57    1
     4    80    81    1
     5    55    56    2
     6    57    58    1
     7    81    82    1
     8    81    84    1
     9    82    83    2
    10    51    50    1
    11    58    59   ar
    12    58    60   ar
    13    86    88   ar
    14    86    85   ar
    15    84    85    1
    16    88    89   ar
    17    85    87   ar
    18    50    52    1
    19    50    49    2
    20    61    62    1
    21    48    49    1
    22    48    47    1
    23    45    44    2
    24    46    47    1
    25    46    43    1
    26    89    87   ar
    27    89    91   ar
    28    87    90   ar
    29    44    43    1
    30    91    93   ar
    31    63    62    1
    32    63    64    2
    33    90    92   ar
    34    62    65    1
    35    43    42    1
    36    93    92   ar
    37    65    66    1
    38    28    26   ar
    39    28    29   ar
    40    42    36   am
    41    67    66    2
    42    66    68   am
    43    26    25   ar
    44     8     6    1
    45    31    29   ar
    46    31    33   ar
    47     7     6    1
    48     6     5    1
    49    29    27   ar
    50     1     2    1
    51    69    70    1
    52    71    70    1
    53    71    72    2
    54    76    78   ar
    55    76    74   ar
    56   100    99    2
    57    33    32   ar
    58    36    37    2
    59    36    35    1
    60   101    99   am
    61    73    70    1
    62    73    74    1
    63    78    79   ar
    64    25    27   ar
    65    25    24    1
    66    27    30   ar
    67    99    98    1
    68    74    75   ar
    69     5     2    1
    70     2     3    1
    71    24    21    1
    72    32    30   ar
    73    41    39   ar
    74    34    35    1
    75    35    38    1
    76    94    95    1
    77    38    39    1
    78    79    77   ar
    79    98    95    1
    80    75    77   ar
    81     4     3    2
    82    39    40   ar
    83    97    96    2
    84    95    96    1
    85    21    22    1
    86    21    20    1
    87    23    22    2
    88   110   108   am
    89    20    11   am
    90   118   116   ar
    91    18    17    1
    92    14    15    1
    93    14    13    1
    94    15    16    1
    95    17    16    2
    96    17    19    1
    97   108   109    2
    98   108   107    1
    99    11    10    1
   100    11    12    2
   101   127   126    1
   102     9    10    1
   103   116   117   ar
   104   116   115    1
   105   106   107    1
   106   106   103    1
   107    10    13    1
   108   105   104    2
   109   102   103    1
   110   126   125    1
   111   115   112    1
   112   103   104    1
   113   104   111   am
   114   111   112    1
   115   125   124    1
   116   112   113    1
   117   113   114    2
   118   124   123    1
   119   123   120    1
   120   122   121    2
   121   120   119    1
   122   120   121    1
