@<TRIPOS>MOLECULE
tmp/3ma3A00.pdb
 133 124 0 0 0
SMALL
GASTEIGER

@<TRIPOS>ATOM
      1  N        -25.2120   33.8330   -3.6990 N.3     8  LEU8       -0.1231
      2  CA       -24.4010   35.0060   -4.0400 C.3     8  LEU8        0.1693
      3  C        -23.1110   34.5540   -4.7400 C.2     8  LEU8        0.2592
      4  O        -22.5860   35.2510   -5.6310 O.2     8  LEU8       -0.2718
      5  CB       -24.0430   35.7990   -2.7690 C.3     8  LEU8        0.0284
      6  CG       -25.1750   36.1130   -1.7700 C.3     8  LEU8        0.0019
      7  CD1      -24.6430   36.4170   -0.3930 C.3     8  LEU8        0.0001
      8  CD2      -26.0030   37.2790   -2.2420 C.3     8  LEU8        0.0001
      9  N        -22.5890   33.4000   -4.2990 N.am    9  GLY9       -0.1957
     10  CA       -21.4460   32.7210   -4.9450 C.3     9  GLY9        0.1869
     11  C        -21.3510   31.2190   -4.6490 C.2     9  GLY9        0.2309
     12  O        -22.0300   30.6980   -3.7560 O.2     9  GLY9       -0.2863
     13  N        -22.4600   30.5480   -0.7160 N.3    14  VAL14      -0.1245
     14  CA       -22.8270   31.6500    0.1690 C.3    14  VAL14       0.1561
     15  C        -24.1740   32.1880   -0.2950 C.2    14  VAL14       0.2260
     16  O        -24.2960   32.5500   -1.4630 O.2    14  VAL14      -0.2867
     17  CB       -21.8040   32.7920    0.0900 C.3    14  VAL14       0.0252
     18  CG1      -22.0640   33.8380    1.2020 C.3    14  VAL14       0.0019
     19  CG2      -20.3940   32.2380    0.1260 C.3    14  VAL14       0.0019
     20  N        -25.1740   37.1040    5.2100 N.3    27  ALA27      -0.1245
     21  CA       -24.6870   36.1440    4.2150 C.3    27  ALA27       0.1562
     22  C        -24.5100   34.8080    4.8990 C.2    27  ALA27       0.2260
     23  O        -23.9500   34.7380    5.9790 O.2    27  ALA27      -0.2867
     24  CB       -23.3670   36.6090    3.6110 C.3    27  ALA27       0.0290
     25  N        -22.9080   31.2210    4.8060 N.3    29  LYS29      -0.1245
     26  CA       -21.8470   30.4940    4.1150 C.3    29  LYS29       0.1561
     27  C        -21.7680   29.0760    4.6250 C.2    29  LYS29       0.2260
     28  O        -21.6520   28.8510    5.8200 O.2    29  LYS29      -0.2867
     29  CB       -20.4910   31.1900    4.2910 C.3    29  LYS29       0.0271
     30  CG       -19.3230   30.3630    3.7480 C.3    29  LYS29       0.0035
     31  CD       -18.0350   31.1990    3.6300 C.3    29  LYS29       0.0206
     32  CE       -16.8880   30.3990    2.9810 C.3    29  LYS29       0.1093
     33  NZ       -15.6210   31.2290    3.0490 N.3    29  LYS29      -0.1314
     34  N        -11.3070   28.3520   10.0480 N.3    51  GLU51      -0.1245
     35  CA       -11.9200   29.5540    9.4930 C.3    51  GLU51       0.1567
     36  C        -12.7770   30.2220   10.5550 C.2    51  GLU51       0.2260
     37  O        -12.7700   31.4560   10.7000 O.2    51  GLU51      -0.2867
     38  CB       -12.7490   29.2110    8.2490 C.3    51  GLU51       0.0388
     39  CG       -13.4460   30.3940    7.5690 C.3    51  GLU51       0.1160
     40  CD       -14.1000   30.0160    6.2350 C.2    51  GLU51       0.3649
     41  OE1      -14.0750   28.8300    5.8850 O.co2  51  GLU51      -0.2457
     42  OE2      -14.6400   30.9000    5.5330 O.co2  51  GLU51      -0.2457
     43  N        -15.4100   41.5150    7.2970 N.3    66  ILE66      -0.1245
     44  CA       -16.7520   40.9390    7.4150 C.3    66  ILE66       0.1561
     45  C        -16.8210   40.1280    8.7110 C.2    66  ILE66       0.2260
     46  O        -15.9580   39.3210    9.0160 O.2    66  ILE66      -0.2867
     47  CB       -17.1550   40.0970    6.1780 C.3    66  ILE66       0.0252
     48  CG1      -17.4960   41.0080    5.0180 C.3    66  ILE66       0.0019
     49  CG2      -18.4530   39.3350    6.3400 C.3    66  ILE66       0.0019
     50  CD1      -18.8450   41.6650    5.1220 C.3    66  ILE66       0.0001
     51  N        -22.7700   35.5720    8.4330 N.3    82  LEU82      -0.1231
     52  CA       -21.8730   36.7110    8.2920 C.3    82  LEU82       0.1693
     53  C        -22.6380   37.9940    7.9570 C.2    82  LEU82       0.2592
     54  O        -23.7750   37.9420    7.4750 O.2    82  LEU82      -0.2718
     55  CB       -20.8960   36.4200    7.1610 C.3    82  LEU82       0.0284
     56  CG       -19.9880   35.1980    7.3660 C.3    82  LEU82       0.0019
     57  CD1      -19.8250   34.4080    6.1040 C.3    82  LEU82       0.0001
     58  CD2      -18.6330   35.6450    7.8480 C.3    82  LEU82       0.0001
     59  N        -22.0000   39.1380    8.1990 N.am   83  GLU83      -0.1966
     60  CA       -22.5210   40.4340    7.7640 C.3    83  GLU83       0.1733
     61  C        -22.7450   40.4280    6.2840 C.2    83  GLU83       0.2616
     62  O        -21.9870   39.8080    5.5260 O.2    83  GLU83      -0.2715
     63  CB       -21.5310   41.5810    8.0190 C.3    83  GLU83       0.0429
     64  CG       -21.3130   41.9690    9.4630 C.3    83  GLU83       0.1163
     65  CD       -20.4450   43.2310    9.6060 C.2    83  GLU83       0.3649
     66  OE1      -19.4000   43.3440    8.9030 O.co2  83  GLU83      -0.2457
     67  OE2      -20.8080   44.1010   10.4340 O.co2  83  GLU83      -0.2457
     68  N        -23.7600   41.1580    5.8570 N.am   84  ARG84      -0.1964
     69  CA       -23.9050   41.4260    4.4380 C.3    84  ARG84       0.1714
     70  C        -24.2300   42.9000    4.2180 C.2    84  ARG84       0.2458
     71  O        -25.3390   43.3360    4.4970 O.2    84  ARG84      -0.2730
     72  CB       -24.9810   40.5520    3.8240 C.3    84  ARG84       0.0347
     73  CG       -25.2890   40.8890    2.3650 C.3    84  ARG84       0.0492
     74  CD       -26.1990   39.8360    1.7490 C.3    84  ARG84       0.2205
     75  NE       -27.4950   39.7430    2.4330 N.pl3  84  ARG84      -0.0865
     76  CZ       -28.5770   40.4520    2.1010 C.cat  84  ARG84       0.5346
     77  NH1      -28.5340   41.3360    1.1110 N.pl3  84  ARG84       0.1354
     78  NH2      -29.7110   40.2890    2.7710 N.pl3  84  ARG84       0.1354
     79  N        -23.2630   43.6610    3.7040 N.am   85  PRO85      -0.2727
     80  CA       -23.6240   45.0020    3.3200 C.3    85  PRO85       0.1402
     81  C        -24.4260   45.0030    2.0100 C.2    85  PRO85       0.2269
     82  O        -24.4710   44.0150    1.2530 O.2    85  PRO85      -0.2865
     83  CB       -22.2720   45.7060    3.1550 C.3    85  PRO85       0.0296
     84  CG       -21.1850   44.6030    3.3180 C.3    85  PRO85       0.0237
     85  CD       -21.9110   43.3080    3.2500 C.3    85  PRO85       0.0939
     86  N        -23.5880   46.2090   -2.5370 N.3    88  VAL88      -0.1231
     87  CA       -22.2050   45.7650   -2.5020 C.3    88  VAL88       0.1692
     88  C        -21.7180   45.2530   -3.8590 C.2    88  VAL88       0.2592
     89  O        -22.5100   44.7410   -4.6650 O.2    88  VAL88      -0.2718
     90  CB       -22.0280   44.6280   -1.4550 C.3    88  VAL88       0.0266
     91  CG1      -22.5490   43.3200   -1.9960 C.3    88  VAL88       0.0020
     92  CG2      -20.5920   44.4700   -1.0990 C.3    88  VAL88       0.0020
     93  N        -20.4100   45.3880   -4.0950 N.am   89  GLN89      -0.1966
     94  CA       -19.7240   44.7520   -5.2320 C.3    89  GLN89       0.1733
     95  C        -18.3130   44.4040   -4.8050 C.2    89  GLN89       0.2616
     96  O        -17.6560   45.1900   -4.1050 O.2    89  GLN89      -0.2715
     97  CB       -19.6730   45.6850   -6.4710 C.3    89  GLN89       0.0408
     98  CG       -19.3610   44.9730   -7.8050 C.3    89  GLN89       0.0908
     99  CD       -19.2860   45.9120   -9.0320 C.2    89  GLN89       0.2608
    100  OE1      -18.8720   47.0620   -8.9440 O.2    89  GLN89      -0.2717
    101  NE2      -19.6460   45.3830  -10.1820 N.am   89  GLN89      -0.0878
    102  N        -17.8460   43.2220   -5.2050 N.am   90  ASP90      -0.1971
    103  CA       -16.5080   42.8420   -4.9040 C.3    90  ASP90       0.1709
    104  C        -15.5330   43.6440   -5.7950 C.2    90  ASP90       0.2293
    105  O        -15.9130   44.1920   -6.8410 O.2    90  ASP90      -0.2864
    106  CB       -16.3300   41.3050   -4.9340 C.3    90  ASP90       0.1436
    107  CG       -16.0670   40.7460   -6.3240 C.2    90  ASP90       0.3671
    108  OD1      -16.4990   39.5980   -6.5710 O.co2  90  ASP90      -0.2456
    109  OD2      -15.4020   41.4180   -7.1440 O.co2  90  ASP90      -0.2456
    110  N        -14.8900   43.2790   -0.4720 N.3   136  LEU136     -0.1245
    111  CA       -16.2040   43.7750   -0.8490 C.3   136  LEU136      0.1561
    112  C        -16.1900   45.2380   -0.6770 C.2   136  LEU136      0.2260
    113  O        -15.5760   45.7270    0.2720 O.2   136  LEU136     -0.2867
    114  CB       -17.3050   43.2010    0.0330 C.3   136  LEU136      0.0270
    115  CG       -17.5410   41.6900   -0.0570 C.3   136  LEU136      0.0019
    116  CD1      -18.7220   41.2910    0.8350 C.3   136  LEU136      0.0001
    117  CD2      -17.8130   41.2670   -1.4860 C.3   136  LEU136      0.0001
    118  N        -12.9980   39.4250    3.0880 N.3   147  ILE147     -0.1231
    119  CA       -13.7010   38.1720    3.2580 C.3   147  ILE147      0.1692
    120  C        -12.8400   36.9570    3.0680 C.2   147  ILE147      0.2592
    121  O        -11.7060   37.0450    2.6040 O.2   147  ILE147     -0.2718
    122  CB       -14.9200   38.0600    2.2930 C.3   147  ILE147      0.0266
    123  CG1      -14.5070   38.2570    0.8500 C.3   147  ILE147      0.0019
    124  CG2      -15.9590   39.1180    2.6250 C.3   147  ILE147      0.0020
    125  CD1      -15.6050   37.9150   -0.1050 C.3   147  ILE147      0.0001
    126  N        -13.4260   35.8080    3.4170 N.am  148  ASP148     -0.1974
    127  CA       -12.8730   34.4610    3.1710 C.3   148  ASP148      0.1709
    128  C        -11.5190   34.2100    3.8480 C.2   148  ASP148      0.2293
    129  O        -10.4550   34.3750    3.2520 O.2   148  ASP148     -0.2864
    130  CB       -12.8150   34.1590    1.6680 C.3   148  ASP148      0.1436
    131  CG       -12.5180   32.6830    1.3640 C.2   148  ASP148      0.3671
    132  OD1      -12.4700   31.8220    2.2940 O.co2 148  ASP148     -0.2456
    133  OD2      -12.3380   32.3890    0.1680 O.co2 148  ASP148     -0.2456
@<TRIPOS>BOND
     1   101    99   am
     2    99   100    2
     3    99    98    1
     4    98    97    1
     5   109   107   ar
     6   105   104    2
     7   108   107   ar
     8    97    94    1
     9   107   106    1
    10   104   103    1
    11     4     3    2
    12    94    95    1
    13    94    93    1
    14   102   103    1
    15   102    95   am
    16    10    11    1
    17    10     9    1
    18   106   103    1
    19    95    96    2
    20     3     9   am
    21     3     2    1
    22    89    88    2
    23    11    12    2
    24    93    88   am
    25     2     1    1
    26     2     5    1
    27    88    87    1
    28     5     6    1
    29    86    87    1
    30    87    90    1
    31     8     6    1
    32    91    90    1
    33     6     7    1
    34   117   115    1
    35    16    15    2
    36    90    92    1
    37   111   112    1
    38   111   110    1
    39   111   114    1
    40    13    14    1
    41   112   113    2
    42    15    14    1
    43   125   123    1
    44   115   114    1
    45   115   116    1
    46    17    19    1
    47    17    14    1
    48    17    18    1
    49   133   131   ar
    50   123   122    1
    51    77    76    1
    52    82    81    2
    53   131   130    1
    54   131   132   ar
    55   130   127    1
    56    74    73    1
    57    74    75    1
    58    81    80    1
    59    76    75    2
    60    76    78    1
    61   122   124    1
    62   122   119    1
    63    73    72    1
    64   121   120    2
    65    32    33    1
    66    32    31    1
    67   120   119    1
    68   120   126   am
    69   118   119    1
    70    83    84    1
    71    83    80    1
    72   127   126    1
    73   127   128    1
    74    85    84    1
    75    85    79    1
    76   129   128    2
    77    80    79    1
    78    24    21    1
    79    31    30    1
    80    79    70   am
    81    30    29    1
    82    72    69    1
    83    26    29    1
    84    26    27    1
    85    26    25    1
    86    21    22    1
    87    21    20    1
    88    70    69    1
    89    70    71    2
    90    69    68    1
    91    27    28    2
    92    22    23    2
    93    48    50    1
    94    48    47    1
    95    62    61    2
    96    42    40   ar
    97    68    61   am
    98    41    40   ar
    99    57    56    1
   100    47    49    1
   101    47    44    1
   102    40    39    1
   103    61    60    1
   104    55    56    1
   105    55    52    1
   106    43    44    1
   107    56    58    1
   108    44    45    1
   109    54    53    2
   110    39    38    1
   111    60    63    1
   112    60    59    1
   113    53    59   am
   114    53    52    1
   115    63    64    1
   116    38    35    1
   117    52    51    1
   118    45    46    2
   119    66    65   ar
   120    64    65    1
   121    35    34    1
   122    35    36    1
   123    65    67   ar
   124    36    37    2
