@<TRIPOS>MOLECULE
tmp/3ma6A00.pdb
 128 118 0 0 0
SMALL
GASTEIGER

@<TRIPOS>ATOM
      1  N         -8.5730   27.8490   14.1750 N.3    12  LEU12      -0.1231
      2  CA        -7.9290   26.8200   13.3450 C.3    12  LEU12       0.1693
      3  C         -8.7420   25.5190   13.2950 C.2    12  LEU12       0.2593
      4  O         -8.7060   24.8070   12.2870 O.2    12  LEU12      -0.2718
      5  CB        -6.5020   26.5310   13.8450 C.3    12  LEU12       0.0284
      6  CG        -5.4810   27.6660   13.7300 C.3    12  LEU12       0.0019
      7  CD1       -4.3450   27.4640   14.7020 C.3    12  LEU12       0.0001
      8  CD2       -4.9390   27.7920   12.3070 C.3    12  LEU12       0.0001
      9  N         -9.4550   25.2310   14.3820 N.am   13  GLY13      -0.1942
     10  CA       -10.2810   24.0370   14.5270 C.3    13  GLY13       0.2014
     11  C        -10.4150   23.5950   15.9690 C.2    13  GLY13       0.2639
     12  O         -9.9400   24.2840   16.8780 O.2    13  GLY13      -0.2714
     13  N        -11.0700   22.4400   16.1870 N.am   14  LYS14      -0.1963
     14  CA       -11.2910   21.8790   17.5190 C.3    14  LYS14       0.1728
     15  C        -10.3330   20.7180   17.7810 C.2    14  LYS14       0.2616
     16  O        -10.1170   19.8790   16.9010 O.2    14  LYS14      -0.2715
     17  CB       -12.7580   21.4290   17.6780 C.3    14  LYS14       0.0311
     18  CG       -13.2080   21.2680   19.1130 C.3    14  LYS14       0.0038
     19  CD       -14.6490   20.7740   19.1800 C.3    14  LYS14       0.0206
     20  CE       -15.6010   21.7790   18.5540 C.3    14  LYS14       0.1093
     21  NZ       -15.6600   23.0350   19.3590 N.3    14  LYS14      -0.1314
     22  N         -9.7770   20.6890   18.9920 N.am   15  GLY15      -0.1955
     23  CA        -8.8500   19.6540   19.4400 C.3    15  GLY15       0.1869
     24  C         -9.4740   18.6660   20.4060 C.2    15  GLY15       0.2309
     25  O        -10.6930   18.4660   20.3980 O.2    15  GLY15      -0.2863
     26  N         -8.8120   25.1620   19.2080 N.3    20  VAL20      -0.1245
     27  CA        -7.5030   25.7070   18.8210 C.3    20  VAL20       0.1561
     28  C         -7.7180   26.9870   17.9950 C.2    20  VAL20       0.2260
     29  O         -8.5220   26.9880   17.0630 O.2    20  VAL20      -0.2867
     30  CB        -6.5960   24.6680   18.0880 C.3    20  VAL20       0.0252
     31  CG1       -5.1870   25.2180   17.8680 C.3    20  VAL20       0.0019
     32  CG2       -6.5290   23.3500   18.8570 C.3    20  VAL20       0.0019
     33  N         -0.2870   28.6580   18.2050 N.3    33  ALA33      -0.1245
     34  CA        -1.5400   27.9260   18.3370 C.3    33  ALA33       0.1562
     35  C         -1.9050   27.8510   19.8230 C.2    33  ALA33       0.2260
     36  O         -1.0540   27.4850   20.6470 O.2    33  ALA33      -0.2867
     37  CB        -1.3900   26.5280   17.7490 C.3    33  ALA33       0.0290
     38  N         -4.7210   26.3770   22.7500 N.3    35  LYS35      -0.1245
     39  CA        -5.7770   25.4330   23.0880 C.3    35  LYS35       0.1561
     40  C         -6.5520   25.9870   24.2870 C.2    35  LYS35       0.2260
     41  O         -6.0090   26.0780   25.3940 O.2    35  LYS35      -0.2867
     42  CB        -5.1990   24.0360   23.3830 C.3    35  LYS35       0.0271
     43  CG        -6.1710   22.8960   23.6750 C.3    35  LYS35       0.0035
     44  CD        -5.2470   21.6430   23.8330 C.3    35  LYS35       0.0206
     45  CE        -4.4610   21.5470   22.5110 C.3    35  LYS35       0.1093
     46  NZ        -5.1350   20.6380   21.5110 N.3    35  LYS35      -0.1314
     47  N          5.2490   18.4550   19.4210 N.3    67  MET67      -0.1245
     48  CA         4.8390   19.8530   19.3950 C.3    67  MET67       0.1570
     49  C          5.4690   20.5880   20.5800 C.2    67  MET67       0.2261
     50  O          5.3030   20.1620   21.7270 O.2    67  MET67      -0.2867
     51  CB         3.3060   19.9960   19.4140 C.3    67  MET67       0.0387
     52  CG         2.8430   21.4270   19.6990 C.3    67  MET67       0.0595
     53  SD         1.0710   21.6680   19.8990 S.3    67  MET67      -0.1393
     54  CE         0.7030   20.4730   21.2330 C.3    67  MET67       0.0692
     55  N         -3.1930   26.9410   26.6390 N.3    81  LEU81      -0.1245
     56  CA        -1.9400   26.2560   26.3130 C.3    81  LEU81       0.1561
     57  C         -1.4630   26.7820   24.9550 C.2    81  LEU81       0.2260
     58  O         -2.1450   26.5860   23.9470 O.2    81  LEU81      -0.2867
     59  CB        -2.1400   24.7280   26.2850 C.3    81  LEU81       0.0270
     60  CG        -1.8930   23.9400   27.5530 C.3    81  LEU81       0.0019
     61  CD1       -2.1130   22.4750   27.1350 C.3    81  LEU81       0.0001
     62  CD2       -0.4530   24.1420   27.9920 C.3    81  LEU81       0.0001
     63  N          1.4200   26.9520   21.9650 N.3    83  GLY83      -0.1210
     64  CA         2.4900   26.1990   21.3270 C.3    83  GLY83       0.1956
     65  C          2.6960   26.5260   19.8640 C.2    83  GLY83       0.2615
     66  O          1.9990   27.3780   19.3060 O.2    83  GLY83      -0.2717
     67  N          3.6670   25.8290   19.2390 N.am   84  GLU84      -0.1919
     68  CA         4.0500   25.9510   17.8310 C.3    84  GLU84       0.1949
     69  C          2.8850   25.5530   16.9200 C.2    84  GLU84       0.2659
     70  O          2.2580   24.5150   17.1450 O.2    84  GLU84      -0.2711
     71  CB         5.2820   25.0610   17.5560 C.2    84  GLU84       0.0111
     72  CG         6.0810   25.4310   16.3150 C.2    84  GLU84       0.0838
     73  CD         7.3450   24.6220   16.0640 C.2    84  GLU84       0.3877
     74  OE1        7.7070   23.7820   16.9200 O.co2  84  GLU84      -0.2406
     75  OE2        7.9710   24.8240   14.9970 O.co2  84  GLU84      -0.2406
     76  N          2.5860   26.3910   15.9100 N.am   85  VAL85      -0.1961
     77  CA         1.5190   26.1230   14.9410 C.3    85  VAL85       0.1727
     78  C          2.1220   25.3690   13.7280 C.2    85  VAL85       0.2616
     79  O          3.2370   25.6880   13.2860 O.2    85  VAL85      -0.2715
     80  CB         0.7060   27.3990   14.5560 C.3    85  VAL85       0.0290
     81  CG1        1.5280   28.3930   13.7310 C.3    85  VAL85       0.0023
     82  CG2       -0.6030   27.0430   13.8520 C.3    85  VAL85       0.0023
     83  N          1.4020   24.3290   13.2450 N.am   86  TYR86      -0.1974
     84  CA         1.8330   23.4930   12.1260 C.3    86  TYR86       0.1639
     85  C          0.8530   23.6160   10.9650 C.2    86  TYR86       0.2290
     86  O         -0.3610   23.5580   11.1690 O.2    86  TYR86      -0.2864
     87  CB         2.0500   22.0380   12.5850 C.3    86  TYR86       0.0560
     88  CG         3.0560   21.9310   13.7180 C.ar   86  TYR86      -0.0198
     89  CD1        2.6540   21.5730   15.0050 C.ar   86  TYR86      -0.0009
     90  CD2        4.3980   22.2610   13.5210 C.ar   86  TYR86      -0.0009
     91  CE1        3.5710   21.5060   16.0570 C.ar   86  TYR86       0.0417
     92  CE2        5.3210   22.1990   14.5650 C.ar   86  TYR86       0.0417
     93  CZ         4.9030   21.8250   15.8320 C.ar   86  TYR86       0.1957
     94  OH         5.8160   21.7650   16.8570 O.3    86  TYR86      -0.2866
     95  N         -3.1600   17.0410    8.7220 N.3    90  GLU90      -0.1245
     96  CA        -3.1280   15.6410    9.1770 C.3    90  GLU90       0.1567
     97  C         -2.3080   14.7540    8.2500 C.2    90  GLU90       0.2260
     98  O         -2.5280   14.7560    7.0340 O.2    90  GLU90      -0.2867
     99  CB        -4.5450   15.0780    9.3240 C.3    90  GLU90       0.0388
    100  CG        -5.2190   15.4040   10.6460 C.3    90  GLU90       0.1160
    101  CD        -6.5310   14.6720   10.8470 C.2    90  GLU90       0.3649
    102  OE1       -6.5120   13.4210   10.9330 O.co2  90  GLU90      -0.2457
    103  OE2       -7.5830   15.3490   10.8970 O.co2  90  GLU90      -0.2457
    104  N         -5.2220   11.6300   14.1580 N.3   133  GLU133     -0.1245
    105  CA        -5.5870   13.0410   14.3970 C.3   133  GLU133      0.1567
    106  C         -4.4910   13.7820   15.1720 C.2   133  GLU133      0.2260
    107  O         -4.3340   14.9920   14.9990 O.2   133  GLU133     -0.2867
    108  CB        -6.9110   13.1460   15.1680 C.3   133  GLU133      0.0388
    109  CG        -8.1540   13.0640   14.2940 C.3   133  GLU133      0.1160
    110  CD        -9.3880   13.7970   14.8070 C.2   133  GLU133      0.3649
    111  OE1       -9.5790   13.8730   16.0430 O.co2 133  GLU133     -0.2457
    112  OE2      -10.1790   14.2760   13.9610 O.co2 133  GLU133     -0.2457
    113  N          0.4660   15.3620   13.1060 N.3   136  LEU136     -0.1245
    114  CA         0.4250   16.4910   12.1820 C.3   136  LEU136      0.1561
    115  C          1.7180   16.6650   11.4190 C.2   136  LEU136      0.2260
    116  O          2.7910   16.3030   11.9080 O.2   136  LEU136     -0.2867
    117  CB         0.0810   17.8080   12.9220 C.3   136  LEU136      0.0270
    118  CG        -1.3310   17.9590   13.5220 C.3   136  LEU136      0.0019
    119  CD1       -1.4640   19.2850   14.2340 C.3   136  LEU136      0.0001
    120  CD2       -2.4190   17.8690   12.4500 C.3   136  LEU136      0.0001
    121  N          0.9530   15.8440   18.6620 N.3   149  ILE149     -0.1245
    122  CA         0.2600   16.8450   19.4870 C.3   149  ILE149      0.1561
    123  C         -0.5040   16.1850   20.6520 C.2   149  ILE149      0.2260
    124  O         -0.7590   14.9850   20.6160 O.2   149  ILE149     -0.2867
    125  CB        -0.6740   17.7770   18.6350 C.3   149  ILE149      0.0252
    126  CG1       -1.7620   16.9610   17.8700 C.3   149  ILE149      0.0019
    127  CG2        0.1480   18.6540   17.6710 C.3   149  ILE149      0.0019
    128  CD1       -3.0790   17.7000   17.5710 C.3   149  ILE149      0.0001
@<TRIPOS>BOND
     1    98    97    2
     2    97    96    1
     3    95    96    1
     4    96    99    1
     5    99   100    1
     6   100   101    1
     7   101   103   ar
     8   101   102   ar
     9    85    86    2
    10    85    84    1
    11   115   116    2
    12   115   114    1
    13    84    87    1
    14    84    83    1
    15   114   117    1
    16   114   113    1
    17     4     3    2
    18     8     6    1
    19   120   118    1
    20    87    88    1
    21   117   118    1
    22    83    78   am
    23    79    78    2
    24     3     2    1
    25     3     9   am
    26     2     5    1
    27     2     1    1
    28    90    88   ar
    29    90    92   ar
    30   118   119    1
    31    88    89   ar
    32    78    77    1
    33     6     5    1
    34     6     7    1
    35    81    80    1
    36    82    80    1
    37   112   110   ar
    38   104   105    1
    39   109   110    1
    40   109   108    1
    41     9    10    1
    42   105   108    1
    43   105   106    1
    44    10    11    1
    45    80    77    1
    46    92    93   ar
    47   110   111   ar
    48    77    76    1
    49    75    73   ar
    50   107   106    2
    51    89    91   ar
    52    93    91   ar
    53    93    94    1
    54    76    69   am
    55    11    13   am
    56    11    12    2
    57    73    72    1
    58    73    74   ar
    59    13    14    1
    60    72    71    2
    61    16    15    2
    62    69    70    2
    63    69    68    1
    64    29    28    2
    65    14    17    1
    66    14    15    1
    67    71    68    1
    68   128   126    1
    69   127   125    1
    70    17    18    1
    71    37    34    1
    72    15    22   am
    73    68    67    1
    74    31    30    1
    75   126   125    1
    76    28    27    1
    77    30    27    1
    78    30    32    1
    79    33    34    1
    80    34    35    1
    81    20    19    1
    82    20    21    1
    83   125   122    1
    84   121   122    1
    85    27    26    1
    86    22    23    1
    87    18    19    1
    88    67    65   am
    89    66    65    2
    90    48    51    1
    91    48    47    1
    92    48    49    1
    93    51    52    1
    94    23    24    1
    95   122   123    1
    96    52    53    1
    97    35    36    2
    98    65    64    1
    99    53    54    1
   100    25    24    2
   101    49    50    2
   102   124   123    2
   103    64    63    1
   104    46    45    1
   105    45    44    1
   106    38    39    1
   107    39    42    1
   108    39    40    1
   109    42    43    1
   110    43    44    1
   111    58    57    2
   112    40    41    2
   113    57    56    1
   114    59    56    1
   115    59    60    1
   116    56    55    1
   117    61    60    1
   118    60    62    1
