@<TRIPOS>MOLECULE
tmp/3ma8B00.pdb
 106 95 0 0 0
SMALL
GASTEIGER

@<TRIPOS>ATOM
      1  N        -26.2690   16.0680  -49.7980 N.3    49  ARG49      -0.1245
      2  CA       -26.5630   17.4070  -49.2880 C.3    49  ARG49       0.1563
      3  C        -25.3630   18.3440  -49.4340 C.2    49  ARG49       0.2260
      4  O        -24.2990   18.0900  -48.8800 O.2    49  ARG49      -0.2867
      5  CB       -26.9980   17.3160  -47.8260 C.3    49  ARG49       0.0307
      6  CG       -27.1060   18.6480  -47.0890 C.3    49  ARG49       0.0489
      7  CD       -27.7810   18.4460  -45.7400 C.3    49  ARG49       0.2205
      8  NE       -27.7350   19.6460  -44.9070 N.pl3  49  ARG49      -0.0865
      9  CZ       -26.7690   19.9480  -44.0390 C.cat  49  ARG49       0.5346
     10  NH1      -26.8470   21.0740  -43.3410 N.pl3  49  ARG49       0.1354
     11  NH2      -25.7250   19.1430  -43.8580 N.pl3  49  ARG49       0.1354
     12  N        -23.8830   21.8410  -48.4930 N.3    51  ASN51      -0.1240
     13  CA       -24.0260   22.8930  -47.4900 C.3    51  ASN51       0.1653
     14  C        -23.4120   24.2050  -47.9770 C.2    51  ASN51       0.2266
     15  O        -22.1860   24.3330  -48.0510 O.2    51  ASN51      -0.2867
     16  CB       -23.3740   22.4570  -46.1750 C.3    51  ASN51       0.1155
     17  CG       -23.6950   23.3920  -45.0140 C.2    51  ASN51       0.2627
     18  OD1      -24.5780   24.2460  -45.1050 O.2    51  ASN51      -0.2716
     19  ND2      -22.9770   23.2250  -43.9120 N.am   51  ASN51      -0.0877
     20  N        -20.7500   27.2040  -46.4740 N.3    54  HIS54      -0.1241
     21  CA       -19.3210   27.2490  -46.7840 C.3    54  HIS54       0.1621
     22  C        -19.1010   27.0550  -48.2850 C.2    54  HIS54       0.2264
     23  O        -20.0010   26.6120  -49.0030 O.2    54  HIS54      -0.2867
     24  CB       -18.5620   26.1780  -46.0000 C.3    54  HIS54       0.0745
     25  CG       -18.8660   26.1730  -44.5340 C.ar   54  HIS54       0.0817
     26  ND1      -18.6140   27.2560  -43.7180 N.ar   54  HIS54      -0.2268
     27  CD2      -19.4060   25.2200  -43.7370 C.ar   54  HIS54       0.1154
     28  CE1      -18.9850   26.9690  -42.4820 C.ar   54  HIS54       0.1986
     29  NE2      -19.4680   25.7400  -42.4660 N.ar   54  HIS54      -0.2212
     30  N        -28.5150   23.3430  -49.2770 N.3    84  ASP84      -0.1239
     31  CA       -28.7850   23.8570  -47.9340 C.3    84  ASP84       0.1674
     32  C        -28.2800   25.2950  -47.8340 C.2    84  ASP84       0.2266
     33  O        -27.0800   25.5440  -47.9270 O.2    84  ASP84      -0.2867
     34  CB       -28.1200   22.9690  -46.8780 C.3    84  ASP84       0.1410
     35  CG       -28.6620   23.2080  -45.4810 C.2    84  ASP84       0.3668
     36  OD1      -28.8060   22.2260  -44.7240 O.co2  84  ASP84      -0.2456
     37  OD2      -28.9430   24.3740  -45.1290 O.co2  84  ASP84      -0.2456
     38  N        -36.2570   24.2420  -42.5390 N.3   245  LYS245     -0.1245
     39  CA       -35.4910   23.8680  -41.3570 C.3   245  LYS245      0.1561
     40  C        -36.0060   24.6330  -40.1450 C.2   245  LYS245      0.2260
     41  O        -35.9630   25.8620  -40.1160 O.2   245  LYS245     -0.2867
     42  CB       -34.0000   24.1480  -41.5710 C.3   245  LYS245      0.0271
     43  CG       -33.3750   23.2720  -42.6400 C.3   245  LYS245      0.0035
     44  CD       -32.0040   23.7530  -43.0850 C.3   245  LYS245      0.0206
     45  CE       -30.9830   23.7220  -41.9630 C.3   245  LYS245      0.1093
     46  NZ       -29.5980   23.8840  -42.4910 N.3   245  LYS245     -0.1314
     47  N        -35.2200   25.7110  -36.7040 N.3   247  GLU247     -0.1245
     48  CA       -33.9770   25.8940  -35.9470 C.3   247  GLU247      0.1567
     49  C        -34.1320   26.6920  -34.6480 C.2   247  GLU247      0.2260
     50  O        -33.2330   26.6740  -33.8090 O.2   247  GLU247     -0.2867
     51  CB       -32.9380   26.5830  -36.8290 C.3   247  GLU247      0.0388
     52  CG       -32.8680   26.0290  -38.2410 C.3   247  GLU247      0.1160
     53  CD       -31.5330   26.2880  -38.9020 C.2   247  GLU247      0.3649
     54  OE1      -31.4990   27.0210  -39.9130 O.co2 247  GLU247     -0.2457
     55  OE2      -30.5160   25.7600  -38.4070 O.co2 247  GLU247     -0.2457
     56  N        -37.3430   19.7710  -41.8820 N.3   266  MET266     -0.1245
     57  CA       -36.1430   19.2460  -41.2420 C.3   266  MET266      0.1570
     58  C        -36.1110   19.7250  -39.8030 C.2   266  MET266      0.2261
     59  O        -36.1200   20.9270  -39.5450 O.2   266  MET266     -0.2867
     60  CB       -34.8740   19.7030  -41.9640 C.3   266  MET266      0.0387
     61  CG       -33.5960   19.0900  -41.3870 C.3   266  MET266      0.0595
     62  SD       -32.0750   19.7820  -42.0550 S.3   266  MET266     -0.1393
     63  CE       -32.2550   19.3850  -43.7910 C.3   266  MET266      0.0692
     64  N        -33.9570   20.5580  -37.4780 N.3   268  ALA268     -0.1245
     65  CA       -32.5610   20.9420  -37.3030 C.3   268  ALA268      0.1562
     66  C        -32.2420   20.9730  -35.8140 C.2   268  ALA268      0.2260
     67  O        -32.2790   22.0260  -35.1770 O.2   268  ALA268     -0.2867
     68  CB       -32.2930   22.2960  -37.9420 C.3   268  ALA268      0.0290
     69  N        -29.4970   20.5590  -34.1350 N.3   270  GLY270     -0.1210
     70  CA       -28.2860   21.2950  -33.7660 C.3   270  GLY270      0.1956
     71  C        -28.5430   22.7030  -33.2560 C.2   270  GLY270      0.2611
     72  O        -28.1770   23.0360  -32.1270 O.2   270  GLY270     -0.2717
     73  N        -29.1770   23.5290  -34.0860 N.am  271  ASP271     -0.1973
     74  CA       -29.4890   24.9120  -33.7140 C.3   271  ASP271      0.1709
     75  C        -30.6590   24.9890  -32.7370 C.2   271  ASP271      0.2293
     76  O        -30.6670   25.8470  -31.8560 O.2   271  ASP271     -0.2864
     77  CB       -29.7680   25.7730  -34.9540 C.3   271  ASP271      0.1436
     78  CG       -28.4970   26.3390  -35.5730 C.2   271  ASP271      0.3671
     79  OD1      -27.8130   27.1390  -34.8990 O.co2 271  ASP271     -0.2456
     80  OD2      -28.1890   25.9980  -36.7340 O.co2 271  ASP271     -0.2456
     81  N        -32.1100   15.4500  -38.0590 N.3   302  ALA302     -0.1231
     82  CA       -30.7360   15.8200  -38.4140 C.3   302  ALA302      0.1694
     83  C        -29.8310   16.1390  -37.2240 C.2   302  ALA302      0.2592
     84  O        -30.3000   16.4770  -36.1440 O.2   302  ALA302     -0.2718
     85  CB       -30.7620   17.0070  -39.3630 C.3   302  ALA302      0.0304
     86  N        -28.5270   16.0070  -37.4570 N.am  303  THR303     -0.1953
     87  CA       -27.4700   16.5360  -36.5870 C.3   303  THR303      0.1897
     88  C        -27.1460   15.6720  -35.3650 C.2   303  THR303      0.2313
     89  O        -28.0260   15.3230  -34.5840 O.2   303  THR303     -0.2863
     90  CB       -27.7590   17.9910  -36.1370 C.3   303  THR303      0.1794
     91  OG1      -28.1090   18.7810  -37.2770 O.3   303  THR303     -0.2208
     92  CG2      -26.5370   18.6010  -35.4720 C.3   303  THR303      0.0378
     93  N        -30.2880   12.0300  -41.2120 N.3   335  MET335     -0.1245
     94  CA       -29.1980   12.7780  -41.8330 C.3   335  MET335      0.1570
     95  C        -27.8610   12.5520  -41.1410 C.2   335  MET335      0.2261
     96  O        -27.8020   12.2600  -39.9440 O.2   335  MET335     -0.2867
     97  CB       -29.5230   14.2770  -41.8450 C.3   335  MET335      0.0387
     98  CG       -28.5450   15.1270  -42.6620 C.3   335  MET335      0.0595
     99  SD       -29.0920   16.8260  -42.9310 S.3   335  MET335     -0.1393
    100  CE       -30.5110   16.5600  -43.9770 C.3   335  MET335      0.0692
    101  N        -24.0290   14.6690  -40.9450 N.3   337  SER337     -0.1217
    102  CA       -23.3690   15.9420  -41.2160 C.3   337  SER337      0.1889
    103  C        -21.8500   15.7710  -41.1960 C.2   337  SER337      0.2288
    104  O        -21.2600   15.4270  -42.2200 O.2   337  SER337     -0.2866
    105  CB       -23.8420   17.0060  -40.2240 C.3   337  SER337      0.2089
    106  OG       -25.2040   17.3210  -40.4500 O.3   337  SER337     -0.2183
@<TRIPOS>BOND
     1     1     2    1
     2     3     2    1
     3     3     4    2
     4     2     5    1
     5    30    31    1
     6    23    22    2
     7    12    13    1
     8    22    21    1
     9    15    14    2
    10    14    13    1
    11    31    32    1
    12    31    34    1
    13    33    32    2
    14     5     6    1
    15    13    16    1
    16     6     7    1
    17    34    35    1
    18    21    20    1
    19    21    24    1
    20    16    17    1
    21    24    25    1
    22     7     8    1
    23    35    37   ar
    24    35    36   ar
    25    18    17    2
    26    17    19   am
    27     8     9    2
    28    25    27   ar
    29    25    26   ar
    30     9    11    1
    31     9    10    1
    32   100    99    1
    33    63    62    1
    34    27    29   ar
    35    26    28   ar
    36    44    43    1
    37    44    45    1
    38    99    98    1
    39    98    97    1
    40    43    42    1
    41    38    39    1
    42    46    45    1
    43    28    29   ar
    44   104   103    2
    45    62    61    1
    46    60    61    1
    47    60    57    1
    48    56    57    1
    49    97    94    1
    50    94    93    1
    51    94    95    1
    52    42    39    1
    53    39    40    1
    54    57    58    1
    55   102   103    1
    56   102   101    1
    57   102   105    1
    58    95    96    2
    59   106   105    1
    60    40    41    2
    61    54    53   ar
    62    58    59    2
    63    85    82    1
    64    53    55   ar
    65    53    52    1
    66    82    81    1
    67    82    83    1
    68    52    51    1
    69    68    65    1
    70    64    65    1
    71    86    83   am
    72    86    87    1
    73    65    66    1
    74    91    90    1
    75    83    84    2
    76    51    48    1
    77    80    78   ar
    78    47    48    1
    79    87    90    1
    80    87    88    1
    81    90    92    1
    82    48    49    1
    83    66    67    2
    84    78    77    1
    85    78    79   ar
    86    88    89    2
    87    77    74    1
    88    49    50    2
    89    69    70    1
    90    73    74    1
    91    73    71   am
    92    70    71    1
    93    74    75    1
    94    71    72    2
    95    75    76    2
