@<TRIPOS>MOLECULE
tmp/3makA00.pdb
 144 142 0 0 0
SMALL
GASTEIGER

@<TRIPOS>ATOM
      1  N         32.7600   -4.4560   11.0260 N.3     9  SER9       -0.1202
      2  CA        31.7090   -4.2840   12.0030 C.3     9  SER9        0.2020
      3  C         30.6560   -3.3110   11.4910 C.2     9  SER9        0.2619
      4  O         30.9630   -2.1310   11.1870 O.2     9  SER9       -0.2717
      5  CB        32.3290   -3.7590   13.2990 C.3     9  SER9        0.2103
      6  OG        31.3510   -3.3040   14.2180 O.3     9  SER9       -0.2182
      7  N         29.4210   -3.8040   11.4190 N.am   10  SER10      -0.1938
      8  CA        28.2850   -2.9910   11.0040 C.3    10  SER10       0.2040
      9  C         28.1430   -1.6980   11.8320 C.2    10  SER10       0.2485
     10  O         28.0430   -0.6100   11.2500 O.2    10  SER10      -0.2729
     11  CB        26.9940   -3.8180   11.0090 C.3    10  SER10       0.2129
     12  OG        25.9440   -3.1200   10.3670 O.3    10  SER10      -0.2179
     13  N         28.1540   -1.8000   13.1820 N.am   11  PRO11      -0.2726
     14  CA        28.0170   -0.5540   13.9400 C.3    11  PRO11       0.1402
     15  C         29.1980    0.4040   13.7040 C.2    11  PRO11       0.2269
     16  O         29.0040    1.6390   13.6600 O.2    11  PRO11      -0.2865
     17  CB        27.9260   -1.0310   15.4010 C.3    11  PRO11       0.0296
     18  CG        28.4350   -2.4450   15.4250 C.3    11  PRO11       0.0237
     19  CD        28.0410   -2.9820   14.0600 C.3    11  PRO11       0.0939
     20  N         39.9460   -7.3430   17.8720 N.3    33  LEU33      -0.1245
     21  CA        39.1600   -8.1450   18.8150 C.3    33  LEU33       0.1561
     22  C         39.6550   -9.5890   18.8440 C.2    33  LEU33       0.2260
     23  O         39.7170  -10.1960   19.9010 O.2    33  LEU33      -0.2867
     24  CB        37.6660   -8.1190   18.4610 C.3    33  LEU33       0.0270
     25  CG        36.9380   -6.7980   18.2230 C.3    33  LEU33       0.0019
     26  CD1       35.4420   -7.0490   18.0930 C.3    33  LEU33       0.0001
     27  CD2       37.2370   -5.7640   19.3100 C.3    33  LEU33       0.0001
     28  N         40.6820   -5.2670   22.8670 N.3    38  HIS38      -0.1226
     29  CA        39.5540   -4.6280   23.5770 C.3    38  HIS38       0.1752
     30  C         39.4270   -5.0480   25.0500 C.2    38  HIS38       0.2595
     31  O         38.7790   -4.3710   25.8530 O.2    38  HIS38      -0.2718
     32  CB        38.2290   -4.8980   22.8330 C.3    38  HIS38       0.0759
     33  CG        37.8300   -6.3460   22.7670 C.ar   38  HIS38       0.0818
     34  ND1       38.6620   -7.3310   22.2670 N.ar   38  HIS38      -0.2268
     35  CD2       36.6630   -6.9620   23.0740 C.ar   38  HIS38       0.1154
     36  CE1       38.0350   -8.4950   22.3010 C.ar   38  HIS38       0.1986
     37  NE2       36.8180   -8.3030   22.7900 N.ar   38  HIS38      -0.2212
     38  N         40.0500   -6.1740   25.3950 N.am   39  LEU39      -0.1980
     39  CA        39.9330   -6.7550   26.7400 C.3    39  LEU39       0.1596
     40  C         41.0870   -6.4150   27.6570 C.2    39  LEU39       0.2287
     41  O         41.0520   -6.7550   28.8510 O.2    39  LEU39      -0.2864
     42  CB        39.7950   -8.2840   26.6560 C.3    39  LEU39       0.0297
     43  CG        38.6080   -8.7570   25.8290 C.3    39  LEU39       0.0022
     44  CD1       38.7150  -10.2430   25.5850 C.3    39  LEU39       0.0001
     45  CD2       37.2980   -8.4140   26.5370 C.3    39  LEU39       0.0001
     46  N         32.8110   -1.7310   28.8010 N.3    49  GLN49      -0.1231
     47  CA        32.0100   -2.7590   28.1180 C.3    49  GLN49       0.1698
     48  C         32.7860   -3.4130   26.9540 C.2    49  GLN49       0.2592
     49  O         32.3010   -4.3670   26.3080 O.2    49  GLN49      -0.2718
     50  CB        30.6720   -2.1690   27.6520 C.3    49  GLN49       0.0381
     51  CG        29.6000   -3.2360   27.3130 C.3    49  GLN49       0.0905
     52  CD        28.2840   -2.6120   26.9070 C.2    49  GLN49       0.2608
     53  OE1       28.0910   -1.4100   27.0620 O.2    49  GLN49      -0.2717
     54  NE2       27.3630   -3.4310   26.3740 N.am   49  GLN49      -0.0878
     55  N         33.9890   -2.9060   26.6940 N.am   50  HIS50      -0.1962
     56  CA        34.8640   -3.4590   25.6440 C.3    50  HIS50       0.1787
     57  C         34.1670   -3.7780   24.3140 C.2    50  HIS50       0.2621
     58  O         34.2080   -4.9200   23.8100 O.2    50  HIS50      -0.2715
     59  CB        35.6900   -4.6570   26.1650 C.3    50  HIS50       0.0785
     60  CG        34.8990   -5.7460   26.8280 C.ar   50  HIS50       0.0821
     61  ND1       34.2930   -6.7620   26.1200 N.ar   50  HIS50      -0.2267
     62  CD2       34.6890   -6.0230   28.1390 C.ar   50  HIS50       0.1154
     63  CE1       33.7170   -7.6010   26.9670 C.ar   50  HIS50       0.1986
     64  NE2       33.9460   -7.1790   28.1970 N.ar   50  HIS50      -0.2212
     65  N         33.5320   -2.7600   23.7260 N.am   51  THR51      -0.1937
     66  CA        32.8650   -2.9300   22.4530 C.3    51  THR51       0.2028
     67  C         33.4100   -1.9340   21.4380 C.2    51  THR51       0.2642
     68  O         33.9640   -0.8990   21.8130 O.2    51  THR51      -0.2714
     69  CB        31.3300   -2.7250   22.5540 C.3    51  THR51       0.1808
     70  OG1       31.0630   -1.4390   23.1120 O.3    51  THR51      -0.2208
     71  CG2       30.6910   -3.7750   23.4500 C.3    51  THR51       0.0379
     72  N         33.2760   -2.2760   20.1670 N.am   52  ILE52      -0.1963
     73  CA        33.5290   -1.3390   19.0790 C.3    52  ILE52       0.1712
     74  C         32.1950   -1.1040   18.3610 C.2    52  ILE52       0.2458
     75  O         31.3540   -2.0070   18.3030 O.2    52  ILE52      -0.2730
     76  CB        34.6190   -1.8390   18.1250 C.3    52  ILE52       0.0289
     77  CG1       34.2270   -3.1920   17.4960 C.3    52  ILE52       0.0022
     78  CG2       35.9600   -1.8980   18.8730 C.3    52  ILE52       0.0023
     79  CD1       35.1480   -3.6590   16.3730 C.3    52  ILE52       0.0001
     80  N         31.9570    0.1180   17.8720 N.am   53  PRO53      -0.2727
     81  CA        32.8710    1.2640   17.8980 C.3    53  PRO53       0.1402
     82  C         32.9550    1.9660   19.2400 C.2    53  PRO53       0.2269
     83  O         31.9880    1.9770   20.0000 O.2    53  PRO53      -0.2865
     84  CB        32.2650    2.2150   16.8620 C.3    53  PRO53       0.0296
     85  CG        30.7820    1.9320   16.9050 C.3    53  PRO53       0.0237
     86  CD        30.6810    0.4330   17.1920 C.3    53  PRO53       0.0939
     87  N         28.4090    2.6600   21.7240 N.3    64  GLU64      -0.1231
     88  CA        27.0900    2.5020   21.0930 C.3    64  GLU64       0.1699
     89  C         27.0530    3.3230   19.8150 C.2    64  GLU64       0.2593
     90  O         26.9660    4.5570   19.8580 O.2    64  GLU64      -0.2718
     91  CB        25.9150    2.8590   22.0160 C.3    64  GLU64       0.0402
     92  CG        25.6570    1.7950   23.0630 C.3    64  GLU64       0.1161
     93  CD        25.2270    0.4580   22.5080 C.2    64  GLU64       0.3649
     94  OE1       24.8130    0.3460   21.3150 O.co2  64  GLU64      -0.2457
     95  OE2       25.3250   -0.5130   23.2950 O.co2  64  GLU64      -0.2457
     96  N         27.1480    2.6190   18.6860 N.am   65  SER65      -0.1938
     97  CA        27.2390    3.2670   17.3710 C.3    65  SER65       0.2055
     98  C         26.1910    4.3580   17.1630 C.2    65  SER65       0.2642
     99  O         26.4790    5.4330   16.6050 O.2    65  SER65      -0.2714
    100  CB        27.1020    2.2280   16.2540 C.3    65  SER65       0.2130
    101  OG        25.8700    1.5090   16.3490 O.3    65  SER65      -0.2179
    102  N         24.9640    4.0780   17.5880 N.am   66  ARG66      -0.1977
    103  CA        23.8510    4.9780   17.2670 C.3    66  ARG66       0.1597
    104  C         23.9140    6.2500   18.1270 C.2    66  ARG66       0.2287
    105  O         23.4990    7.3330   17.6850 O.2    66  ARG66      -0.2864
    106  CB        22.5220    4.2370   17.3780 C.3    66  ARG66       0.0334
    107  CG        22.4740    3.0790   16.3690 C.3    66  ARG66       0.0492
    108  CD        21.3320    2.1050   16.6320 C.3    66  ARG66       0.2205
    109  NE        21.4560    0.8870   15.8190 N.pl3  66  ARG66      -0.0865
    110  CZ        22.2070   -0.1680   16.1270 C.cat  66  ARG66       0.5346
    111  NH1       22.9240   -0.1950   17.2500 N.pl3  66  ARG66       0.1354
    112  NH2       22.2420   -1.2240   15.3060 N.pl3  66  ARG66       0.1354
    113  N         18.4880   -1.2260   15.8390 N.3   101  MET101     -0.1245
    114  CA        19.1320   -2.0600   16.8480 C.3   101  MET101      0.1570
    115  C         18.2880   -3.2660   17.2460 C.2   101  MET101      0.2261
    116  O         18.7790   -4.3930   17.1900 O.2   101  MET101     -0.2867
    117  CB        19.4740   -1.2780   18.1180 C.3   101  MET101      0.0387
    118  CG        19.8710   -2.2280   19.3030 C.3   101  MET101      0.0595
    119  SD        20.2060   -1.3490   20.8460 S.3   101  MET101     -0.1393
    120  CE        21.9430   -1.1390   20.6420 C.3   101  MET101      0.0692
    121  N         18.7070   -5.2600   13.1650 N.3   105  TYR105     -0.1241
    122  CA        20.0180   -5.8600   13.4260 C.3   105  TYR105      0.1605
    123  C         19.8830   -6.9930   14.4280 C.2   105  TYR105      0.2264
    124  O         20.5700   -8.0150   14.3030 O.2   105  TYR105     -0.2867
    125  CB        21.0970   -4.8590   13.8700 C.3   105  TYR105      0.0534
    126  CG        22.4820   -5.4940   13.7340 C.ar  105  TYR105     -0.0201
    127  CD1       23.1370   -5.5050   12.4950 C.ar  105  TYR105     -0.0009
    128  CD2       23.0910   -6.1350   14.8160 C.ar  105  TYR105     -0.0009
    129  CE1       24.3830   -6.1080   12.3460 C.ar  105  TYR105      0.0417
    130  CE2       24.3430   -6.7510   14.6830 C.ar  105  TYR105      0.0417
    131  CZ        24.9760   -6.7250   13.4430 C.ar  105  TYR105      0.1957
    132  OH        26.2100   -7.3210   13.2720 O.3   105  TYR105     -0.2866
    133  N         24.6990  -14.9370   14.0100 N.3   113  TYR113     -0.1241
    134  CA        25.7410  -15.0510   15.0290 C.3   113  TYR113      0.1605
    135  C         25.9950  -16.4770   15.5180 C.2   113  TYR113      0.2264
    136  O         27.1590  -16.8660   15.5950 O.2   113  TYR113     -0.2867
    137  CB        25.4950  -14.1000   16.2120 C.3   113  TYR113      0.0534
    138  CG        25.8950  -12.6530   15.9640 C.ar  113  TYR113     -0.0201
    139  CD1       26.0740  -12.1530   14.6740 C.ar  113  TYR113     -0.0009
    140  CD2       26.0550  -11.7750   17.0320 C.ar  113  TYR113     -0.0009
    141  CE1       26.4400  -10.8140   14.4590 C.ar  113  TYR113      0.0417
    142  CE2       26.4140  -10.4410   16.8260 C.ar  113  TYR113      0.0417
    143  CZ        26.5950   -9.9710   15.5460 C.ar  113  TYR113      0.1957
    144  OH        26.9610   -8.6630   15.3420 O.3   113  TYR113     -0.2866
@<TRIPOS>BOND
     1    12    11    1
     2     8    11    1
     3     8     7    1
     4     8     9    1
     5     1     2    1
     6     4     3    2
     7    10     9    2
     8     7     3   am
     9     3     2    1
    10     9    13   am
    11     2     5    1
    12   129   127   ar
    13   129   131   ar
    14   127   126   ar
    15   121   122    1
    16    13    14    1
    17    13    19    1
    18   132   131    1
    19     5     6    1
    20   122   125    1
    21   122   123    1
    22   131   130   ar
    23    16    15    2
    24    15    14    1
    25   126   125    1
    26   126   128   ar
    27    14    17    1
    28   133   134    1
    29    19    18    1
    30   124   123    2
    31   141   139   ar
    32   141   143   ar
    33   139   138   ar
    34   130   128   ar
    35   134   135    1
    36   134   137    1
    37   112   110    1
    38   144   143    1
    39    17    18    1
    40   135   136    2
    41   143   142   ar
    42   109   110    2
    43   109   108    1
    44   113   114    1
    45   138   137    1
    46   138   140   ar
    47   110   111    1
    48   100   101    1
    49   100    97    1
    50   107   108    1
    51   107   106    1
    52    79    77    1
    53    99    98    2
    54   142   140   ar
    55   114   115    1
    56   114   117    1
    57    84    85    1
    58    84    81    1
    59    85    86    1
    60    98    97    1
    61    98   102   am
    62   116   115    2
    63    86    80    1
    64   103   106    1
    65   103   102    1
    66   103   104    1
    67    97    96    1
    68    77    76    1
    69   105   104    2
    70    20    21    1
    71    80    81    1
    72    80    74   am
    73    81    82    1
    74    26    25    1
    75   117   118    1
    76    76    78    1
    77    76    73    1
    78    25    24    1
    79    25    27    1
    80    75    74    2
    81    74    73    1
    82    24    21    1
    83    96    89   am
    84    21    22    1
    85    22    23    2
    86    73    72    1
    87    82    83    2
    88   118   119    1
    89    89    90    2
    90    89    88    1
    91    72    67   am
    92   120   119    1
    93    88    87    1
    94    88    91    1
    95    94    93   ar
    96    67    68    2
    97    67    66    1
    98    91    92    1
    99    34    36   ar
   100    34    33   ar
   101    36    37   ar
   102    66    69    1
   103    66    65    1
   104    93    92    1
   105    93    95   ar
   106    69    70    1
   107    69    71    1
   108    33    32    1
   109    33    35   ar
   110    37    35   ar
   111    32    29    1
   112    28    29    1
   113    29    30    1
   114    65    57   am
   115    58    57    2
   116    57    56    1
   117    30    38   am
   118    30    31    2
   119    38    39    1
   120    44    43    1
   121    56    59    1
   122    56    55    1
   123    43    45    1
   124    43    42    1
   125    61    60   ar
   126    61    63   ar
   127    59    60    1
   128    49    48    2
   129    54    52   am
   130    42    39    1
   131    55    48   am
   132    39    40    1
   133    60    62   ar
   134    52    53    2
   135    52    51    1
   136    48    47    1
   137    63    64   ar
   138    51    50    1
   139    50    47    1
   140    40    41    2
   141    47    46    1
   142    62    64   ar
