@<TRIPOS>MOLECULE
tmp/3mamA01.pdb
 114 107 0 0 0
SMALL
GASTEIGER

@<TRIPOS>ATOM
      1  N         26.3790  -18.9520   -1.7140 N.3     8  LYS8       -0.1245
      2  CA        26.7950  -19.8210   -2.8200 C.3     8  LYS8        0.1561
      3  C         27.9660  -19.1520   -3.5640 C.2     8  LYS8        0.2260
      4  O         28.1280  -17.9190   -3.4650 O.2     8  LYS8       -0.2867
      5  CB        25.6120  -20.0530   -3.7600 C.3     8  LYS8        0.0271
      6  CG        24.3480  -20.5590   -3.0570 C.3     8  LYS8        0.0035
      7  CD        23.2940  -20.9320   -4.0500 C.3     8  LYS8        0.0206
      8  CE        21.9400  -21.0620   -3.3630 C.3     8  LYS8        0.1093
      9  NZ        20.8840  -21.5570   -4.2810 N.3     8  LYS8       -0.1314
     10  N         29.1770  -17.4690   -6.2000 N.3    10  PHE10      -0.1227
     11  CA        29.0860  -16.5950   -7.3720 C.3    10  PHE10       0.1736
     12  C         28.7670  -15.1500   -7.0000 C.2    10  PHE10       0.2595
     13  O         28.1890  -14.9000   -5.9330 O.2    10  PHE10      -0.2718
     14  CB        28.1060  -17.1060   -8.4450 C.3    10  PHE10       0.0547
     15  CG        26.7170  -17.4150   -7.9430 C.ar   10  PHE10      -0.0202
     16  CD1       25.7450  -16.4190   -7.8620 C.ar   10  PHE10      -0.0042
     17  CD2       26.3590  -18.7260   -7.6160 C.ar   10  PHE10      -0.0042
     18  CE1       24.4420  -16.7170   -7.4380 C.ar   10  PHE10      -0.0003
     19  CE2       25.0570  -19.0270   -7.1740 C.ar   10  PHE10      -0.0003
     20  CZ        24.1000  -18.0310   -7.0990 C.ar   10  PHE10      -0.0000
     21  N         29.1730  -14.2450   -7.8960 N.am   11  ASN11      -0.1960
     22  CA        29.0160  -12.7760   -7.7910 C.3    11  ASN11       0.1819
     23  C         27.9180  -12.2500   -6.8740 C.2    11  ASN11       0.2621
     24  O         28.1810  -11.7060   -5.8060 O.2    11  ASN11      -0.2715
     25  CB        28.8960  -12.1260   -9.2030 C.3    11  ASN11       0.1195
     26  CG        28.1160  -12.9810  -10.2240 C.2    11  ASN11       0.2630
     27  OD1       28.5380  -13.1140  -11.3860 O.2    11  ASN11      -0.2716
     28  ND2       26.9780  -13.5290   -9.8170 N.am   11  ASN11      -0.0877
     29  N         26.6890  -12.4270   -7.3330 N.am   12  GLU12      -0.1977
     30  CA        25.4670  -11.9780   -6.6990 C.3    12  GLU12       0.1602
     31  C         25.3980  -12.3630   -5.2210 C.2    12  GLU12       0.2287
     32  O         25.0370  -11.5510   -4.3670 O.2    12  GLU12      -0.2864
     33  CB        24.3640  -12.6350   -7.5170 C.3    12  GLU12       0.0415
     34  CG        22.9580  -12.5250   -7.1090 C.3    12  GLU12       0.1163
     35  CD        22.0840  -12.9780   -8.2610 C.2    12  GLU12       0.3649
     36  OE1       22.1620  -12.3410   -9.3340 O.co2  12  GLU12      -0.2457
     37  OE2       21.3530  -13.9840   -8.1210 O.co2  12  GLU12      -0.2457
     38  N         23.5310  -24.9410   -3.0160 N.3    40  THR40      -0.1218
     39  CA        22.2160  -24.8600   -2.3760 C.3    40  THR40       0.1862
     40  C         22.1160  -25.6910   -1.1030 C.2    40  THR40       0.2287
     41  O         21.7600  -25.1810   -0.0380 O.2    40  THR40      -0.2866
     42  CB        21.1280  -25.3020   -3.3570 C.3    40  THR40       0.1770
     43  OG1       21.1390  -24.4300   -4.4910 O.3    40  THR40      -0.2211
     44  CG2       19.7520  -25.2980   -2.7140 C.3    40  THR40       0.0375
     45  N         16.7220  -18.8300   -3.7300 N.3    58  TYR58      -0.1241
     46  CA        15.8120  -18.4560   -4.8140 C.3    58  TYR58       0.1605
     47  C         14.5880  -19.3630   -4.8020 C.2    58  TYR58       0.2264
     48  O         14.6900  -20.5830   -4.5680 O.2    58  TYR58      -0.2867
     49  CB        16.5230  -18.4990   -6.1740 C.3    58  TYR58       0.0534
     50  CG        17.8160  -17.7240   -6.1930 C.ar   58  TYR58      -0.0201
     51  CD1       17.8510  -16.3850   -6.6090 C.ar   58  TYR58      -0.0009
     52  CD2       19.0060  -18.3150   -5.7630 C.ar   58  TYR58      -0.0009
     53  CE1       19.0630  -15.6610   -6.6150 C.ar   58  TYR58       0.0417
     54  CE2       20.2030  -17.6040   -5.7650 C.ar   58  TYR58       0.0417
     55  CZ        20.2220  -16.2770   -6.1850 C.ar   58  TYR58       0.1957
     56  OH        21.4120  -15.5810   -6.1850 O.3    58  TYR58      -0.2866
     57  N         14.6270  -22.5110   -7.0960 N.3    61  THR61      -0.1218
     58  CA        15.6860  -23.3830   -6.5830 C.3    61  THR61       0.1862
     59  C         15.2370  -24.1250   -5.3130 C.2    61  THR61       0.2287
     60  O         15.4380  -25.3290   -5.1980 O.2    61  THR61      -0.2866
     61  CB        16.9840  -22.5970   -6.3270 C.3    61  THR61       0.1770
     62  OG1       17.3380  -21.8580   -7.5050 O.3    61  THR61      -0.2211
     63  CG2       18.1470  -23.5540   -5.9880 C.3    61  THR61       0.0375
     64  N         16.4160  -13.9820  -10.5370 N.3   104  ASP104     -0.1239
     65  CA        17.5950  -14.3860  -11.3060 C.3   104  ASP104      0.1674
     66  C         17.1810  -15.6450  -12.0660 C.2   104  ASP104      0.2266
     67  O         17.4210  -16.7690  -11.6240 O.2   104  ASP104     -0.2867
     68  CB        18.8150  -14.6020  -10.3780 C.3   104  ASP104      0.1410
     69  CG        20.0980  -15.0110  -11.1320 C.2   104  ASP104      0.3668
     70  OD1       20.0650  -15.1850  -12.3710 O.co2 104  ASP104     -0.2456
     71  OD2       21.1700  -15.1220  -10.4740 O.co2 104  ASP104     -0.2456
     72  N         20.8230  -15.6470  -18.1450 N.3   185  TYR185     -0.1241
     73  CA        20.2720  -15.3380  -16.8230 C.3   185  TYR185      0.1605
     74  C         20.0070  -13.8480  -16.6800 C.2   185  TYR185      0.2264
     75  O         20.8300  -13.0320  -17.0750 O.2   185  TYR185     -0.2867
     76  CB        21.1900  -15.8390  -15.7200 C.3   185  TYR185      0.0534
     77  CG        21.1550  -17.3370  -15.6220 C.ar  185  TYR185     -0.0201
     78  CD1       20.1540  -17.9800  -14.8950 C.ar  185  TYR185     -0.0009
     79  CD2       22.1040  -18.1190  -16.2720 C.ar  185  TYR185     -0.0009
     80  CE1       20.1100  -19.3680  -14.8070 C.ar  185  TYR185      0.0417
     81  CE2       22.0620  -19.5090  -16.1940 C.ar  185  TYR185      0.0417
     82  CZ        21.0620  -20.1180  -15.4560 C.ar  185  TYR185      0.1957
     83  OH        21.0050  -21.4860  -15.3730 O.3   185  TYR185     -0.2866
     84  N         20.1020  -11.6130  -14.3810 N.3   187  THR187     -0.1203
     85  CA        21.0300  -10.7310  -13.6410 C.3   187  THR187      0.1994
     86  C         22.4860  -10.8390  -14.1030 C.2   187  THR187      0.2617
     87  O         23.3920  -10.3030  -13.4540 O.2   187  THR187     -0.2717
     88  CB        20.9940  -10.9790  -12.1130 C.3   187  THR187      0.1784
     89  OG1       21.3080  -12.3520  -11.8470 O.3   187  THR187     -0.2211
     90  CG2       19.6160  -10.6400  -11.5420 C.3   187  THR187      0.0376
     91  N         22.7060  -11.5340  -15.2170 N.am  188  ASP188     -0.1973
     92  CA        24.0510  -11.6980  -15.7780 C.3   188  ASP188      0.1709
     93  C         24.5310  -10.3880  -16.4040 C.2   188  ASP188      0.2293
     94  O         23.8650   -9.8220  -17.2690 O.2   188  ASP188     -0.2864
     95  CB        24.0710  -12.8290  -16.8140 C.3   188  ASP188      0.1436
     96  CG        25.4830  -13.3320  -17.1180 C.2   188  ASP188      0.3671
     97  OD1       26.3950  -12.5090  -17.3540 O.co2 188  ASP188     -0.2456
     98  OD2       25.6790  -14.5620  -17.1280 O.co2 188  ASP188     -0.2456
     99  N         26.1970   -6.7470  -10.2550 N.3   245  ASN245     -0.1240
    100  CA        26.9890   -7.8470  -10.8170 C.3   245  ASN245      0.1653
    101  C         28.0050   -7.3600  -11.8540 C.2   245  ASN245      0.2266
    102  O         29.1270   -7.8700  -11.9300 O.2   245  ASN245     -0.2867
    103  CB        26.0830   -8.9290  -11.4220 C.3   245  ASN245      0.1155
    104  CG        25.3770   -9.7710  -10.3590 C.2   245  ASN245      0.2627
    105  OD1       25.8630   -9.9240   -9.2400 O.2   245  ASN245     -0.2716
    106  ND2       24.2150  -10.3060  -10.7100 N.am  245  ASN245     -0.0877
    107  N         31.8440   -8.3010  -12.1070 N.3   249  ASP249     -0.1239
    108  CA        32.2970   -9.0560  -13.2820 C.3   249  ASP249      0.1674
    109  C         33.1390   -8.2690  -14.2760 C.2   249  ASP249      0.2266
    110  O         34.1270   -8.7870  -14.7910 O.2   249  ASP249     -0.2867
    111  CB        31.1030   -9.6280  -14.0500 C.3   249  ASP249      0.1410
    112  CG        30.4820  -10.8370  -13.3780 C.2   249  ASP249      0.3668
    113  OD1       31.1140  -11.4610  -12.4900 O.co2 249  ASP249     -0.2456
    114  OD2       29.3490  -11.1800  -13.7730 O.co2 249  ASP249     -0.2456
@<TRIPOS>BOND
     1    72    73    1
     2    97    96   ar
     3    94    93    2
     4    98    96   ar
     5    96    95    1
     6    75    74    2
     7    73    74    1
     8    73    76    1
     9    95    92    1
    10    93    92    1
    11    79    81   ar
    12    79    77   ar
    13    81    82   ar
    14    92    91    1
    15    76    77    1
    16    77    78   ar
    17    82    83    1
    18    82    80   ar
    19    91    86   am
    20    78    80   ar
    21   110   109    2
    22    84    85    1
    23   109   108    1
    24    86    85    1
    25    86    87    2
    26   111   112    1
    27   111   108    1
    28   114   112   ar
    29    85    88    1
    30   112   113   ar
    31   108   107    1
    32    70    69   ar
    33    88    89    1
    34    88    90    1
    35    66    67    2
    36    66    65    1
    37   102   101    2
    38   101   100    1
    39   103   100    1
    40   103   104    1
    41    27    26    2
    42    65    64    1
    43    65    68    1
    44    69    71   ar
    45    69    68    1
    46   100    99    1
    47   106   104   am
    48   104   105    2
    49    26    28   am
    50    26    25    1
    51    36    35   ar
    52    25    22    1
    53    14    15    1
    54    14    11    1
    55    35    37   ar
    56    35    34    1
    57    15    16   ar
    58    15    17   ar
    59    21    22    1
    60    21    12   am
    61    16    18   ar
    62    22    23    1
    63    17    19   ar
    64    33    34    1
    65    33    30    1
    66    62    61    1
    67    18    20   ar
    68    11    12    1
    69    11    10    1
    70    29    23   am
    71    29    30    1
    72    19    20   ar
    73    57    58    1
    74    12    13    2
    75    23    24    2
    76    30    31    1
    77    53    51   ar
    78    53    55   ar
    79    51    50   ar
    80    58    61    1
    81    58    59    1
    82    61    63    1
    83    50    49    1
    84    50    52   ar
    85    56    55    1
    86    55    54   ar
    87    49    46    1
    88    54    52   ar
    89    59    60    2
    90    31    32    2
    91    46    47    1
    92    46    45    1
    93    47    48    2
    94    43    42    1
    95     9     8    1
    96     7     8    1
    97     7     6    1
    98     5     6    1
    99     5     2    1
   100     3     4    2
   101     3     2    1
   102    42    44    1
   103    42    39    1
   104    38    39    1
   105     2     1    1
   106    39    40    1
   107    40    41    2
