@<TRIPOS>MOLECULE
tmp/3marA00.pdb
 194 187 0 0 0
SMALL
GASTEIGER

@<TRIPOS>ATOM
      1  N         17.3140  -27.5980  -27.0460 N.3    21  ILE21      -0.1245
      2  CA        18.1160  -28.8000  -26.8170 C.3    21  ILE21       0.1561
      3  C         17.4310  -30.0130  -27.4200 C.2    21  ILE21       0.2260
      4  O         18.0850  -30.9830  -27.7540 O.2    21  ILE21      -0.2867
      5  CB        18.5050  -29.0520  -25.3200 C.3    21  ILE21       0.0252
      6  CG1       17.3050  -29.5520  -24.5060 C.3    21  ILE21       0.0019
      7  CG2       19.1300  -27.8040  -24.6840 C.3    21  ILE21       0.0019
      8  CD1       17.7130  -30.3460  -23.2650 C.3    21  ILE21       0.0001
      9  N          8.1550  -36.7670  -25.2470 N.3    71  LYS71      -0.1245
     10  CA         7.6070  -35.4320  -25.0870 C.3    71  LYS71       0.1561
     11  C          8.6580  -34.4660  -24.5730 C.2    71  LYS71       0.2260
     12  O          9.3140  -34.7170  -23.5590 O.2    71  LYS71      -0.2867
     13  CB         6.4060  -35.4290  -24.1400 C.3    71  LYS71       0.0271
     14  CG         5.7550  -34.0580  -24.0600 C.3    71  LYS71       0.0035
     15  CD         4.7530  -33.9410  -22.9240 C.3    71  LYS71       0.0206
     16  CE         4.4850  -32.4760  -22.5940 C.3    71  LYS71       0.1093
     17  NZ         5.6060  -31.8590  -21.8160 N.3    71  LYS71      -0.1314
     18  N          9.5180  -30.5120  -23.0770 N.3    73  ALA73      -0.1231
     19  CA         8.8440  -29.7850  -21.9920 C.3    73  ALA73       0.1694
     20  C          8.0040  -28.6560  -22.5650 C.2    73  ALA73       0.2593
     21  O          8.4090  -28.0260  -23.5410 O.2    73  ALA73      -0.2718
     22  CB         9.8430  -29.2440  -21.0280 C.3    73  ALA73       0.0304
     23  N          6.8420  -28.3920  -21.9680 N.am   74  THR74      -0.1939
     24  CA         5.8910  -27.4360  -22.5550 C.3    74  THR74       0.2028
     25  C          5.2730  -26.4840  -21.5570 C.2    74  THR74       0.2642
     26  O          4.8380  -26.8900  -20.4780 O.2    74  THR74      -0.2714
     27  CB         4.7260  -28.1400  -23.2760 C.3    74  THR74       0.1808
     28  OG1        4.1920  -29.1640  -22.4290 O.3    74  THR74      -0.2208
     29  CG2        5.1770  -28.7560  -24.5870 C.3    74  THR74       0.0379
     30  N          5.2050  -25.2160  -21.9580 N.am   75  ILE75      -0.1963
     31  CA         4.6190  -24.1640  -21.1390 C.3    75  ILE75       0.1727
     32  C          3.2280  -24.5790  -20.7240 C.2    75  ILE75       0.2616
     33  O          2.4660  -25.1070  -21.5250 O.2    75  ILE75      -0.2715
     34  CB         4.4910  -22.8070  -21.8940 C.3    75  ILE75       0.0290
     35  CG1        5.8580  -22.2570  -22.3200 C.3    75  ILE75       0.0022
     36  CG2        3.7990  -21.7690  -21.0200 C.3    75  ILE75       0.0023
     37  CD1        6.8520  -22.0390  -21.1580 C.3    75  ILE75       0.0001
     38  N          2.9250  -24.3540  -19.4510 N.am   76  THR76      -0.1951
     39  CA         1.5570  -24.4150  -18.9450 C.3    76  THR76       0.1897
     40  C          1.1650  -22.9790  -18.5520 C.2    76  THR76       0.2313
     41  O          1.8650  -22.3240  -17.7690 O.2    76  THR76      -0.2863
     42  CB         1.4250  -25.4200  -17.7740 C.3    76  THR76       0.1794
     43  OG1        2.1210  -26.6330  -18.1090 O.3    76  THR76      -0.2208
     44  CG2       -0.0470  -25.7440  -17.4940 C.3    76  THR76       0.0378
     45  N          1.6080  -15.7630  -19.1010 N.3    81  ARG81      -0.1245
     46  CA         1.5990  -16.3720  -20.4280 C.3    81  ARG81       0.1563
     47  C          0.5440  -15.7420  -21.3300 C.2    81  ARG81       0.2260
     48  O          0.7990  -15.5080  -22.5190 O.2    81  ARG81      -0.2867
     49  CB         1.3760  -17.8820  -20.3150 C.3    81  ARG81       0.0307
     50  CG         2.3240  -18.5740  -19.3480 C.3    81  ARG81       0.0489
     51  CD         3.7800  -18.3350  -19.7160 C.3    81  ARG81       0.2205
     52  NE         4.6840  -19.0670  -18.8220 N.pl3  81  ARG81      -0.0865
     53  CZ         6.0080  -19.1180  -18.9620 C.cat  81  ARG81       0.5346
     54  NH1        6.6150  -18.4800  -19.9680 N.pl3  81  ARG81       0.1354
     55  NH2        6.7320  -19.8140  -18.0860 N.pl3  81  ARG81       0.1354
     56  N         -0.7780  -29.3160  -21.2620 N.3    94  PRO94      -0.2102
     57  CA        -0.4870  -30.3710  -22.2210 C.3    94  PRO94       0.1504
     58  C         -0.5350  -31.7580  -21.5730 C.2    94  PRO94       0.2575
     59  O         -1.1560  -32.6530  -22.1300 O.2    94  PRO94      -0.2718
     60  CB         0.9210  -30.0210  -22.6760 C.3    94  PRO94       0.0282
     61  CG         0.9240  -28.5460  -22.6640 C.3    94  PRO94       0.0208
     62  CD         0.1330  -28.1680  -21.4260 C.3    94  PRO94       0.0893
     63  N          0.0990  -31.9350  -20.4140 N.am   95  ASN95      -0.1975
     64  CA        -0.1490  -33.1290  -19.5910 C.3    95  ASN95       0.1688
     65  C         -1.5210  -32.9880  -18.9540 C.2    95  ASN95       0.2292
     66  O         -2.0030  -31.8780  -18.7380 O.2    95  ASN95      -0.2864
     67  CB         0.8920  -33.2710  -18.4880 C.3    95  ASN95       0.1181
     68  CG         2.2950  -33.0450  -18.9770 C.2    95  ASN95       0.2629
     69  OD1        2.6710  -33.5190  -20.0480 O.2    95  ASN95      -0.2716
     70  ND2        3.0880  -32.3180  -18.1870 N.am   95  ASN95      -0.0877
     71  N         17.9970  -31.3540  -10.6330 N.3   267  LEU267     -0.1231
     72  CA        16.8810  -30.9460  -11.4740 C.3   267  LEU267      0.1693
     73  C         16.9540  -31.6300  -12.8310 C.2   267  LEU267      0.2592
     74  O         16.0740  -32.4260  -13.1910 O.2   267  LEU267     -0.2718
     75  CB        16.8600  -29.4150  -11.5670 C.3   267  LEU267      0.0284
     76  CG        17.1310  -28.7600  -10.1930 C.3   267  LEU267      0.0019
     77  CD1       18.3170  -27.7790  -10.2150 C.3   267  LEU267      0.0001
     78  CD2       15.8710  -28.1280   -9.5680 C.3   267  LEU267      0.0001
     79  N         18.0410  -31.3540  -13.5500 N.am  268  GLY268     -0.1957
     80  CA        18.2010  -31.8110  -14.9240 C.3   268  GLY268      0.1869
     81  C         18.4700  -33.2910  -15.0870 C.2   268  GLY268      0.2309
     82  O         18.8830  -33.7220  -16.1630 O.2   268  GLY268     -0.2863
     83  N          8.6430  -38.4970  -20.6130 N.3   285  GLU285     -0.1231
     84  CA         9.0500  -37.1030  -20.5950 C.3   285  GLU285      0.1699
     85  C         10.0590  -36.9220  -19.4910 C.2   285  GLU285      0.2592
     86  O          9.8720  -37.4140  -18.3880 O.2   285  GLU285     -0.2718
     87  CB         7.8450  -36.1680  -20.3720 C.3   285  GLU285      0.0402
     88  CG         6.9810  -36.4800  -19.1250 C.3   285  GLU285      0.1161
     89  CD         5.8120  -35.4960  -18.9120 C.2   285  GLU285      0.3649
     90  OE1        5.7850  -34.4110  -19.5510 O.co2 285  GLU285     -0.2457
     91  OE2        4.9170  -35.8090  -18.0870 O.co2 285  GLU285     -0.2457
     92  N         11.1610  -36.2580  -19.7850 N.am  286  ALA286     -0.1966
     93  CA        11.9450  -35.7430  -18.6730 C.3   286  ALA286      0.1728
     94  C         10.9990  -34.7290  -18.0440 C.2   286  ALA286      0.2616
     95  O         10.7190  -33.6900  -18.6390 O.2   286  ALA286     -0.2715
     96  CB        13.1590  -35.0710  -19.1890 C.3   286  ALA286      0.0334
     97  N         10.4410  -35.0440  -16.8810 N.am  287  ALA287     -0.1963
     98  CA         9.5460  -34.0820  -16.2330 C.3   287  ALA287      0.1728
     99  C         10.3690  -33.1440  -15.3580 C.2   287  ALA287      0.2616
    100  O         10.5250  -33.3700  -14.1570 O.2   287  ALA287     -0.2715
    101  CB         8.4330  -34.7840  -15.4270 C.3   287  ALA287      0.0334
    102  N         10.9290  -32.1110  -15.9790 N.am  288  HIS288     -0.1959
    103  CA        11.6560  -31.0890  -15.2370 C.3   288  HIS288      0.1787
    104  C         11.2560  -29.6740  -15.6630 C.2   288  HIS288      0.2621
    105  O         10.9450  -28.8370  -14.8040 O.2   288  HIS288     -0.2715
    106  CB        13.1730  -31.3220  -15.2750 C.3   288  HIS288      0.0785
    107  CG        13.7980  -31.0990  -16.6140 C.ar  288  HIS288      0.0821
    108  ND1       13.7150  -32.0130  -17.6410 N.ar  288  HIS288     -0.2267
    109  CD2       14.5430  -30.0680  -17.0860 C.ar  288  HIS288      0.1154
    110  CE1       14.3760  -31.5510  -18.6910 C.ar  288  HIS288      0.1986
    111  NE2       14.8900  -30.3730  -18.3790 N.ar  288  HIS288     -0.2212
    112  N         11.2400  -29.3890  -16.9630 N.am  289  GLY289     -0.1940
    113  CA        10.7240  -28.0970  -17.3710 C.3   289  GLY289      0.2014
    114  C         11.3010  -27.4370  -18.5940 C.2   289  GLY289      0.2640
    115  O         12.2820  -27.9080  -19.1810 O.2   289  GLY289     -0.2714
    116  N         10.6570  -26.3310  -18.9650 N.am  290  THR290     -0.1936
    117  CA        11.0370  -25.5210  -20.1180 C.3   290  THR290      0.2028
    118  C         12.3030  -24.7090  -19.8610 C.2   290  THR290      0.2642
    119  O         12.9200  -24.2130  -20.8060 O.2   290  THR290     -0.2714
    120  CB         9.8980  -24.5710  -20.4980 C.3   290  THR290      0.1808
    121  OG1        9.1050  -24.3320  -19.2920 O.3   290  THR290     -0.2208
    122  CG2        8.9990  -25.2680  -21.5650 C.3   290  THR290      0.0379
    123  N         12.6690  -24.5840  -18.5800 N.am  291  VAL291     -0.1963
    124  CA        13.8860  -23.8940  -18.1180 C.3   291  VAL291      0.1727
    125  C         13.9920  -22.4590  -18.6710 C.2   291  VAL291      0.2617
    126  O         14.9240  -22.1100  -19.4000 O.2   291  VAL291     -0.2715
    127  CB        15.1670  -24.7290  -18.4010 C.3   291  VAL291      0.0290
    128  CG1       16.2570  -24.3510  -17.4270 C.3   291  VAL291      0.0023
    129  CG2       14.8850  -26.2160  -18.2790 C.3   291  VAL291      0.0023
    130  N         13.0200  -21.6380  -18.2870 N.am  292  THR292     -0.1937
    131  CA        12.8000  -20.3130  -18.8700 C.3   292  THR292      0.2028
    132  C         13.9540  -19.3400  -18.6850 C.2   292  THR292      0.2642
    133  O         14.3120  -18.6080  -19.6130 O.2   292  THR292     -0.2714
    134  CB        11.5440  -19.6730  -18.2880 C.3   292  THR292      0.1808
    135  OG1       10.5070  -20.6730  -18.1860 O.3   292  THR292     -0.2208
    136  CG2       11.0650  -18.5290  -19.1840 C.3   292  THR292      0.0379
    137  N         14.5190  -19.3210  -17.4820 N.am  293  ARG293     -0.1963
    138  CA        15.6550  -18.4660  -17.1630 C.3   293  ARG293      0.1729
    139  C         16.7650  -18.6380  -18.1930 C.2   293  ARG293      0.2616
    140  O         17.3250  -17.6570  -18.6890 O.2   293  ARG293     -0.2715
    141  CB        16.1690  -18.8280  -15.7760 C.3   293  ARG293      0.0348
    142  CG        17.3110  -17.9430  -15.2610 C.3   293  ARG293      0.0492
    143  CD        17.8110  -18.5510  -13.9350 C.3   293  ARG293      0.2205
    144  NE        19.0670  -19.3130  -14.0960 N.pl3 293  ARG293     -0.0865
    145  CZ        20.2730  -18.8080  -13.8270 C.cat 293  ARG293      0.5346
    146  NH1       20.3720  -17.5480  -13.3760 N.pl3 293  ARG293      0.1354
    147  NH2       21.3760  -19.5530  -13.9990 N.pl3 293  ARG293      0.1354
    148  N         17.0580  -19.8990  -18.5110 N.am  294  HIS294     -0.1973
    149  CA        18.1110  -20.2610  -19.4500 C.3   294  HIS294      0.1656
    150  C         17.7810  -19.7530  -20.8430 C.2   294  HIS294      0.2291
    151  O         18.6350  -19.1830  -21.5160 O.2   294  HIS294     -0.2864
    152  CB        18.3040  -21.7810  -19.4720 C.3   294  HIS294      0.0771
    153  CG        19.0690  -22.3130  -18.2990 C.ar  294  HIS294      0.0820
    154  ND1       18.7560  -21.9820  -16.9970 N.ar  294  HIS294     -0.2267
    155  CD2       20.1240  -23.1740  -18.2330 C.ar  294  HIS294      0.1154
    156  CE1       19.5910  -22.6090  -16.1810 C.ar  294  HIS294      0.1986
    157  NE2       20.4300  -23.3400  -16.9050 N.ar  294  HIS294     -0.2212
    158  N         24.5550  -22.8570  -20.0880 N.3   305  SER305     -0.1202
    159  CA        24.9300  -24.2530  -19.9590 C.3   305  SER305      0.2020
    160  C         23.7170  -24.9070  -19.3350 C.2   305  SER305      0.2619
    161  O         23.2760  -24.4960  -18.2620 O.2   305  SER305     -0.2717
    162  CB        26.1720  -24.4190  -19.0660 C.3   305  SER305      0.2103
    163  OG        25.8110  -24.9170  -17.7880 O.3   305  SER305     -0.2182
    164  N         23.1660  -25.9100  -20.0210 N.am  306  THR306     -0.1938
    165  CA        21.9220  -26.5260  -19.5930 C.3   306  THR306      0.2028
    166  C         22.0590  -28.0420  -19.6760 C.2   306  THR306      0.2642
    167  O         22.5920  -28.5610  -20.6610 O.2   306  THR306     -0.2714
    168  CB        20.7470  -26.0340  -20.4740 C.3   306  THR306      0.1808
    169  OG1       20.9050  -24.6360  -20.7430 O.3   306  THR306     -0.2208
    170  CG2       19.4040  -26.2610  -19.7990 C.3   306  THR306      0.0379
    171  N         21.5850  -28.7400  -18.6420 N.am  307  ASN307     -0.1971
    172  CA        21.6970  -30.2010  -18.5710 C.3   307  ASN307      0.1688
    173  C         20.7010  -30.9130  -19.4870 C.2   307  ASN307      0.2292
    174  O         19.4930  -30.8600  -19.2570 O.2   307  ASN307     -0.2864
    175  CB        21.5390  -30.6920  -17.1260 C.3   307  ASN307      0.1181
    176  CG        22.3360  -31.9600  -16.8400 C.2   307  ASN307      0.2629
    177  OD1       21.7690  -33.0000  -16.5150 O.2   307  ASN307     -0.2716
    178  ND2       23.6580  -31.8710  -16.9550 N.am  307  ASN307     -0.0877
    179  N         25.4020  -26.7950  -13.6590 N.3   354  ASP354     -0.1239
    180  CA        24.5430  -27.3480  -12.6040 C.3   354  ASP354      0.1674
    181  C         25.0670  -28.6580  -11.9860 C.2   354  ASP354      0.2266
    182  O         24.8740  -28.9040  -10.7940 O.2   354  ASP354     -0.2867
    183  CB        23.1210  -27.5570  -13.1280 C.3   354  ASP354      0.1410
    184  CG        23.0430  -28.6680  -14.1600 C.2   354  ASP354      0.3668
    185  OD1       23.9360  -28.7160  -15.0410 O.co2 354  ASP354     -0.2456
    186  OD2       22.1040  -29.4950  -14.0860 O.co2 354  ASP354     -0.2456
    187  N         27.9970  -23.6360   -5.5080 N.3   362  LEU362     -0.1245
    188  CA        27.8070  -22.6280   -6.5530 C.3   362  LEU362      0.1561
    189  C         28.8640  -21.5060   -6.5200 C.2   362  LEU362      0.2260
    190  O         29.3760  -21.1130   -7.5710 O.2   362  LEU362     -0.2867
    191  CB        26.3830  -22.0520   -6.5300 C.3   362  LEU362      0.0270
    192  CG        25.6630  -21.6470   -7.8410 C.3   362  LEU362      0.0019
    193  CD1       26.5870  -20.9940   -8.9020 C.3   362  LEU362      0.0001
    194  CD2       24.9570  -22.8360   -8.4550 C.3   362  LEU362      0.0001
@<TRIPOS>BOND
     1     4     3    2
     2     3     2    1
     3     1     2    1
     4     2     5    1
     5     5     7    1
     6     5     6    1
     7     9    10    1
     8    10    11    1
     9    10    13    1
    10    29    27    1
    11    11    12    2
    12     6     8    1
    13    13    14    1
    14    14    15    1
    15    21    20    2
    16    27    24    1
    17    27    28    1
    18    18    19    1
    19    15    16    1
    20    60    61    1
    21    60    57    1
    22    61    62    1
    23    16    17    1
    24    20    19    1
    25    20    23   am
    26    24    23    1
    27    24    25    1
    28    48    47    2
    29    35    34    1
    30    35    37    1
    31    57    58    1
    32    57    56    1
    33    59    58    2
    34    19    22    1
    35    30    25   am
    36    30    31    1
    37    34    31    1
    38    34    36    1
    39    58    63   am
    40   122   120    1
    41    25    26    2
    42    33    32    2
    43   151   150    2
    44    62    56    1
    45    47    46    1
    46    31    32    1
    47   150   149    1
    48   119   118    2
    49   169   168    1
    50    32    38   am
    51   167   166    2
    52    83    84    1
    53    84    87    1
    54    84    85    1
    55   120   117    1
    56   120   121    1
    57   168   170    1
    58   168   165    1
    59    46    49    1
    60    46    45    1
    61    63    64    1
    62    87    88    1
    63    49    50    1
    64   117   118    1
    65   117   116    1
    66   158   159    1
    67    69    68    2
    68   164   165    1
    69   164   160   am
    70    54    53    1
    71   159   160    1
    72   159   162    1
    73   118   123   am
    74    92    85   am
    75    92    93    1
    76    51    50    1
    77    51    52    1
    78   166   165    1
    79   166   171   am
    80   133   132    2
    81    64    65    1
    82    64    67    1
    83    90    89   ar
    84    85    86    2
    85   173   174    2
    86   173   172    1
    87   152   149    1
    88   152   153    1
    89    38    39    1
    90   149   148    1
    91   126   125    2
    92   160   161    2
    93    96    93    1
    94   136   134    1
    95   115   114    2
    96    88    89    1
    97   162   163    1
    98    68    67    1
    99    68    70   am
   100   116   114   am
   101    53    52    2
   102    53    55    1
   103    65    66    2
   104    39    40    1
   105    39    42    1
   106    89    91   ar
   107   131   132    1
   108   131   134    1
   109   131   130    1
   110   110   111   ar
   111   110   108   ar
   112   140   139    2
   113   132   137   am
   114    93    94    1
   115   125   130   am
   116   125   124    1
   117   171   172    1
   118    95    94    2
   119   114   113    1
   120   123   124    1
   121   172   175    1
   122    40    41    2
   123   148   139   am
   124   127   129    1
   125   127   124    1
   126   127   128    1
   127   111   109   ar
   128   153   155   ar
   129   153   154   ar
   130   134   135    1
   131   155   157   ar
   132   139   138    1
   133    43    42    1
   134    94    97   am
   135    42    44    1
   136   108   107   ar
   137   137   138    1
   138   113   112    1
   139   138   141    1
   140   175   176    1
   141   109   107   ar
   142   154   156   ar
   143   112   104   am
   144   178   176   am
   145   157   156   ar
   146    97    98    1
   147   176   177    2
   148   107   106    1
   149    98   101    1
   150    98    99    1
   151    82    81    2
   152   102    99   am
   153   102   103    1
   154   141   142    1
   155   104   103    1
   156   104   105    2
   157    99   100    2
   158   106   103    1
   159   142   143    1
   160    81    80    1
   161   185   184   ar
   162    80    79    1
   163   184   186   ar
   164   184   183    1
   165   144   143    1
   166   144   145    2
   167   147   145    1
   168   145   146    1
   169   179   180    1
   170    79    73   am
   171    74    73    2
   172   183   180    1
   173    73    72    1
   174   180   181    1
   175   181   182    2
   176    75    72    1
   177    75    76    1
   178    72    71    1
   179    77    76    1
   180    76    78    1
   181   193   192    1
   182   194   192    1
   183   192   191    1
   184   190   189    2
   185   188   191    1
   186   188   189    1
   187   188   187    1
