@<TRIPOS>MOLECULE
tmp/3matA00.pdb
 184 180 0 0 0
SMALL
GASTEIGER

@<TRIPOS>ATOM
      1  N        -14.1030   -5.5370   14.6150 N.3    58  CYS58      -0.1235
      2  CA       -14.6590   -4.2150   14.2410 C.3    58  CYS58       0.1677
      3  C        -16.1440   -4.1270   14.0550 C.2    58  CYS58       0.2270
      4  O        -16.7310   -3.0480   14.2490 O.2    58  CYS58      -0.2867
      5  CB       -14.0760   -3.7190   12.9050 C.3    58  CYS58       0.0956
      6  SG       -12.2700   -3.6360   12.8910 S.3    58  CYS58      -0.0801
      7  N        -18.2880   -2.7880   16.8050 N.3    61  TYR61      -0.1227
      8  CA       -17.4630   -2.1160   17.8020 C.3    61  TYR61       0.1736
      9  C        -17.9630   -0.6930   18.0010 C.2    61  TYR61       0.2595
     10  O        -17.7310    0.1540   17.1470 O.2    61  TYR61      -0.2718
     11  CB       -15.9810   -2.1040   17.3770 C.3    61  TYR61       0.0548
     12  CG       -15.0640   -1.8200   18.5200 C.ar   61  TYR61      -0.0200
     13  CD1      -15.2100   -2.4950   19.7310 C.ar   61  TYR61      -0.0009
     14  CD2      -14.0880   -0.8320   18.4130 C.ar   61  TYR61      -0.0009
     15  CE1      -14.3830   -2.2140   20.8150 C.ar   61  TYR61       0.0417
     16  CE2      -13.2210   -0.5660   19.4700 C.ar   61  TYR61       0.0417
     17  CZ       -13.3790   -1.2590   20.6670 C.ar   61  TYR61       0.1957
     18  OH       -12.5270   -1.0170   21.7060 O.3    61  TYR61      -0.2866
     19  N        -18.6740   -0.4260   19.1210 N.am   62  HIS62      -0.1975
     20  CA       -19.2330    0.8890   19.3020 C.3    62  HIS62       0.1656
     21  C        -20.1470    1.1690   18.1160 C.2    62  HIS62       0.2291
     22  O        -20.2890    2.2880   17.6640 O.2    62  HIS62      -0.2864
     23  CB       -18.1640    1.9950   19.4020 C.3    62  HIS62       0.0771
     24  CG       -17.2740    1.8960   20.6240 C.ar   62  HIS62       0.0820
     25  ND1      -17.5360    2.5950   21.8040 N.ar   62  HIS62      -0.2267
     26  CD2      -16.1290    1.1980   20.8370 C.ar   62  HIS62       0.1154
     27  CE1      -16.5730    2.3060   22.6870 C.ar   62  HIS62       0.1986
     28  NE2      -15.7270    1.4540   22.1420 N.ar   62  HIS62      -0.2212
     29  N        -19.7130    0.1700   14.9950 N.3    64  TYR64      -0.1241
     30  CA       -19.1130    0.1940   13.6560 C.3    64  TYR64       0.1605
     31  C        -19.8920   -0.8080   12.7920 C.2    64  TYR64       0.2264
     32  O        -20.0940   -1.9790   13.1670 O.2    64  TYR64      -0.2867
     33  CB       -17.6180   -0.0970   13.7230 C.3    64  TYR64       0.0534
     34  CG       -17.0140    0.1790   12.3710 C.ar   64  TYR64      -0.0201
     35  CD1      -16.7910    1.4800   11.9250 C.ar   64  TYR64      -0.0009
     36  CD2      -16.6600   -0.8900   11.5480 C.ar   64  TYR64      -0.0009
     37  CE1      -16.2640    1.7110   10.6560 C.ar   64  TYR64       0.0417
     38  CE2      -16.1510   -0.6770   10.2700 C.ar   64  TYR64       0.0417
     39  CZ       -15.9440    0.6290    9.8360 C.ar   64  TYR64       0.1957
     40  OH       -15.3840    0.8310    8.6110 O.3    64  TYR64      -0.2866
     41  N        -11.9790   -1.5440    8.0610 N.3    69  CYS69      -0.1235
     42  CA       -12.0040   -0.1380    7.7100 C.3    69  CYS69       0.1677
     43  C        -11.1640    0.0250    6.4360 C.2    69  CYS69       0.2270
     44  O        -10.0080   -0.4480    6.3460 O.2    69  CYS69      -0.2867
     45  CB       -11.4920    0.8170    8.8090 C.3    69  CYS69       0.0956
     46  SG       -12.2620    0.5180   10.4160 S.3    69  CYS69      -0.0801
     47  N        -11.1810    5.0480    9.5410 N.3    78  HIS78      -0.1241
     48  CA       -12.6010    4.6670    9.6570 C.3    78  HIS78       0.1621
     49  C        -13.4420    4.7530    8.4140 C.2    78  HIS78       0.2264
     50  O        -14.6820    4.8030    8.5320 O.2    78  HIS78      -0.2867
     51  CB       -13.3630    5.4950   10.7050 C.3    78  HIS78       0.0745
     52  CG       -12.6760    5.4080   11.9900 C.ar   78  HIS78       0.0817
     53  ND1      -12.8410    6.3740   12.9500 N.ar   78  HIS78      -0.2268
     54  CD2      -11.7990    4.4660   12.4320 C.ar   78  HIS78       0.1154
     55  CE1      -12.0830    5.9870   13.9780 C.ar   78  HIS78       0.1986
     56  NE2      -11.4260    4.8580   13.6910 N.ar   78  HIS78      -0.2212
     57  N         -7.6480   -1.5710    7.2450 N.3    96  ASP96      -0.1225
     58  CA        -7.3500   -1.8490    8.6600 C.3    96  ASP96       0.1805
     59  C         -8.1850   -3.0120    9.1670 C.2    96  ASP96       0.2598
     60  O         -9.4080   -3.0130    8.9970 O.2    96  ASP96      -0.2718
     61  CB        -7.5800   -0.5870    9.4980 C.3    96  ASP96       0.1424
     62  CG        -7.1010   -0.6990   10.8900 C.2    96  ASP96       0.3668
     63  OD1       -6.6430   -1.7010   11.3560 O.co2  96  ASP96      -0.2456
     64  OD2       -7.2640    0.4030   11.5270 O.co2  96  ASP96      -0.2456
     65  N         -7.5050   -4.0220    9.7420 N.am   97  VAL97      -0.1966
     66  CA        -8.1400   -5.2420   10.1850 C.3    97  VAL97       0.1727
     67  C         -7.9230   -5.5800   11.6500 C.2    97  VAL97       0.2616
     68  O         -6.8410   -5.3850   12.1770 O.2    97  VAL97      -0.2715
     69  CB        -7.4330   -6.3410    9.3730 C.3    97  VAL97       0.0290
     70  CG1       -7.8590   -7.7080    9.8030 C.3    97  VAL97       0.0023
     71  CG2       -7.7720   -6.2050    7.9050 C.3    97  VAL97       0.0023
     72  N         -8.9520   -6.1140   12.3140 N.am   98  THR98      -0.1951
     73  CA        -8.8290   -6.5700   13.6840 C.3    98  THR98       0.1897
     74  C         -9.5660   -7.8830   13.7880 C.2    98  THR98       0.2313
     75  O        -10.7440   -7.9140   13.5280 O.2    98  THR98      -0.2863
     76  CB        -9.2310   -5.5880   14.7900 C.3    98  THR98       0.1794
     77  OG1       -8.6560   -4.3200   14.5430 O.3    98  THR98      -0.2208
     78  CG2       -8.7320   -6.0990   16.1420 C.3    98  THR98       0.0378
     79  N         -4.4520   -6.5860   15.6290 N.3   107  ASP107     -0.1239
     80  CA        -4.8150   -5.3320   14.8830 C.3   107  ASP107      0.1674
     81  C         -3.6910   -4.8640   13.9480 C.2   107  ASP107      0.2266
     82  O         -2.5800   -4.6200   14.3720 O.2   107  ASP107     -0.2867
     83  CB        -4.9610   -4.2660   15.9710 C.3   107  ASP107      0.1410
     84  CG        -5.6430   -3.0310   15.4900 C.2   107  ASP107      0.3668
     85  OD1       -5.9900   -3.0680   14.2220 O.co2 107  ASP107     -0.2456
     86  OD2       -5.9130   -2.1460   16.2540 O.co2 107  ASP107     -0.2456
     87  N         -5.3420   13.3750   17.2460 N.3   166  GLU166     -0.1231
     88  CA        -6.4510   12.6530   17.8380 C.3   166  GLU166      0.1699
     89  C         -6.4160   11.1410   17.9070 C.2   166  GLU166      0.2592
     90  O         -7.0940   10.5880   18.7680 O.2   166  GLU166     -0.2718
     91  CB        -7.7830   13.0550   17.2480 C.3   166  GLU166      0.0402
     92  CG        -7.9780   14.5590   17.4010 C.3   166  GLU166      0.1161
     93  CD        -7.3700   15.2620   16.2400 C.2   166  GLU166      0.3649
     94  OE1       -6.5850   14.7140   15.5080 O.co2 166  GLU166     -0.2457
     95  OE2       -7.7970   16.4900   16.0880 O.co2 166  GLU166     -0.2457
     96  N         -5.6980   10.4610   17.0100 N.am  167  TYR167     -0.1962
     97  CA        -5.7110    9.0110   17.0190 C.3   167  TYR167      0.1771
     98  C         -4.3640    8.3820   17.3960 C.2   167  TYR167      0.2619
     99  O         -3.3570    8.7700   16.8240 O.2   167  TYR167     -0.2715
    100  CB        -6.2200    8.5490   15.6650 C.3   167  TYR167      0.0574
    101  CG        -7.6530    8.9310   15.4650 C.ar  167  TYR167     -0.0198
    102  CD1       -8.6540    8.1390   16.0240 C.ar  167  TYR167     -0.0009
    103  CD2       -8.0010   10.0840   14.7620 C.ar  167  TYR167     -0.0009
    104  CE1      -10.0020    8.4610   15.8780 C.ar  167  TYR167      0.0417
    105  CE2       -9.3440   10.4310   14.6320 C.ar  167  TYR167      0.0417
    106  CZ       -10.3410    9.6070   15.1640 C.ar  167  TYR167      0.1957
    107  OH       -11.6700    9.9210   15.0120 O.3   167  TYR167     -0.2866
    108  N         -4.3650    7.4130   18.3670 N.am  168  CYS168     -0.1968
    109  CA        -3.1530    6.7790   18.8550 C.3   168  CYS168      0.1712
    110  C         -3.1740    5.2570   18.7620 C.2   168  CYS168      0.2296
    111  O         -4.2420    4.6650   18.5870 O.2   168  CYS168     -0.2864
    112  CB        -3.0510    7.0970   20.3480 C.3   168  CYS168      0.0983
    113  SG        -3.3310    8.8360   20.7400 S.3   168  CYS168     -0.0798
    114  N         -2.3690    1.5680   20.7820 N.3   170  HIS170     -0.1241
    115  CA        -2.9300    1.2380   22.0830 C.3   170  HIS170      0.1621
    116  C         -2.5400   -0.1360   22.5810 C.2   170  HIS170      0.2264
    117  O         -2.1430   -0.9870   21.8150 O.2   170  HIS170     -0.2867
    118  CB        -4.4780    1.1630   21.8540 C.3   170  HIS170      0.0745
    119  CG        -4.8660    0.4040   20.5950 C.ar  170  HIS170      0.0817
    120  ND1       -5.2350   -0.9560   20.6040 N.ar  170  HIS170     -0.2268
    121  CD2       -4.9040    0.8390   19.3010 C.ar  170  HIS170      0.1154
    122  CE1       -5.4870   -1.2970   19.3520 C.ar  170  HIS170      0.1986
    123  NE2       -5.2690   -0.2420   18.5510 N.ar  170  HIS170     -0.2212
    124  N         -9.6920   -5.0300   23.0790 N.3   176  PHE176     -0.1227
    125  CA        -9.3650   -4.3920   21.8210 C.3   176  PHE176      0.1736
    126  C         -8.4740   -3.1760   22.1100 C.2   176  PHE176      0.2595
    127  O         -7.3810   -2.9930   21.5920 O.2   176  PHE176     -0.2718
    128  CB       -10.6910   -3.9980   21.0910 C.3   176  PHE176      0.0547
    129  CG       -10.5630   -3.6180   19.6230 C.ar  176  PHE176     -0.0202
    130  CD1       -9.3490   -3.2000   19.0750 C.ar  176  PHE176     -0.0042
    131  CD2      -11.6490   -3.7340   18.7540 C.ar  176  PHE176     -0.0042
    132  CE1       -9.2710   -2.8470   17.7220 C.ar  176  PHE176     -0.0003
    133  CE2      -11.5890   -3.3860   17.4000 C.ar  176  PHE176     -0.0003
    134  CZ       -10.3790   -2.9350   16.8720 C.ar  176  PHE176     -0.0000
    135  N         -8.9740   -2.3180   22.9680 N.am  177  HIS177     -0.1975
    136  CA        -8.2750   -1.1200   23.3460 C.3   177  HIS177      0.1656
    137  C         -7.9780   -1.0860   24.8270 C.2   177  HIS177      0.2291
    138  O         -8.8370   -0.7240   25.6190 O.2   177  HIS177     -0.2864
    139  CB        -9.0520    0.1290   22.9200 C.3   177  HIS177      0.0771
    140  CG        -9.0300    0.3410   21.4410 C.ar  177  HIS177      0.0820
    141  ND1       -9.9760   -0.2560   20.5850 N.ar  177  HIS177     -0.2267
    142  CD2       -8.1630    1.0530   20.6780 C.ar  177  HIS177      0.1154
    143  CE1       -9.6740    0.1140   19.3260 C.ar  177  HIS177      0.1986
    144  NE2       -8.5810    0.9010   19.3470 N.ar  177  HIS177     -0.2212
    145  N          0.3320    2.9900   15.3980 N.3   203  GLU203     -0.1245
    146  CA        -0.3430    3.1420   14.1010 C.3   203  GLU203      0.1567
    147  C         -0.4240    4.5930   13.6710 C.2   203  GLU203      0.2260
    148  O         -1.4880    5.2100   13.6680 O.2   203  GLU203     -0.2867
    149  CB        -1.7490    2.4890   14.1760 C.3   203  GLU203      0.0388
    150  CG        -2.6160    3.0930   15.3230 C.3   203  GLU203      0.1160
    151  CD        -3.8980    2.3310   15.4030 C.2   203  GLU203      0.3649
    152  OE1       -4.6180    2.1970   14.4410 O.co2 203  GLU203     -0.2457
    153  OE2       -4.0830    1.7660   16.5620 O.co2 203  GLU203     -0.2457
    154  N         -0.8390    8.0150   11.8620 N.3   205  MET205     -0.1245
    155  CA        -1.6070    8.5280   10.7410 C.3   205  MET205      0.1570
    156  C         -0.8940    9.8040   10.3150 C.2   205  MET205      0.2261
    157  O         -0.7090   10.7290   11.0890 O.2   205  MET205     -0.2867
    158  CB        -3.0860    8.7580   11.0160 C.3   205  MET205      0.0387
    159  CG        -3.7390    7.4830   11.4940 C.3   205  MET205      0.0595
    160  SD        -5.3170    7.7970   12.3080 S.3   205  MET205     -0.1393
    161  CE        -5.3780    6.4040   13.4660 C.3   205  MET205      0.0692
    162  N        -18.3560    8.4710   11.4110 N.3   220  TRP220     -0.1241
    163  CA       -17.2090    7.5880   11.4250 C.3   220  TRP220      0.1605
    164  C        -16.0390    8.0320   10.5770 C.2   220  TRP220      0.2264
    165  O        -14.9060    8.0370   11.0150 O.2   220  TRP220     -0.2867
    166  CB       -17.6940    6.1940   10.9600 C.3   220  TRP220      0.0550
    167  CG       -18.3760    5.4060   12.0630 C.ar  220  TRP220      0.0003
    168  CD1      -19.7150    5.1470   12.1700 C.ar  220  TRP220      0.0946
    169  CD2      -17.7480    4.7690   13.2210 C.ar  220  TRP220      0.0152
    170  NE1      -19.9720    4.3850   13.2900 N.ar  220  TRP220     -0.2442
    171  CE2      -18.7820    4.1630   13.9730 C.ar  220  TRP220      0.0810
    172  CE3      -16.4200    4.6560   13.6810 C.ar  220  TRP220      0.0012
    173  CZ2      -18.5110    3.4510   15.1380 C.ar  220  TRP220      0.0191
    174  CZ3      -16.1790    3.9460   14.8270 C.ar  220  TRP220      0.0001
    175  CH2      -17.2140    3.3580   15.5560 C.ar  220  TRP220      0.0015
    176  N          0.0540   -0.0340   10.6140 N.3   234  GLU234     -0.1245
    177  CA        -0.0310   -0.4340   11.9770 C.3   234  GLU234      0.1567
    178  C          0.4270   -1.8690   12.1290 C.2   234  GLU234      0.2260
    179  O          0.1380   -2.6830   11.2720 O.2   234  GLU234     -0.2867
    180  CB        -1.5120   -0.2990   12.4370 C.3   234  GLU234      0.0388
    181  CG        -1.8710   -1.1310   13.6880 C.3   234  GLU234      0.1160
    182  CD        -3.2940   -0.8970   14.1900 C.2   234  GLU234      0.3649
    183  OE1       -4.1720   -0.8410   13.2370 O.co2 234  GLU234     -0.2457
    184  OE2       -3.5890   -0.8380   15.3650 O.co2 234  GLU234     -0.2457
@<TRIPOS>BOND
     1    44    43    2
     2    43    42    1
     3    57    58    1
     4    42    41    1
     5    42    45    1
     6    71    69    1
     7    49    50    2
     8    49    48    1
     9    40    39    1
    10    58    59    1
    11    58    61    1
    12    45    46    1
    13    60    59    2
    14    59    65   am
    15    69    70    1
    16    69    66    1
    17    61    62    1
    18    47    48    1
    19    48    51    1
    20    65    66    1
    21    39    38   ar
    22    39    37   ar
    23    66    67    1
    24    38    36   ar
    25   156   155    1
    26   156   157    2
    27   164   165    2
    28   164   163    1
    29   176   177    1
    30    37    35   ar
    31    51    52    1
    32   155   158    1
    33   155   154    1
    34    62    63   ar
    35    62    64   ar
    36   166   163    1
    37   166   167    1
    38   158   159    1
    39   179   178    2
    40   162   163    1
    41   159   160    1
    42    36    34   ar
    43    67    68    2
    44    67    72   am
    45    35    34   ar
    46   177   178    1
    47   177   180    1
    48    52    54   ar
    49    52    53   ar
    50   167   168   ar
    51   167   169   ar
    52   168   170   ar
    53   160   161    1
    54    72    73    1
    55    34    33    1
    56    54    56   ar
    57   180   181    1
    58    31    32    2
    59    31    30    1
    60     6     5    1
    61     5     2    1
    62    53    55   ar
    63   169   172   ar
    64   169   171   ar
    65   183   182   ar
    66   170   171   ar
    67    75    74    2
    68    30    33    1
    69    30    29    1
    70   148   147    2
    71   147   146    1
    72   172   174   ar
    73    73    74    1
    74    73    76    1
    75   181   182    1
    76    56    55   ar
    77    81    82    2
    78    81    80    1
    79   171   173   ar
    80     3     2    1
    81     3     4    2
    82   146   149    1
    83   146   145    1
    84   149   150    1
    85   182   184   ar
    86    85    84   ar
    87     2     1    1
    88   152   151   ar
    89    77    76    1
    90   105   103   ar
    91   105   106   ar
    92   103   101   ar
    93    76    78    1
    94   174   175   ar
    95    80    79    1
    96    80    83    1
    97   107   106    1
    98   173   175   ar
    99   106   104   ar
   100   150   151    1
   101   151   153   ar
   102   101   100    1
   103   101   102   ar
   104    84    83    1
   105    84    86   ar
   106    94    93   ar
   107   100    97    1
   108   104   102   ar
   109    95    93   ar
   110    93    92    1
   111     7     8    1
   112    99    98    2
   113   134   133   ar
   114   134   132   ar
   115    96    97    1
   116    96    89   am
   117    97    98    1
   118    10     9    2
   119    87    88    1
   120    91    92    1
   121    91    88    1
   122    11     8    1
   123    11    12    1
   124    98   108   am
   125   133   131   ar
   126    22    21    2
   127   132   130   ar
   128     8     9    1
   129    88    89    1
   130    89    90    2
   131     9    19   am
   132    21    20    1
   133   108   109    1
   134    14    12   ar
   135    14    16   ar
   136    12    13   ar
   137   123   121   ar
   138   123   122   ar
   139   111   110    2
   140   131   129   ar
   141   110   109    1
   142   109   112    1
   143   130   129   ar
   144    19    20    1
   145   121   119   ar
   146    20    23    1
   147   143   144   ar
   148   143   141   ar
   149   144   142   ar
   150   122   120   ar
   151    23    24    1
   152    16    17   ar
   153   129   128    1
   154    13    15   ar
   155   112   113    1
   156   141   140   ar
   157   119   120   ar
   158   119   118    1
   159    24    26   ar
   160    24    25   ar
   161    17    15   ar
   162    17    18    1
   163   142   140   ar
   164   114   115    1
   165    26    28   ar
   166   128   125    1
   167   140   139    1
   168   127   126    2
   169    25    27   ar
   170   117   116    2
   171   125   126    1
   172   125   124    1
   173   118   115    1
   174   115   116    1
   175   126   135   am
   176    28    27   ar
   177   139   136    1
   178   135   136    1
   179   136   137    1
   180   137   138    2
