@<TRIPOS>MOLECULE
tmp/3mauA00.pdb
 108 104 0 0 0
SMALL
GASTEIGER

@<TRIPOS>ATOM
      1  N          8.0070  -38.1930   24.0020 N.3    49  TYR49      -0.1241
      2  CA         7.8240  -37.6520   22.6600 C.3    49  TYR49       0.1605
      3  C          8.9990  -36.8510   22.1300 C.2    49  TYR49       0.2264
      4  O          9.2230  -36.7980   20.9260 O.2    49  TYR49      -0.2867
      5  CB         6.5340  -36.8450   22.5890 C.3    49  TYR49       0.0534
      6  CG         5.3370  -37.7430   22.4470 C.ar   49  TYR49      -0.0201
      7  CD1        4.6550  -38.2160   23.5650 C.ar   49  TYR49      -0.0009
      8  CD2        4.9080  -38.1510   21.1930 C.ar   49  TYR49      -0.0009
      9  CE1        3.5640  -39.0520   23.4300 C.ar   49  TYR49       0.0417
     10  CE2        3.8230  -38.9850   21.0480 C.ar   49  TYR49       0.0417
     11  CZ         3.1530  -39.4330   22.1630 C.ar   49  TYR49       0.1957
     12  OH         2.0720  -40.2670   21.9850 O.3    49  TYR49      -0.2866
     13  N         -5.2320  -33.2510   29.3720 N.3   111  GLY111     -0.1210
     14  CA        -4.8160  -34.3070   28.4680 C.3   111  GLY111      0.1956
     15  C         -5.8430  -34.5650   27.3910 C.2   111  GLY111      0.2612
     16  O         -6.9370  -34.0140   27.4290 O.2   111  GLY111     -0.2717
     17  N         -5.4920  -35.4050   26.4290 N.am  112  GLY112     -0.1942
     18  CA        -6.4050  -35.7270   25.3520 C.3   112  GLY112      0.2014
     19  C         -7.7590  -36.1900   25.8520 C.2   112  GLY112      0.2639
     20  O         -8.7950  -35.7170   25.3830 O.2   112  GLY112     -0.2714
     21  N         -7.7520  -37.1180   26.8060 N.am  113  THR113     -0.1950
     22  CA        -8.9910  -37.6690   27.3350 C.3   113  THR113      0.1897
     23  C         -9.9190  -36.5790   27.8660 C.2   113  THR113      0.2313
     24  O        -11.1090  -36.5950   27.5690 O.2   113  THR113     -0.2863
     25  CB        -8.7440  -38.7220   28.4310 C.3   113  THR113      0.1794
     26  OG1       -8.1050  -39.8700   27.8650 O.3   113  THR113     -0.2208
     27  CG2      -10.0570  -39.1600   29.0430 C.3   113  THR113      0.0378
     28  N        -11.5040  -34.6290   24.9480 N.3   116  LEU116     -0.1245
     29  CA       -12.5990  -35.4160   24.3840 C.3   116  LEU116      0.1561
     30  C        -13.8230  -35.4350   25.2940 C.2   116  LEU116      0.2260
     31  O        -14.9380  -35.1570   24.8490 O.2   116  LEU116     -0.2867
     32  CB       -12.1440  -36.8420   24.0880 C.3   116  LEU116      0.0270
     33  CG       -11.1790  -36.9580   22.9130 C.3   116  LEU116      0.0019
     34  CD1      -10.6800  -38.3880   22.7230 C.3   116  LEU116      0.0001
     35  CD2      -11.8680  -36.4510   21.6660 C.3   116  LEU116      0.0001
     36  N        -10.8320  -43.0520   19.5740 N.3   145  HIS145     -0.1241
     37  CA       -10.1990  -43.4250   20.8410 C.3   145  HIS145      0.1621
     38  C        -11.1720  -43.9080   21.9190 C.2   145  HIS145      0.2264
     39  O        -12.3080  -43.4410   22.0060 O.2   145  HIS145     -0.2867
     40  CB        -9.3450  -42.2790   21.3850 C.3   145  HIS145      0.0745
     41  CG        -8.3910  -42.6990   22.4610 C.ar  145  HIS145      0.0817
     42  ND1       -8.7030  -42.6290   23.8030 N.ar  145  HIS145     -0.2268
     43  CD2       -7.1360  -43.2010   22.3940 C.ar  145  HIS145      0.1154
     44  CE1       -7.6790  -43.0650   24.5130 C.ar  145  HIS145      0.1986
     45  NE2       -6.7140  -43.4170   23.6820 N.ar  145  HIS145     -0.2212
     46  N         -4.5920  -38.4290   13.5030 N.3   191  PRO191     -0.2102
     47  CA        -5.0520  -39.7490   13.0980 C.3   191  PRO191      0.1504
     48  C         -5.6610  -40.4510   14.2880 C.2   191  PRO191      0.2576
     49  O         -5.5190  -39.9770   15.4120 O.2   191  PRO191     -0.2718
     50  CB        -3.7470  -40.4740   12.7550 C.3   191  PRO191      0.0282
     51  CG        -2.6290  -39.6280   13.3130 C.3   191  PRO191      0.0208
     52  CD        -3.2460  -38.5090   14.0860 C.3   191  PRO191      0.0893
     53  N         -6.3210  -41.5760   14.0420 N.am  192  GLY192     -0.1943
     54  CA        -6.7550  -42.4560   15.1090 C.3   192  GLY192      0.2014
     55  C         -5.5320  -43.0890   15.7390 C.2   192  GLY192      0.2638
     56  O         -4.4900  -43.2060   15.0940 O.2   192  GLY192     -0.2714
     57  N         -5.6480  -43.4870   17.0000 N.am  193  TYR193     -0.1973
     58  CA        -4.5160  -44.0740   17.7030 C.3   193  TYR193      0.1639
     59  C         -4.1430  -45.4780   17.2000 C.2   193  TYR193      0.2290
     60  O         -2.9590  -45.8060   17.0890 O.2   193  TYR193     -0.2864
     61  CB        -4.7800  -44.0780   19.2130 C.3   193  TYR193      0.0560
     62  CG        -3.8590  -44.9720   20.0230 C.ar  193  TYR193     -0.0198
     63  CD1       -4.1880  -46.3040   20.2650 C.ar  193  TYR193     -0.0009
     64  CD2       -2.6720  -44.4820   20.5620 C.ar  193  TYR193     -0.0009
     65  CE1       -3.3620  -47.1250   21.0090 C.ar  193  TYR193      0.0417
     66  CE2       -1.8330  -45.3030   21.3130 C.ar  193  TYR193      0.0417
     67  CZ        -2.1870  -46.6220   21.5320 C.ar  193  TYR193      0.1957
     68  OH        -1.3680  -47.4420   22.2780 O.3   193  TYR193     -0.2866
     69  N        -10.6570  -35.5250   16.5600 N.3   218  ASP218     -0.1239
     70  CA        -9.7030  -35.9970   17.5530 C.3   218  ASP218      0.1674
     71  C         -8.2900  -35.9260   16.9870 C.2   218  ASP218      0.2266
     72  O         -7.7430  -36.9210   16.5100 O.2   218  ASP218     -0.2867
     73  CB       -10.0610  -37.4210   17.9900 C.3   218  ASP218      0.1410
     74  CG        -9.0700  -38.0070   18.9950 C.2   218  ASP218      0.3668
     75  OD1       -9.0630  -39.2570   19.1680 O.co2 218  ASP218     -0.2456
     76  OD2       -8.3040  -37.2250   19.6050 O.co2 218  ASP218     -0.2456
     77  N         -5.6550  -35.3120   18.7420 N.3   220  CYS220     -0.1221
     78  CA        -4.7910  -35.3700   19.9100 C.3   220  CYS220      0.1808
     79  C         -3.3990  -35.8460   19.5280 C.2   220  CYS220      0.2601
     80  O         -2.3960  -35.4160   20.1020 O.2   220  CYS220     -0.2717
     81  CB        -5.4000  -36.2670   20.9830 C.3   220  CYS220      0.0970
     82  SG        -6.8480  -35.5380   21.7940 S.3   220  CYS220     -0.0800
     83  N         -3.3370  -36.7210   18.5360 N.am  221  LEU221     -0.1979
     84  CA        -2.0500  -37.2260   18.0900 C.3   221  LEU221      0.1596
     85  C         -1.4920  -36.3460   16.9760 C.2   221  LEU221      0.2287
     86  O         -0.3010  -36.0320   16.9510 O.2   221  LEU221     -0.2864
     87  CB        -2.1780  -38.6760   17.6240 C.3   221  LEU221      0.0297
     88  CG        -1.0740  -39.6000   18.1320 C.3   221  LEU221      0.0022
     89  CD1       -0.8100  -39.3380   19.6060 C.3   221  LEU221      0.0001
     90  CD2       -1.4490  -41.0550   17.8970 C.3   221  LEU221      0.0001
     91  N         -3.0380  -32.4270   21.5780 N.3   252  ASP252     -0.1239
     92  CA        -2.2110  -32.6640   22.7640 C.3   252  ASP252      0.1674
     93  C         -0.8730  -31.9410   22.7340 C.2   252  ASP252      0.2266
     94  O          0.0260  -32.3120   21.9810 O.2   252  ASP252     -0.2867
     95  CB        -1.9340  -34.1550   22.9420 C.3   252  ASP252      0.1410
     96  CG        -3.1470  -34.9230   23.4140 C.2   252  ASP252      0.3668
     97  OD1       -4.2360  -34.3040   23.4930 O.co2 252  ASP252     -0.2456
     98  OD2       -3.0030  -36.1420   23.6990 O.co2 252  ASP252     -0.2456
     99  N          1.1280  -32.1260   25.0400 N.3   254  HIS254     -0.1241
    100  CA         2.0560  -32.9620   25.7930 C.3   254  HIS254      0.1621
    101  C          2.5380  -34.1460   24.9560 C.2   254  HIS254      0.2264
    102  O          3.4790  -34.8520   25.3270 O.2   254  HIS254     -0.2867
    103  CB         1.4460  -33.3930   27.1370 C.3   254  HIS254      0.0745
    104  CG         0.4000  -34.4600   27.0280 C.ar  254  HIS254      0.0817
    105  ND1       -0.2320  -34.9940   28.1340 N.ar  254  HIS254     -0.2268
    106  CD2       -0.1070  -35.1160   25.9570 C.ar  254  HIS254      0.1154
    107  CE1       -1.0900  -35.9190   27.7470 C.ar  254  HIS254      0.1986
    108  NE2       -1.0330  -36.0160   26.4290 N.ar  254  HIS254     -0.2212
@<TRIPOS>BOND
     1    50    47    1
     2    50    51    1
     3    47    46    1
     4    47    48    1
     5    51    52    1
     6    46    52    1
     7    53    48   am
     8    53    54    1
     9    48    49    2
    10    56    55    2
    11    54    55    1
    12    55    57   am
    13    72    71    2
    14    69    70    1
    15    86    85    2
    16    85    84    1
    17    71    70    1
    18    57    58    1
    19    60    59    2
    20    59    58    1
    21    70    73    1
    22    87    84    1
    23    87    88    1
    24    58    61    1
    25    90    88    1
    26    73    74    1
    27    84    83    1
    28    88    89    1
    29    83    79   am
    30    77    78    1
    31    74    75   ar
    32    74    76   ar
    33    61    62    1
    34    79    78    1
    35    79    80    2
    36    36    37    1
    37    78    81    1
    38    62    63   ar
    39    62    64   ar
    40    63    65   ar
    41    64    66   ar
    42    37    40    1
    43    37    38    1
    44     4     3    2
    45    81    82    1
    46    65    67   ar
    47    10     8   ar
    48    10    11   ar
    49     8     6   ar
    50    66    67   ar
    51    40    41    1
    52    67    68    1
    53    91    92    1
    54    35    33    1
    55    38    39    2
    56    94    93    2
    57    12    11    1
    58     3     2    1
    59    11     9   ar
    60    43    41   ar
    61    43    45   ar
    62     6     5    1
    63     6     7   ar
    64    41    42   ar
    65     5     2    1
    66     2     1    1
    67    34    33    1
    68    93    92    1
    69    92    95    1
    70    33    32    1
    71    95    96    1
    72    96    97   ar
    73    96    98   ar
    74     9     7   ar
    75    45    44   ar
    76    42    44   ar
    77    32    29    1
    78    29    28    1
    79    29    30    1
    80    31    30    2
    81   101   102    2
    82   101   100    1
    83    99   100    1
    84    18    19    1
    85    18    17    1
    86    20    19    2
    87   100   103    1
    88    19    21   am
    89   106   108   ar
    90   106   104   ar
    91   108   107   ar
    92    17    15   am
    93    21    22    1
    94   104   103    1
    95   104   105   ar
    96    22    23    1
    97    22    25    1
    98    15    16    2
    99    15    14    1
   100    24    23    2
   101   107   105   ar
   102    26    25    1
   103    25    27    1
   104    14    13    1
