@<TRIPOS>MOLECULE
tmp/3mauB00.pdb
 145 138 0 0 0
SMALL
GASTEIGER

@<TRIPOS>ATOM
      1  N         -4.9400  -16.2000   51.3390 N.3    45  SER45      -0.1202
      2  CA        -5.7290  -17.2380   51.9900 C.3    45  SER45       0.2020
      3  C         -5.6560  -18.5140   51.1610 C.2    45  SER45       0.2619
      4  O         -6.0240  -18.5200   49.9890 O.2    45  SER45      -0.2717
      5  CB        -7.1800  -16.7870   52.1240 C.3    45  SER45       0.2103
      6  OG        -8.0390  -17.8890   52.3290 O.3    45  SER45      -0.2182
      7  N         -5.1780  -19.5970   51.7590 N.am   46  GLY46      -0.1942
      8  CA        -4.9890  -20.8210   51.0110 C.3    46  GLY46       0.2014
      9  C         -3.9490  -20.6220   49.9260 C.2    46  GLY46       0.2638
     10  O         -2.8710  -20.0880   50.1870 O.2    46  GLY46      -0.2714
     11  N         -4.2790  -21.0570   48.7130 N.am   47  ALA47      -0.1977
     12  CA        -3.4120  -20.9060   47.5400 C.3    47  ALA47       0.1597
     13  C         -2.0940  -21.6780   47.6180 C.2    47  ALA47       0.2287
     14  O         -1.9320  -22.7030   46.9560 O.2    47  ALA47      -0.2864
     15  CB        -3.1540  -19.4480   47.2520 C.3    47  ALA47       0.0319
     16  N          0.3050  -23.6710   50.2690 N.3    49  TYR49      -0.1241
     17  CA         0.0590  -24.3280   51.5490 C.3    49  TYR49       0.1605
     18  C          1.2860  -24.5010   52.4330 C.2    49  TYR49       0.2264
     19  O          1.1740  -24.5360   53.6550 O.2    49  TYR49      -0.2867
     20  CB        -0.6440  -25.6680   51.3250 C.3    49  TYR49       0.0534
     21  CG        -2.1100  -25.4810   51.0700 C.ar   49  TYR49      -0.0201
     22  CD1       -2.5980  -25.3310   49.7810 C.ar   49  TYR49      -0.0009
     23  CD2       -3.0000  -25.4080   52.1230 C.ar   49  TYR49      -0.0009
     24  CE1       -3.9430  -25.1340   49.5520 C.ar   49  TYR49       0.0417
     25  CE2       -4.3370  -25.2120   51.9090 C.ar   49  TYR49       0.0417
     26  CZ        -4.8080  -25.0750   50.6240 C.ar   49  TYR49       0.1957
     27  OH        -6.1540  -24.8810   50.4260 O.3    49  TYR49      -0.2866
     28  N         -6.8520  -34.0340   41.8910 N.3   111  GLY111     -0.1210
     29  CA        -7.2590  -32.9850   42.8010 C.3   111  GLY111      0.1956
     30  C         -8.5330  -33.3250   43.5320 C.2   111  GLY111      0.2612
     31  O         -9.1800  -34.3130   43.2250 O.2   111  GLY111     -0.2717
     32  N         -8.8950  -32.5030   44.5050 N.am  112  GLY112     -0.1942
     33  CA       -10.1100  -32.7220   45.2660 C.3   112  GLY112      0.2014
     34  C        -11.3270  -32.9320   44.3890 C.2   112  GLY112      0.2639
     35  O        -12.0930  -33.8630   44.5980 O.2   112  GLY112     -0.2714
     36  N        -11.5090  -32.0610   43.4040 N.am  113  THR113     -0.1950
     37  CA       -12.6590  -32.1470   42.5180 C.3   113  THR113      0.1897
     38  C        -12.7570  -33.5120   41.8430 C.2   113  THR113      0.2313
     39  O        -13.8310  -34.1010   41.8230 O.2   113  THR113     -0.2863
     40  CB       -12.6600  -31.0300   41.4510 C.3   113  THR113      0.1794
     41  OG1      -12.8350  -29.7610   42.0860 O.3   113  THR113     -0.2208
     42  CG2      -13.7950  -31.2330   40.4740 C.3   113  THR113      0.0378
     43  N        -13.9120  -36.1900   44.3670 N.3   116  LEU116     -0.1245
     44  CA       -15.3570  -36.0760   44.5480 C.3   116  LEU116      0.1561
     45  C        -16.1360  -36.5900   43.3420 C.2   116  LEU116      0.2260
     46  O        -17.0570  -37.3810   43.4950 O.2   116  LEU116     -0.2867
     47  CB       -15.7510  -34.6310   44.8450 C.3   116  LEU116      0.0270
     48  CG       -15.3190  -34.1480   46.2280 C.3   116  LEU116      0.0019
     49  CD1      -15.6500  -32.6750   46.4350 C.3   116  LEU116      0.0001
     50  CD2      -15.9890  -35.0000   47.2840 C.3   116  LEU116      0.0001
     51  N        -18.8940  -28.8980   49.1060 N.3   145  HIS145     -0.1241
     52  CA       -18.2110  -28.1890   48.0220 C.3   145  HIS145      0.1621
     53  C        -18.9790  -28.1450   46.6850 C.2   145  HIS145      0.2264
     54  O        -19.6970  -29.0800   46.3250 O.2   145  HIS145     -0.2867
     55  CB       -16.7950  -28.7450   47.8090 C.3   145  HIS145      0.0745
     56  CG       -15.9150  -27.8480   46.9960 C.ar  145  HIS145      0.0817
     57  ND1      -15.7660  -27.9830   45.6330 N.ar  145  HIS145     -0.2268
     58  CD2      -15.1540  -26.7870   47.3540 C.ar  145  HIS145      0.1154
     59  CE1      -14.9470  -27.0470   45.1860 C.ar  145  HIS145      0.1986
     60  NE2      -14.5600  -26.3080   46.2100 N.ar  145  HIS145     -0.2212
     61  N        -13.1070  -30.3470   56.9330 N.3   191  PRO191     -0.2102
     62  CA       -14.2410  -29.4410   57.0970 C.3   191  PRO191      0.1504
     63  C        -14.7740  -29.0310   55.7390 C.2   191  PRO191      0.2576
     64  O        -14.1310  -29.2990   54.7220 O.2   191  PRO191     -0.2718
     65  CB       -13.6050  -28.2080   57.7470 C.3   191  PRO191      0.0282
     66  CG       -12.0940  -28.3880   57.6030 C.3   191  PRO191      0.0208
     67  CD       -11.8570  -29.5970   56.7570 C.3   191  PRO191      0.0893
     68  N        -15.9360  -28.3850   55.7280 N.am  192  GLY192     -0.1943
     69  CA       -16.4380  -27.7610   54.5230 C.3   192  GLY192      0.2014
     70  C        -15.5530  -26.5730   54.1980 C.2   192  GLY192      0.2638
     71  O        -14.9220  -26.0020   55.0880 O.2   192  GLY192     -0.2714
     72  N        -15.4930  -26.2010   52.9260 N.am  193  TYR193     -0.1973
     73  CA       -14.6490  -25.0890   52.5140 C.3   193  TYR193      0.1639
     74  C        -15.1540  -23.7310   53.0000 C.2   193  TYR193      0.2290
     75  O        -14.3560  -22.9010   53.4280 O.2   193  TYR193     -0.2864
     76  CB       -14.4620  -25.0960   50.9960 C.3   193  TYR193      0.0560
     77  CG       -13.9140  -23.8120   50.4050 C.ar  193  TYR193     -0.0198
     78  CD1      -14.7670  -22.8010   49.9910 C.ar  193  TYR193     -0.0009
     79  CD2      -12.5510  -23.6250   50.2330 C.ar  193  TYR193     -0.0009
     80  CE1      -14.2810  -21.6270   49.4360 C.ar  193  TYR193      0.0417
     81  CE2      -12.0510  -22.4530   49.6750 C.ar  193  TYR193      0.0417
     82  CZ       -12.9240  -21.4560   49.2790 C.ar  193  TYR193      0.1957
     83  OH       -12.4500  -20.2880   48.7210 O.3   193  TYR193     -0.2866
     84  N        -15.9180  -35.5890   52.5810 N.3   218  ASP218     -0.1239
     85  CA       -15.0880  -34.6380   51.8470 C.3   218  ASP218      0.1674
     86  C        -14.0200  -34.0500   52.7680 C.2   218  ASP218      0.2266
     87  O        -14.1690  -32.9520   53.3010 O.2   218  ASP218     -0.2867
     88  CB       -15.9590  -33.5320   51.2390 C.3   218  ASP218      0.1410
     89  CG       -15.1530  -32.4900   50.4790 C.2   218  ASP218      0.3668
     90  OD1      -15.7020  -31.3910   50.2200 O.co2 218  ASP218     -0.2456
     91  OD2      -13.9830  -32.7660   50.1430 O.co2 218  ASP218     -0.2456
     92  N        -11.0590  -33.2090   51.8240 N.3   220  CYS220     -0.1221
     93  CA       -10.0480  -32.6510   50.9410 C.3   220  CYS220      0.1808
     94  C         -9.2280  -31.5800   51.6530 C.2   220  CYS220      0.2601
     95  O         -8.0320  -31.4360   51.4130 O.2   220  CYS220     -0.2717
     96  CB       -10.6920  -32.0920   49.6750 C.3   220  CYS220      0.0970
     97  SG       -11.2930  -33.3770   48.5540 S.3   220  CYS220     -0.0800
     98  N         -9.8670  -30.8370   52.5430 N.am  221  LEU221     -0.1979
     99  CA        -9.1570  -29.8100   53.2790 C.3   221  LEU221      0.1596
    100  C         -8.5740  -30.3820   54.5660 C.2   221  LEU221      0.2287
    101  O         -7.4490  -30.0630   54.9400 O.2   221  LEU221     -0.2864
    102  CB       -10.0960  -28.6510   53.5910 C.3   221  LEU221      0.0297
    103  CG        -9.4970  -27.2650   53.3400 C.3   221  LEU221      0.0022
    104  CD1       -8.7550  -27.2570   52.0090 C.3   221  LEU221      0.0001
    105  CD2      -10.5700  -26.1830   53.3710 C.3   221  LEU221      0.0001
    106  N         -6.7190  -34.2400   50.0290 N.3   252  ASP252     -0.1239
    107  CA        -5.8310  -33.5630   49.0890 C.3   252  ASP252      0.1674
    108  C         -4.3800  -33.5550   49.5410 C.2   252  ASP252      0.2266
    109  O         -4.0190  -32.8490   50.4820 O.2   252  ASP252     -0.2867
    110  CB        -6.2760  -32.1140   48.8800 C.3   252  ASP252      0.1410
    111  CG        -7.5370  -31.9990   48.0400 C.2   252  ASP252      0.3668
    112  OD1       -8.1220  -33.0590   47.7070 O.co2 252  ASP252     -0.2456
    113  OD2       -7.9350  -30.8440   47.7200 O.co2 252  ASP252     -0.2456
    114  N         -2.1740  -32.2290   47.8380 N.3   254  HIS254     -0.1226
    115  CA        -1.6030  -31.0020   47.3140 C.3   254  HIS254      0.1752
    116  C         -2.0110  -29.8040   48.1640 C.2   254  HIS254      0.2595
    117  O         -1.4800  -28.7090   48.0150 O.2   254  HIS254     -0.2718
    118  CB        -1.9480  -30.8020   45.8320 C.3   254  HIS254      0.0759
    119  CG        -3.3670  -30.4030   45.5780 C.ar  254  HIS254      0.0818
    120  ND1       -3.8690  -30.2260   44.3050 N.ar  254  HIS254     -0.2268
    121  CD2       -4.3950  -30.1610   46.4230 C.ar  254  HIS254      0.1154
    122  CE1       -5.1350  -29.8670   44.3810 C.ar  254  HIS254      0.1986
    123  NE2       -5.4820  -29.8260   45.6560 N.ar  254  HIS254     -0.2212
    124  N         -2.9520  -30.0330   49.0700 N.am  255  ALA255     -0.1980
    125  CA        -3.3590  -29.0120   50.0190 C.3   255  ALA255      0.1597
    126  C         -2.4770  -29.0950   51.2550 C.2   255  ALA255      0.2287
    127  O         -1.3120  -28.6890   51.2250 O.2   255  ALA255     -0.2864
    128  CB        -4.8190  -29.1860   50.3940 C.3   255  ALA255      0.0319
    129  N          1.0120  -29.0160   43.5010 N.3   261  LYS261     -0.1245
    130  CA        -0.3650  -28.9530   43.0160 C.3   261  LYS261      0.1561
    131  C         -0.6420  -30.0010   41.9450 C.2   261  LYS261      0.2260
    132  O          0.1650  -30.1940   41.0370 O.2   261  LYS261     -0.2867
    133  CB        -0.6780  -27.5540   42.4800 C.3   261  LYS261      0.0271
    134  CG        -0.5860  -26.4570   43.5150 C.3   261  LYS261      0.0035
    135  CD        -1.9310  -26.1710   44.1530 C.3   261  LYS261      0.0206
    136  CE        -2.1410  -26.9440   45.4420 C.3   261  LYS261      0.1093
    137  NZ        -3.4470  -26.5860   46.0700 N.3   261  LYS261     -0.1314
    138  N        -10.9220  -14.5990   50.4260 N.3   376  ASN376     -0.1240
    139  CA       -12.0270  -15.2460   49.7290 C.3   376  ASN376      0.1653
    140  C        -13.3720  -14.6410   50.0960 C.2   376  ASN376      0.2266
    141  O        -13.7220  -14.5450   51.2680 O.2   376  ASN376     -0.2867
    142  CB       -12.0350  -16.7460   50.0190 C.3   376  ASN376      0.1155
    143  CG       -10.8880  -17.4840   49.3400 C.2   376  ASN376      0.2627
    144  OD1      -10.2400  -18.3420   49.9460 O.2   376  ASN376     -0.2716
    145  ND2      -10.6350  -17.1570   48.0740 N.am  376  ASN376     -0.0877
@<TRIPOS>BOND
     1    42    40    1
     2   132   131    2
     3    40    41    1
     4    40    37    1
     5    39    38    2
     6    38    37    1
     7    28    29    1
     8   131   130    1
     9   133   130    1
    10   133   134    1
    11    37    36    1
    12    29    30    1
    13   130   129    1
    14    31    30    2
    15    45    46    2
    16    45    44    1
    17    36    34   am
    18   134   135    1
    19    30    32   am
    20   135   136    1
    21   120   122   ar
    22   120   119   ar
    23    43    44    1
    24   122   123   ar
    25    34    35    2
    26    34    33    1
    27    32    33    1
    28    44    47    1
    29    47    48    1
    30    59    57   ar
    31    59    60   ar
    32   136   137    1
    33   119   118    1
    34   119   121   ar
    35    57    56   ar
    36   123   121   ar
    37   118   115    1
    38    60    58   ar
    39    48    49    1
    40    48    50    1
    41    54    53    2
    42    53    52    1
    43    14    13    2
    44    56    58   ar
    45    56    55    1
    46    15    12    1
    47   115   114    1
    48   115   116    1
    49    12    13    1
    50    12    11    1
    51   112   111   ar
    52   113   111   ar
    53    55    52    1
    54   117   116    2
    55    52    51    1
    56   111   110    1
    57   145   143   am
    58   116   124   am
    59    97    96    1
    60    11     9   am
    61    83    82    1
    62   110   107    1
    63   124   125    1
    64   107   108    1
    65   107   106    1
    66    82    80   ar
    67    82    81   ar
    68   143   144    2
    69   143   142    1
    70    80    78   ar
    71   108   109    2
    72    24    22   ar
    73    24    26   ar
    74    96    93    1
    75    81    79   ar
    76   139   142    1
    77   139   140    1
    78   139   138    1
    79    22    21   ar
    80     9    10    2
    81     9     8    1
    82     4     3    2
    83    78    77   ar
    84   125   128    1
    85   125   126    1
    86   140   141    2
    87    91    89   ar
    88    90    89   ar
    89    79    77   ar
    90    16    17    1
    91    77    76    1
    92    27    26    1
    93    89    88    1
    94    26    25   ar
    95    93    94    1
    96    93    92    1
    97    76    73    1
    98     8     7    1
    99    21    20    1
   100    21    23   ar
   101     3     7   am
   102     3     2    1
   103   127   126    2
   104    88    85    1
   105    20    17    1
   106     1     2    1
   107    95    94    2
   108    17    18    1
   109    94    98   am
   110    85    84    1
   111    85    86    1
   112    25    23   ar
   113     2     5    1
   114   104   103    1
   115     5     6    1
   116    18    19    2
   117    73    72    1
   118    73    74    1
   119    98    99    1
   120    86    87    2
   121    72    70   am
   122    74    75    2
   123    99   102    1
   124    99   100    1
   125   103   105    1
   126   103   102    1
   127    70    69    1
   128    70    71    2
   129    69    68    1
   130   100   101    2
   131    64    63    2
   132    68    63   am
   133    63    62    1
   134    67    61    1
   135    67    66    1
   136    61    62    1
   137    62    65    1
   138    66    65    1
