@<TRIPOS>MOLECULE
tmp/3maxC00.pdb
 194 187 0 0 0
SMALL
GASTEIGER

@<TRIPOS>ATOM
      1  N         53.8810    5.2040  -48.4470 N.3    17  TYR17      -0.1241
      2  CA        53.7620    5.2190  -46.9770 C.3    17  TYR17       0.1605
      3  C         53.4900    3.8320  -46.3420 C.2    17  TYR17       0.2264
      4  O         53.7890    3.6100  -45.1640 O.2    17  TYR17      -0.2867
      5  CB        52.6880    6.2340  -46.5290 C.3    17  TYR17       0.0534
      6  CG        53.1840    7.6550  -46.3360 C.ar   17  TYR17      -0.0201
      7  CD1       53.0940    8.2780  -45.0840 C.ar   17  TYR17      -0.0009
      8  CD2       53.7190    8.3890  -47.3980 C.ar   17  TYR17      -0.0009
      9  CE1       53.5480    9.5860  -44.8960 C.ar   17  TYR17       0.0417
     10  CE2       54.1800    9.6950  -47.2140 C.ar   17  TYR17       0.0417
     11  CZ        54.0780   10.2820  -45.9600 C.ar   17  TYR17       0.1957
     12  OH        54.5100   11.5660  -45.7480 O.3    17  TYR17      -0.2866
     13  N         47.9420    8.7400  -46.8020 N.3    23  MET23      -0.1245
     14  CA        48.7980    9.6280  -47.5890 C.3    23  MET23       0.1570
     15  C         49.3100    8.9100  -48.8360 C.2    23  MET23       0.2261
     16  O         50.0830    7.9510  -48.7530 O.2    23  MET23      -0.2867
     17  CB        49.9590   10.2080  -46.7620 C.3    23  MET23       0.0387
     18  CG        50.9210   11.1080  -47.5740 C.3    23  MET23       0.0595
     19  SD        50.1460   12.4730  -48.4960 S.3    23  MET23      -0.1393
     20  CE        49.6720   13.5500  -47.1390 C.3    23  MET23       0.0692
     21  N         49.0530   11.0680  -55.6840 N.3    27  ARG27      -0.1231
     22  CA        48.1020   12.1640  -55.9450 C.3    27  ARG27       0.1694
     23  C         48.8000   13.3950  -56.5810 C.2    27  ARG27       0.2591
     24  O         48.1580   14.1770  -57.2960 O.2    27  ARG27      -0.2718
     25  CB        47.3590   12.5390  -54.6480 C.3    27  ARG27       0.0321
     26  CG        48.2010   13.3890  -53.6870 C.3    27  ARG27       0.0489
     27  CD        47.8090   13.2990  -52.2140 C.3    27  ARG27       0.2205
     28  NE        48.8630   13.9810  -51.4630 N.pl3  27  ARG27      -0.0865
     29  CZ        48.7000   15.0400  -50.6750 C.cat  27  ARG27       0.5346
     30  NH1       47.4840   15.5140  -50.4190 N.pl3  27  ARG27       0.1354
     31  NH2       49.7730   15.5910  -50.0930 N.pl3  27  ARG27       0.1354
     32  N         50.1070   13.5580  -56.3250 N.am   28  ILE28      -0.1980
     33  CA        50.8690   14.6580  -56.9450 C.3    28  ILE28       0.1595
     34  C         51.0710   14.3740  -58.4470 C.2    28  ILE28       0.2287
     35  O         50.9440   15.2670  -59.2920 O.2    28  ILE28      -0.2864
     36  CB        52.2380   14.9070  -56.2480 C.3    28  ILE28       0.0276
     37  CG1       52.0750   15.0070  -54.7190 C.3    28  ILE28       0.0022
     38  CG2       52.9400   16.1490  -56.8280 C.3    28  ILE28       0.0022
     39  CD1       51.1740   16.1340  -54.2450 C.3    28  ILE28       0.0001
     40  N         51.9020    6.8450  -37.1710 N.3    92  ASP92      -0.1239
     41  CA        51.2190    7.6900  -38.1430 C.3    92  ASP92       0.1674
     42  C         52.2060    8.3060  -39.1360 C.2    92  ASP92       0.2266
     43  O         51.8280    8.6650  -40.2440 O.2    92  ASP92      -0.2867
     44  CB        50.3620    8.7540  -37.4340 C.3    92  ASP92       0.1410
     45  CG        48.9680    8.2320  -37.0630 C.2    92  ASP92       0.3668
     46  OD1       48.7460    6.9880  -37.0820 O.co2  92  ASP92      -0.2456
     47  OD2       48.0790    9.0670  -36.7640 O.co2  92  ASP92      -0.2456
     48  N         62.2050   11.5110  -50.1880 N.3   102  PHE102     -0.1241
     49  CA        60.8500   12.0730  -50.2270 C.3   102  PHE102      0.1605
     50  C         60.8360   13.4560  -49.5430 C.2   102  PHE102      0.2264
     51  O         60.3100   14.4290  -50.0990 O.2   102  PHE102     -0.2867
     52  CB        59.8350   11.1090  -49.5920 C.3   102  PHE102      0.0534
     53  CG        58.4220   11.6370  -49.5700 C.ar  102  PHE102     -0.0203
     54  CD1       57.8420   12.0590  -48.3660 C.ar  102  PHE102     -0.0042
     55  CD2       57.6710   11.7180  -50.7490 C.ar  102  PHE102     -0.0042
     56  CE1       56.5260   12.5510  -48.3320 C.ar  102  PHE102     -0.0003
     57  CE2       56.3520   12.2110  -50.7330 C.ar  102  PHE102     -0.0003
     58  CZ        55.7770   12.6340  -49.5140 C.ar  102  PHE102     -0.0000
     59  N         53.6980   19.3200  -54.0560 N.3   129  ALA129     -0.1231
     60  CA        54.2990   18.3060  -53.1710 C.3   129  ALA129      0.1694
     61  C         54.6120   18.8600  -51.7650 C.2   129  ALA129      0.2593
     62  O         54.8800   18.0950  -50.8470 O.2   129  ALA129     -0.2718
     63  CB        55.5660   17.7330  -53.7990 C.3   129  ALA129      0.0304
     64  N         54.5980   20.1890  -51.6000 N.am  130  GLY130     -0.1942
     65  CA        54.9250   20.7890  -50.3000 C.3   130  GLY130      0.2014
     66  C         53.7170   21.0290  -49.3980 C.2   130  GLY130      0.2639
     67  O         52.6490   20.4300  -49.6100 O.2   130  GLY130     -0.2714
     68  N         53.8970   21.9070  -48.4000 N.am  131  GLY131     -0.1939
     69  CA        52.8570   22.2470  -47.4110 C.3   131  GLY131      0.2014
     70  C         52.7600   21.3260  -46.1890 C.2   131  GLY131      0.2639
     71  O         51.6730   21.1660  -45.6010 O.2   131  GLY131     -0.2714
     72  N         53.8920   20.7390  -45.7900 N.am  132  LEU132     -0.1963
     73  CA        53.9390   19.7880  -44.6780 C.3   132  LEU132      0.1728
     74  C         53.9030   20.5130  -43.3220 C.2   132  LEU132      0.2616
     75  O         54.9060   20.5790  -42.5870 O.2   132  LEU132     -0.2715
     76  CB        55.1540   18.8750  -44.8130 C.3   132  LEU132      0.0311
     77  CG        55.0260   17.7850  -45.8850 C.3   132  LEU132      0.0022
     78  CD1       55.1170   18.3470  -47.3160 C.3   132  LEU132      0.0001
     79  CD2       56.1150   16.7780  -45.6620 C.3   132  LEU132      0.0001
     80  N         52.7250   21.0290  -42.9790 N.am  133  HIS133     -0.1959
     81  CA        52.6480   22.0630  -41.9380 C.3   133  HIS133      0.1787
     82  C         52.7820   21.5810  -40.4950 C.2   133  HIS133      0.2620
     83  O         52.9990   22.3910  -39.5870 O.2   133  HIS133     -0.2715
     84  CB        51.4030   22.9640  -42.1540 C.3   133  HIS133      0.0785
     85  CG        50.0890   22.2510  -42.0330 C.ar  133  HIS133      0.0821
     86  ND1       48.8860   22.9280  -41.9920 N.ar  133  HIS133     -0.2267
     87  CD2       49.7840   20.9330  -41.9330 C.ar  133  HIS133      0.1154
     88  CE1       47.8970   22.0580  -41.8820 C.ar  133  HIS133      0.1986
     89  NE2       48.4140   20.8400  -41.8570 N.ar  133  HIS133     -0.2212
     90  N         52.6880   20.2590  -40.3040 N.am  134  HIS134     -0.1973
     91  CA        52.7490   19.6390  -38.9700 C.3   134  HIS134      0.1656
     92  C         54.1500   19.3610  -38.4230 C.2   134  HIS134      0.2291
     93  O         54.3160   19.2440  -37.2080 O.2   134  HIS134     -0.2864
     94  CB        51.9660   18.3050  -38.9490 C.3   134  HIS134      0.0771
     95  CG        50.4970   18.4500  -39.2080 C.ar  134  HIS134      0.0820
     96  ND1       49.7140   19.4000  -38.5680 N.ar  134  HIS134     -0.2267
     97  CD2       49.6610   17.7490  -40.0140 C.ar  134  HIS134      0.1154
     98  CE1       48.4630   19.2820  -38.9820 C.ar  134  HIS134      0.1986
     99  NE2       48.4040   18.2850  -39.8530 N.ar  134  HIS134     -0.2212
    100  N         51.6560   13.9800  -37.9070 N.3   142  GLY142     -0.1210
    101  CA        50.5650   14.0150  -38.8920 C.3   142  GLY142      0.1956
    102  C         51.0020   13.7650  -40.3310 C.2   142  GLY142      0.2612
    103  O         50.5540   14.4550  -41.2500 O.2   142  GLY142     -0.2717
    104  N         51.8750   12.7730  -40.5210 N.am  143  PHE143     -0.1962
    105  CA        52.3580   12.3500  -41.8530 C.3   143  PHE143      0.1771
    106  C         53.4780   13.2580  -42.3820 C.2   143  PHE143      0.2619
    107  O         54.0110   13.0000  -43.4640 O.2   143  PHE143     -0.2715
    108  CB        51.2340   12.2920  -42.9220 C.3   143  PHE143      0.0574
    109  CG        49.9150   11.6760  -42.4490 C.ar  143  PHE143     -0.0200
    110  CD1       49.8680   10.7200  -41.4230 C.ar  143  PHE143     -0.0042
    111  CD2       48.7210   12.0290  -43.0800 C.ar  143  PHE143     -0.0042
    112  CE1       48.6400   10.1730  -41.0100 C.ar  143  PHE143     -0.0003
    113  CE2       47.4900   11.4740  -42.6720 C.ar  143  PHE143     -0.0003
    114  CZ        47.4540   10.5590  -41.6330 C.ar  143  PHE143     -0.0000
    115  N         53.8180   14.3070  -41.6210 N.am  144  CYS144     -0.1968
    116  CA        54.8360   15.2850  -42.0110 C.3   144  CYS144      0.1712
    117  C         56.1540   15.0390  -41.2900 C.2   144  CYS144      0.2296
    118  O         56.1570   14.8310  -40.0760 O.2   144  CYS144     -0.2864
    119  CB        54.3510   16.7030  -41.6840 C.3   144  CYS144      0.0983
    120  SG        52.8340   17.1370  -42.5180 S.3   144  CYS144     -0.0798
    121  N         44.1320   24.3570  -45.2050 N.3   169  ASP169     -0.1239
    122  CA        44.0980   22.9170  -44.8610 C.3   169  ASP169      0.1674
    123  C         43.0460   22.7490  -43.7550 C.2   169  ASP169      0.2266
    124  O         42.8110   23.6880  -42.9530 O.2   169  ASP169     -0.2867
    125  CB        45.4780   22.5170  -44.3280 C.3   169  ASP169      0.1410
    126  CG        45.6450   21.0070  -44.1820 C.2   169  ASP169      0.3668
    127  OD1       46.3420   20.3960  -45.0140 O.co2 169  ASP169     -0.2456
    128  OD2       45.0630   20.4470  -43.2430 O.co2 169  ASP169     -0.2456
    129  N         43.2940   21.0910  -41.1580 N.3   171  HIS171     -0.1241
    130  CA        43.9830   21.0070  -39.8690 C.3   171  HIS171      0.1621
    131  C         44.7310   22.3020  -39.5590 C.2   171  HIS171      0.2264
    132  O         45.1670   23.0160  -40.4730 O.2   171  HIS171     -0.2867
    133  CB        44.9720   19.8370  -39.8610 C.3   171  HIS171      0.0745
    134  CG        44.3360   18.5090  -40.1350 C.ar  171  HIS171      0.0817
    135  ND1       44.3850   17.9000  -41.3760 N.ar  171  HIS171     -0.2268
    136  CD2       43.6310   17.6750  -39.3290 C.ar  171  HIS171      0.1154
    137  CE1       43.7330   16.7450  -41.3170 C.ar  171  HIS171      0.1986
    138  NE2       43.2710   16.5820  -40.0870 N.ar  171  HIS171     -0.2212
    139  N         42.7150   16.3910  -34.6100 N.3   198  PHE198     -0.1241
    140  CA        44.1450   16.5850  -34.7970 C.3   198  PHE198      0.1605
    141  C         44.4410   18.0060  -35.3030 C.2   198  PHE198      0.2264
    142  O         43.6990   18.5320  -36.1350 O.2   198  PHE198     -0.2867
    143  CB        44.6770   15.5550  -35.7970 C.3   198  PHE198      0.0534
    144  CG        46.1740   15.4860  -35.8560 C.ar  198  PHE198     -0.0203
    145  CD1       46.8890   16.2620  -36.7710 C.ar  198  PHE198     -0.0042
    146  CD2       46.8770   14.6550  -34.9870 C.ar  198  PHE198     -0.0042
    147  CE1       48.2820   16.2060  -36.8170 C.ar  198  PHE198     -0.0003
    148  CE2       48.2720   14.5880  -35.0330 C.ar  198  PHE198     -0.0003
    149  CZ        48.9690   15.3670  -35.9510 C.ar  198  PHE198     -0.0000
    150  N         49.0830   27.8030  -48.0510 N.3   253  GLN253     -0.1245
    151  CA        49.0540   26.3460  -47.9780 C.3   253  GLN253      0.1566
    152  C         47.6430   25.9460  -48.3910 C.2   253  GLN253      0.2260
    153  O         46.6700   26.3920  -47.7740 O.2   253  GLN253     -0.2867
    154  CB        49.4000   25.8720  -46.5620 C.3   253  GLN253      0.0367
    155  CG        49.7810   24.3680  -46.4550 C.3   253  GLN253      0.0905
    156  CD        48.6080   23.4740  -46.1340 C.2   253  GLN253      0.2608
    157  OE1       47.4450   23.8380  -46.3780 O.2   253  GLN253     -0.2717
    158  NE2       48.8920   22.2840  -45.5760 N.am  253  GLN253     -0.0878
    159  N         42.3280   18.6370  -47.9230 N.3   257  ASP257     -0.1239
    160  CA        41.5030   17.8190  -47.0150 C.3   257  ASP257      0.1674
    161  C         40.3170   18.5990  -46.4130 C.2   257  ASP257      0.2266
    162  O         39.5140   18.0460  -45.6410 O.2   257  ASP257     -0.2867
    163  CB        42.3590   17.1340  -45.9310 C.3   257  ASP257      0.1410
    164  CG        43.3450   18.0960  -45.2580 C.2   257  ASP257      0.3668
    165  OD1       43.2750   19.3290  -45.4860 O.co2 257  ASP257     -0.2456
    166  OD2       44.2090   17.6040  -44.5000 O.co2 257  ASP257     -0.2456
    167  N         39.4850   11.9020  -44.8400 N.3   264  LEU264     -0.1245
    168  CA        39.8030   12.2110  -43.4450 C.3   264  LEU264      0.1561
    169  C         39.1270   13.4850  -42.9150 C.2   264  LEU264      0.2260
    170  O         38.9440   13.6380  -41.7090 O.2   264  LEU264     -0.2867
    171  CB        41.3290   12.2800  -43.2570 C.3   264  LEU264      0.0270
    172  CG        42.1100   10.9660  -43.4950 C.3   264  LEU264      0.0019
    173  CD1       43.6000   11.1550  -43.2560 C.3   264  LEU264      0.0001
    174  CD2       41.5750    9.8400  -42.6220 C.3   264  LEU264      0.0001
    175  N         49.3700   20.1670  -49.4600 N.3   293  GLY293     -0.1210
    176  CA        49.0080   19.8720  -48.0690 C.3   293  GLY293      0.1956
    177  C         48.2360   18.5630  -47.9820 C.2   293  GLY293      0.2612
    178  O         48.5120   17.6290  -48.7380 O.2   293  GLY293     -0.2717
    179  N         47.2820   18.4920  -47.0560 N.am  294  GLY294     -0.1956
    180  CA        46.4210   17.3230  -46.9170 C.3   294  GLY294      0.1869
    181  C         45.5720   17.0860  -48.1490 C.2   294  GLY294      0.2309
    182  O         45.5700   17.8890  -49.0830 O.2   294  GLY294     -0.2863
    183  N         42.9050   13.4190  -49.0840 N.3   296  TYR296     -0.1241
    184  CA        42.8950   11.9500  -49.0030 C.3   296  TYR296      0.1605
    185  C         41.9230   11.2510  -49.9590 C.2   296  TYR296      0.2264
    186  O         41.9570   10.0140  -50.1130 O.2   296  TYR296     -0.2867
    187  CB        42.7920   11.5170  -47.5290 C.3   296  TYR296      0.0534
    188  CG        43.8940   12.2150  -46.7550 C.ar  296  TYR296     -0.0201
    189  CD1       43.6610   13.4420  -46.0780 C.ar  296  TYR296     -0.0009
    190  CD2       45.1900   11.7250  -46.8000 C.ar  296  TYR296     -0.0009
    191  CE1       44.7150   14.1120  -45.4140 C.ar  296  TYR296      0.0417
    192  CE2       46.2340   12.3710  -46.1500 C.ar  296  TYR296      0.0417
    193  CZ        45.9930   13.5600  -45.4640 C.ar  296  TYR296      0.1957
    194  OH        47.0650   14.1580  -44.8490 O.3   296  TYR296     -0.2866
@<TRIPOS>BOND
     1    35    34    2
     2    34    33    1
     3    24    23    2
     4    33    32    1
     5    33    36    1
     6    38    36    1
     7    23    32   am
     8    23    22    1
     9    36    37    1
    10    22    21    1
    11    22    25    1
    12    37    39    1
    13    25    26    1
    14    59    60    1
    15    63    60    1
    16    26    27    1
    17    60    61    1
    18    27    28    1
    19    61    64   am
    20    61    62    2
    21    64    65    1
    22    28    29    2
    23    55    57   ar
    24    55    53   ar
    25    57    58   ar
    26    29    30    1
    27    29    31    1
    28    65    66    1
    29    49    48    1
    30    49    52    1
    31    49    50    1
    32   186   185    2
    33    51    50    2
    34   185   184    1
    35    67    66    2
    36    52    53    1
    37    53    54   ar
    38    58    56   ar
    39   175   176    1
    40    66    68   am
    41   183   184    1
    42   182   181    2
    43   184   187    1
    44    15    16    2
    45    15    14    1
    46   178   177    2
    47    19    18    1
    48    19    20    1
    49     1     2    1
    50    68    69    1
    51   152   151    1
    52   152   153    2
    53    54    56   ar
    54   181   180    1
    55   176   177    1
    56   150   151    1
    57   177   179   am
    58   151   154    1
    59   159   160    1
    60    14    13    1
    61    14    17    1
    62    18    17    1
    63   187   188    1
    64    69    70    1
    65     8    10   ar
    66     8     6   ar
    67    78    77    1
    68    10    11   ar
    69   179   180    1
    70   160   161    1
    71   160   163    1
    72     2     5    1
    73     2     3    1
    74   190   188   ar
    75   190   192   ar
    76   188   189   ar
    77   154   155    1
    78     5     6    1
    79   155   156    1
    80   161   162    2
    81   157   156    2
    82     3     4    2
    83     6     7   ar
    84    70    72   am
    85    70    71    2
    86   192   193   ar
    87   156   158   am
    88   189   191   ar
    89    11    12    1
    90    11     9   ar
    91   163   164    1
    92    77    79    1
    93    77    76    1
    94    72    73    1
    95   165   164   ar
    96   193   191   ar
    97   193   194    1
    98   164   166   ar
    99   121   122    1
   100     7     9   ar
   101   127   126   ar
   102   122   125    1
   103   122   123    1
   104   167   168    1
   105    76    73    1
   106    73    74    1
   107   125   126    1
   108   126   128   ar
   109   123   124    2
   110   172   171    1
   111   172   173    1
   112   172   174    1
   113   107   106    2
   114   168   171    1
   115   168   169    1
   116    74    80   am
   117    74    75    2
   118   111   113   ar
   119   111   109   ar
   120    80    81    1
   121   108   109    1
   122   108   105    1
   123   169   170    2
   124   113   114   ar
   125   120   119    1
   126   109   110   ar
   127   106   105    1
   128   106   115   am
   129    84    85    1
   130    84    81    1
   131    85    86   ar
   132    85    87   ar
   133   116   119    1
   134   116   115    1
   135   116   117    1
   136    86    88   ar
   137    81    82    1
   138    87    89   ar
   139    88    89   ar
   140   105   104    1
   141   114   112   ar
   142   110   112   ar
   143   135   137   ar
   144   135   134   ar
   145   137   138   ar
   146   117   118    2
   147   103   102    2
   148   129   130    1
   149   104   102   am
   150    82    90   am
   151    82    83    2
   152   132   131    2
   153   102   101    1
   154    90    91    1
   155    43    42    2
   156   134   133    1
   157   134   136   ar
   158   138   136   ar
   159    97    99   ar
   160    97    95   ar
   161   130   133    1
   162   130   131    1
   163    99    98   ar
   164    95    94    1
   165    95    96   ar
   166    42    41    1
   167    98    96   ar
   168    91    94    1
   169    91    92    1
   170   101   100    1
   171    92    93    2
   172    41    44    1
   173    41    40    1
   174    44    45    1
   175    46    45   ar
   176    45    47   ar
   177   147   145   ar
   178   147   149   ar
   179   145   144   ar
   180   142   141    2
   181   149   148   ar
   182   144   143    1
   183   144   146   ar
   184   143   140    1
   185   141   140    1
   186   148   146   ar
   187   140   139    1
