@<TRIPOS>MOLECULE
tmp/3mazA00.pdb
 212 205 0 0 0
SMALL
GASTEIGER

@<TRIPOS>ATOM
      1  N        -22.5180    4.2100   17.7480 N.3    14  ARG14      -0.1245
      2  CA       -23.4520    4.1250   16.6480 C.3    14  ARG14       0.1563
      3  C        -24.6630    3.2650   17.0460 C.2    14  ARG14       0.2260
      4  O        -25.7980    3.6170   16.7380 O.2    14  ARG14      -0.2867
      5  CB       -22.7560    3.5200   15.4400 C.3    14  ARG14       0.0307
      6  CG       -23.7200    3.0980   14.3600 C.3    14  ARG14       0.0489
      7  CD       -23.0110    2.4030   13.2020 C.3    14  ARG14       0.2205
      8  NE       -22.4230    3.3550   12.2730 N.pl3  14  ARG14      -0.0865
      9  CZ       -22.5770    3.2950   10.9560 C.cat  14  ARG14       0.5346
     10  NH1      -23.3030    2.3210   10.4210 N.pl3  14  ARG14       0.1354
     11  NH2      -22.0180    4.2080   10.1810 N.pl3  14  ARG14       0.1354
     12  N        -22.8660   12.5020   17.6860 N.3    33  ARG33      -0.1245
     13  CA       -22.0190   11.6870   18.5520 C.3    33  ARG33       0.1563
     14  C        -20.5690   11.7100   18.0950 C.2    33  ARG33       0.2260
     15  O        -20.2450   12.1690   16.9820 O.2    33  ARG33      -0.2867
     16  CB       -22.5350   10.2250   18.5710 C.3    33  ARG33       0.0307
     17  CG       -22.5470    9.5730   17.1920 C.3    33  ARG33       0.0489
     18  CD       -23.3230    8.2390   17.1510 C.3    33  ARG33       0.2205
     19  NE       -23.4230    7.8010   15.7610 N.pl3  33  ARG33      -0.0865
     20  CZ       -22.4310    7.2610   15.0610 C.cat  33  ARG33       0.5346
     21  NH1      -21.2360    7.0520   15.6230 N.pl3  33  ARG33       0.1354
     22  NH2      -22.6160    6.9880   13.7720 N.pl3  33  ARG33       0.1354
     23  N        -17.1980   10.6950   16.4480 N.3    35  GLY35      -0.1210
     24  CA       -16.9930    9.8610   15.2850 C.3    35  GLY35       0.1956
     25  C        -16.0950    8.7160   15.7010 C.2    35  GLY35       0.2612
     26  O        -15.0810    8.9530   16.3640 O.2    35  GLY35      -0.2717
     27  N        -16.4710    7.4810   15.3550 N.am   36  SER36      -0.1952
     28  CA       -15.6440    6.3140   15.6900 C.3    36  SER36       0.1924
     29  C        -14.2600    6.4440   15.0350 C.2    36  SER36       0.2314
     30  O        -14.1440    6.8210   13.8620 O.2    36  SER36      -0.2863
     31  CB       -16.3040    5.0140   15.2020 C.3    36  SER36       0.2116
     32  OG       -17.5050    4.7430   15.8930 O.3    36  SER36      -0.2180
     33  N        -20.2340   12.2450   14.0490 N.3    42  SER42      -0.1217
     34  CA       -21.2070   11.5230   13.2490 C.3    42  SER42       0.1889
     35  C        -22.6100   11.9590   13.6540 C.2    42  SER42       0.2288
     36  O        -22.8730   12.3040   14.8100 O.2    42  SER42      -0.2866
     37  CB       -21.0790   10.0100   13.4650 C.3    42  SER42       0.2089
     38  OG       -19.8010    9.5670   13.0580 O.3    42  SER42      -0.2183
     39  N        -29.5500    9.5220   12.2430 N.3    45  ILE45      -0.1245
     40  CA       -30.9430    9.9450   12.1880 C.3    45  ILE45       0.1561
     41  C        -31.8670    8.7310   11.9860 C.2    45  ILE45       0.2260
     42  O        -31.4240    7.6670   11.5460 O.2    45  ILE45      -0.2867
     43  CB       -31.1870   10.9370   11.0220 C.3    45  ILE45       0.0252
     44  CG1      -30.9450   10.2550    9.6670 C.3    45  ILE45       0.0019
     45  CG2      -30.2560   12.1720   11.1730 C.3    45  ILE45       0.0019
     46  CD1      -31.2790   11.1640    8.4670 C.3    45  ILE45       0.0001
     47  N        -35.4590    8.3880   10.1160 N.3    47  GLN47      -0.1231
     48  CA       -36.5460    9.0110    9.3700 C.3    47  GLN47       0.1698
     49  C        -37.6600    8.0040    9.0870 C.2    47  GLN47       0.2592
     50  O        -37.4140    6.8000    8.9630 O.2    47  GLN47      -0.2718
     51  CB       -36.0410    9.5820    8.0520 C.3    47  GLN47       0.0381
     52  CG       -35.3410   10.9180    8.1940 C.3    47  GLN47       0.0905
     53  CD       -34.9070   11.4670    6.8460 C.2    47  GLN47       0.2608
     54  OE1      -34.2340   10.7750    6.0600 O.2    47  GLN47      -0.2717
     55  NE2      -35.2860   12.7110    6.5680 N.am   47  GLN47      -0.0878
     56  N        -38.8840    8.5060    9.0160 N.am   48  GLU48      -0.1966
     57  CA       -40.0540    7.6750    8.7500 C.3    48  GLU48       0.1733
     58  C        -40.8370    8.2810    7.6020 C.2    48  GLU48       0.2616
     59  O        -42.0500    8.4940    7.7110 O.2    48  GLU48      -0.2715
     60  CB       -40.9670    7.5870    9.9830 C.3    48  GLU48       0.0429
     61  CG       -40.3390    6.8910   11.1860 C.3    48  GLU48       0.1163
     62  CD       -41.3140    6.7120   12.3480 C.2    48  GLU48       0.3649
     63  OE1      -41.8570    7.7350   12.8350 O.co2  48  GLU48      -0.2457
     64  OE2      -41.5260    5.5480   12.7740 O.co2  48  GLU48      -0.2457
     65  N        -40.1350    8.5700    6.5110 N.am   49  ILE49      -0.1977
     66  CA       -40.7680    9.1420    5.3340 C.3    49  ILE49       0.1596
     67  C        -41.5750    8.0340    4.6430 C.2    49  ILE49       0.2287
     68  O        -42.8100    8.1280    4.5760 O.2    49  ILE49      -0.2864
     69  CB       -39.6960    9.7950    4.4230 C.3    49  ILE49       0.0276
     70  CG1      -39.2370   11.1100    5.0840 C.3    49  ILE49       0.0022
     71  CG2      -40.2530   10.0650    3.0430 C.3    49  ILE49       0.0022
     72  CD1      -38.0800   11.7660    4.4250 C.3    49  ILE49       0.0001
     73  N        -32.5800    4.0500    9.4380 N.3    54  ILE54      -0.1231
     74  CA       -31.5170    4.6410   10.2570 C.3    54  ILE54       0.1692
     75  C        -30.3910    4.9900    9.2890 C.2    54  ILE54       0.2592
     76  O        -29.9750    4.1640    8.4670 O.2    54  ILE54      -0.2718
     77  CB       -30.9750    3.6650   11.3360 C.3    54  ILE54       0.0266
     78  CG1      -32.0810    3.3100   12.3370 C.3    54  ILE54       0.0019
     79  CG2      -29.7590    4.2890   12.0470 C.3    54  ILE54       0.0020
     80  CD1      -32.6540    4.4890   13.1170 C.3    54  ILE54       0.0001
     81  N        -29.9200    6.2320    9.3580 N.am   55  LYS55      -0.1966
     82  CA       -28.8540    6.6920    8.4750 C.3    55  LYS55       0.1728
     83  C        -27.7880    7.4360    9.2860 C.2    55  LYS55       0.2616
     84  O        -28.1100    8.0920   10.2820 O.2    55  LYS55      -0.2715
     85  CB       -29.4360    7.6020    7.3890 C.3    55  LYS55       0.0311
     86  CG       -30.2580    6.8350    6.3670 C.3    55  LYS55       0.0038
     87  CD       -30.9590    7.7470    5.3670 C.3    55  LYS55       0.0206
     88  CE       -31.7010    6.9080    4.3310 C.3    55  LYS55       0.1093
     89  NZ       -32.2340    7.7500    3.2330 N.3    55  LYS55      -0.1314
     90  N        -26.5340    7.3040    8.8650 N.am   56  HIS56      -0.1959
     91  CA       -25.4150    7.9380    9.5560 C.3    56  HIS56       0.1787
     92  C        -24.6430    8.8130    8.6060 C.2    56  HIS56       0.2620
     93  O        -24.4230    8.4460    7.4420 O.2    56  HIS56      -0.2715
     94  CB       -24.4820    6.8820   10.1420 C.3    56  HIS56       0.0785
     95  CG       -25.1920    5.8300   10.9280 C.ar   56  HIS56       0.0821
     96  ND1      -25.6090    6.0230   12.2290 N.ar   56  HIS56      -0.2267
     97  CD2      -25.5920    4.5830   10.5800 C.ar   56  HIS56       0.1154
     98  CE1      -26.2370    4.9370   12.6500 C.ar   56  HIS56       0.1986
     99  NE2      -26.2400    4.0500   11.6690 N.ar   56  HIS56      -0.2212
    100  N        -24.2220    9.9730    9.1140 N.am   57  TYR57      -0.1960
    101  CA       -23.4710   10.9470    8.3190 C.3    57  TYR57       0.1771
    102  C        -22.1830   11.3830    9.0310 C.2    57  TYR57       0.2619
    103  O        -22.1500   11.4920   10.2510 O.2    57  TYR57      -0.2715
    104  CB       -24.3200   12.1930    8.0680 C.3    57  TYR57       0.0574
    105  CG       -25.6000   11.9110    7.3240 C.ar   57  TYR57      -0.0198
    106  CD1      -26.7070   11.4110    7.9910 C.ar   57  TYR57      -0.0009
    107  CD2      -25.6780   12.0880    5.9300 C.ar   57  TYR57      -0.0009
    108  CE1      -27.8720   11.0860    7.3020 C.ar   57  TYR57       0.0417
    109  CE2      -26.8410   11.7600    5.2210 C.ar   57  TYR57       0.0417
    110  CZ       -27.9280   11.2610    5.9190 C.ar   57  TYR57       0.1957
    111  OH       -29.0810   10.9130    5.2580 O.3    57  TYR57      -0.2866
    112  N        -21.1530   11.6410    8.2430 N.am   58  LYS58      -0.1977
    113  CA       -19.8670   12.0860    8.7530 C.3    58  LYS58       0.1596
    114  C        -19.7720   13.6070    8.7240 C.2    58  LYS58       0.2287
    115  O        -20.1200   14.2450    7.7290 O.2    58  LYS58      -0.2864
    116  CB       -18.7250   11.5190    7.9160 C.3    58  LYS58       0.0298
    117  CG       -18.5190   10.0250    8.0700 C.3    58  LYS58       0.0038
    118  CD       -17.2350    9.6450    7.3790 C.3    58  LYS58       0.0206
    119  CE       -16.9240    8.1780    7.5400 C.3    58  LYS58       0.1093
    120  NZ       -15.6210    7.8320    6.8840 N.3    58  LYS58      -0.1314
    121  N        -20.1640   15.5870    5.1310 N.3    69  GLU69      -0.1231
    122  CA       -19.8190   14.7990    3.9430 C.3    69  GLU69       0.1699
    123  C        -21.0460   14.3070    3.1690 C.2    69  GLU69       0.2592
    124  O        -21.5530   13.2230    3.4220 O.2    69  GLU69      -0.2718
    125  CB       -18.9560   13.6120    4.3690 C.3    69  GLU69       0.0402
    126  CG       -17.7510   14.0170    5.2070 C.3    69  GLU69       0.1161
    127  CD       -16.5520   14.4340    4.3730 C.2    69  GLU69       0.3649
    128  OE1      -16.6080   15.4880    3.6790 O.co2  69  GLU69      -0.2457
    129  OE2      -15.5390   13.6790    4.4200 O.co2  69  GLU69      -0.2457
    130  N        -21.5100   15.1280    2.2370 N.am   70  LEU70      -0.1966
    131  CA       -22.6670   14.8200    1.4050 C.3    70  LEU70       0.1728
    132  C        -22.1800   14.8310   -0.0460 C.2    70  LEU70       0.2616
    133  O        -21.0540   15.2520   -0.3100 O.2    70  LEU70      -0.2715
    134  CB       -23.7480   15.9000    1.5730 C.3    70  LEU70       0.0311
    135  CG       -24.2720   16.1470    2.9890 C.3    70  LEU70       0.0022
    136  CD1      -25.2040   17.3470    2.9820 C.3    70  LEU70       0.0001
    137  CD2      -24.9910   14.8980    3.5000 C.3    70  LEU70       0.0001
    138  N        -23.0310   14.3910   -0.9750 N.am   71  GLU71      -0.1977
    139  CA       -22.6840   14.3880   -2.3930 C.3    71  GLU71       0.1602
    140  C        -22.0140   15.7140   -2.7060 C.2    71  GLU71       0.2287
    141  O        -20.9660   15.7570   -3.3320 O.2    71  GLU71      -0.2864
    142  CB       -23.9460   14.2270   -3.2440 C.3    71  GLU71       0.0415
    143  CG       -24.4000   12.7850   -3.3360 C.3    71  GLU71       0.1163
    144  CD       -25.5980   12.5830   -4.2570 C.2    71  GLU71       0.3649
    145  OE1      -25.8580   11.4140   -4.6210 O.co2  71  GLU71      -0.2457
    146  OE2      -26.2800   13.5760   -4.5940 O.co2  71  GLU71      -0.2457
    147  N        -28.4020   23.1790    9.7880 N.3    85  TYR85      -0.1227
    148  CA       -28.4100   22.7480    8.3980 C.3    85  TYR85       0.1736
    149  C        -29.1990   21.4460    8.1960 C.2    85  TYR85       0.2595
    150  O        -29.9470   21.3260    7.2280 O.2    85  TYR85      -0.2718
    151  CB       -26.9850   22.5680    7.8550 C.3    85  TYR85       0.0548
    152  CG       -26.9950   22.0570    6.4150 C.ar   85  TYR85      -0.0200
    153  CD1      -26.9700   20.6860    6.1460 C.ar   85  TYR85      -0.0009
    154  CD2      -27.1100   22.9390    5.3330 C.ar   85  TYR85      -0.0009
    155  CE1      -27.0620   20.1980    4.8450 C.ar   85  TYR85       0.0417
    156  CE2      -27.2040   22.4630    4.0120 C.ar   85  TYR85       0.0417
    157  CZ       -27.1800   21.0840    3.7890 C.ar   85  TYR85       0.1957
    158  OH       -27.2920   20.5780    2.5210 O.3    85  TYR85      -0.2866
    159  N        -29.0290   20.4640    9.0840 N.am   86  PHE86      -0.1976
    160  CA       -29.7850   19.2090    8.9480 C.3    86  PHE86       0.1639
    161  C        -31.3000   19.4400    9.0500 C.2    86  PHE86       0.2290
    162  O        -32.0940   18.8170    8.3260 O.2    86  PHE86      -0.2864
    163  CB       -29.3500   18.1960   10.0130 C.3    86  PHE86       0.0560
    164  CG       -28.1960   17.3250    9.5830 C.ar   86  PHE86      -0.0200
    165  CD1      -26.8960   17.8320    9.5400 C.ar   86  PHE86      -0.0042
    166  CD2      -28.4190   16.0000    9.1820 C.ar   86  PHE86      -0.0042
    167  CE1      -25.8260   17.0370    9.1040 C.ar   86  PHE86      -0.0003
    168  CE2      -27.3550   15.1910    8.7420 C.ar   86  PHE86      -0.0003
    169  CZ       -26.0560   15.7100    8.7040 C.ar   86  PHE86      -0.0000
    170  N        -32.3120   21.5940    5.7260 N.3    89  GLU89      -0.1231
    171  CA       -32.2330   20.7880    4.5110 C.3    89  GLU89       0.1699
    172  C        -33.3370   19.7170    4.4190 C.2    89  GLU89       0.2593
    173  O        -33.7830   19.3780    3.3150 O.2    89  GLU89      -0.2718
    174  CB       -30.8440   20.1420    4.4070 C.3    89  GLU89       0.0402
    175  CG       -30.5430   19.3500    3.1140 C.3    89  GLU89       0.1161
    176  CD       -30.4810   20.2200    1.8450 C.2    89  GLU89       0.3649
    177  OE1      -30.6270   21.4630    1.9400 O.co2  89  GLU89      -0.2457
    178  OE2      -30.2870   19.6430    0.7480 O.co2  89  GLU89      -0.2457
    179  N        -33.7930   19.1990    5.5650 N.am   90  THR90      -0.1939
    180  CA       -34.8590   18.1940    5.5780 C.3    90  THR90       0.2028
    181  C        -36.2150   18.8550    5.8330 C.2    90  THR90       0.2642
    182  O        -37.1950   18.1940    6.1580 O.2    90  THR90      -0.2714
    183  CB       -34.6300   17.1090    6.6460 C.3    90  THR90       0.1808
    184  OG1      -34.6290   17.7110    7.9530 O.3    90  THR90      -0.2208
    185  CG2      -33.3150   16.3690    6.3710 C.3    90  THR90       0.0379
    186  N        -36.2480   20.1700    5.6830 N.am   91  ARG91      -0.1977
    187  CA       -37.4690   20.9460    5.8690 C.3    91  ARG91       0.1597
    188  C        -38.1920   20.6850    7.1830 C.2    91  ARG91       0.2287
    189  O        -39.4260   20.6350    7.2050 O.2    91  ARG91      -0.2864
    190  CB       -38.4400   20.7020    4.6980 C.3    91  ARG91       0.0334
    191  CG       -37.9010   21.1580    3.3630 C.3    91  ARG91       0.0492
    192  CD       -38.8570   20.8560    2.2120 C.3    91  ARG91       0.2205
    193  NE       -38.3520   21.4090    0.9560 N.pl3  91  ARG91      -0.0865
    194  CZ       -38.4780   20.8300   -0.2310 C.cat  91  ARG91       0.5346
    195  NH1      -39.0980   19.6610   -0.3510 N.pl3  91  ARG91       0.1354
    196  NH2      -37.9740   21.4290   -1.3000 N.pl3  91  ARG91       0.1354
    197  N        -38.0660   17.9380    9.0410 N.3    93  ASN93      -0.1225
    198  CA       -38.3570   16.5340    9.3090 C.3    93  ASN93       0.1785
    199  C        -37.4320   16.0120   10.4070 C.2    93  ASN93       0.2597
    200  O        -37.8260   15.1640   11.2190 O.2    93  ASN93      -0.2718
    201  CB       -38.2120   15.7050    8.0300 C.3    93  ASN93       0.1169
    202  CG       -38.6080   14.2370    8.2310 C.2    93  ASN93       0.2627
    203  OD1      -37.7570   13.3420    8.2730 O.2    93  ASN93      -0.2716
    204  ND2      -39.9000   13.9940    8.3680 N.am   93  ASN93      -0.0877
    205  N        -36.2120   16.5390   10.4430 N.am   94  LEU94      -0.1980
    206  CA       -35.2560   16.1310   11.4480 C.3    94  LEU94       0.1596
    207  C        -35.3920   17.0630   12.6380 C.2    94  LEU94       0.2287
    208  O        -35.5030   18.2750   12.4820 O.2    94  LEU94      -0.2864
    209  CB       -33.8230   16.1440   10.8850 C.3    94  LEU94       0.0297
    210  CG       -33.5070   15.0870    9.8180 C.3    94  LEU94       0.0022
    211  CD1      -32.0360   15.2070    9.4410 C.3    94  LEU94       0.0001
    212  CD2      -33.7950   13.6650   10.3160 C.3    94  LEU94       0.0001
@<TRIPOS>BOND
     1   145   144   ar
     2   146   144   ar
     3   144   143    1
     4   143   142    1
     5   141   140    2
     6   142   139    1
     7   140   139    1
     8   139   138    1
     9   196   194    1
    10   138   132   am
    11   195   194    1
    12   133   132    2
    13   194   193    2
    14   132   131    1
    15   178   176   ar
    16   193   192    1
    17   131   134    1
    18   131   130    1
    19   134   135    1
    20   176   177   ar
    21   176   175    1
    22   192   191    1
    23   130   123   am
    24   158   157    1
    25   136   135    1
    26   135   137    1
    27    71    69    1
    28   175   174    1
    29   123   124    2
    30   123   122    1
    31    89    88    1
    32   173   172    2
    33   191   190    1
    34   128   127   ar
    35   157   156   ar
    36   157   155   ar
    37   122   125    1
    38   122   121    1
    39   156   154   ar
    40    88    87    1
    41   125   126    1
    42   127   129   ar
    43   127   126    1
    44   174   171    1
    45   172   171    1
    46   172   179   am
    47    69    70    1
    48    69    66    1
    49    72    70    1
    50   171   170    1
    51    68    67    2
    52    67    66    1
    53   190   187    1
    54   155   153   ar
    55   109   110   ar
    56   109   107   ar
    57   111   110    1
    58   154   152   ar
    59    66    65    1
    60    87    86    1
    61   179   180    1
    62   180   181    1
    63   180   183    1
    64   186   181   am
    65   186   187    1
    66   181   182    2
    67   187   188    1
    68   110   108   ar
    69   107   105   ar
    70    54    53    2
    71   153   152   ar
    72    86    85    1
    73   185   183    1
    74   152   151    1
    75    65    58   am
    76    55    53   am
    77   183   184    1
    78    53    52    1
    79   120   119    1
    80   188   189    2
    81   150   149    2
    82   108   106   ar
    83   105   106   ar
    84   105   104    1
    85   118   119    1
    86   118   117    1
    87    85    82    1
    88    93    92    2
    89    58    59    2
    90    58    57    1
    91   115   114    2
    92   151   148    1
    93   116   117    1
    94   116   113    1
    95   201   202    1
    96   201   198    1
    97    51    52    1
    98    51    48    1
    99   104   101    1
   100   149   148    1
   101   149   159   am
   102   202   203    2
   103   202   204   am
   104   112   113    1
   105   112   102   am
   106   101   102    1
   107   101   100    1
   108   162   161    2
   109   148   147    1
   110    76    75    2
   111    46    44    1
   112    82    83    1
   113    82    81    1
   114    92   100   am
   115    92    91    1
   116   169   168   ar
   117   169   167   ar
   118   114   113    1
   119   168   166   ar
   120    57    56    1
   121    57    60    1
   122    90    83   am
   123    90    91    1
   124   160   161    1
   125   160   159    1
   126   160   163    1
   127    50    49    2
   128    56    49   am
   129   102   103    2
   130   197   198    1
   131    49    48    1
   132   167   165   ar
   133   166   164   ar
   134    83    84    2
   135    75    81   am
   136    75    74    1
   137   198   199    1
   138    48    47    1
   139    73    74    1
   140   211   210    1
   141   165   164   ar
   142    91    94    1
   143   164   163    1
   144    44    43    1
   145   210   212    1
   146   210   209    1
   147    60    61    1
   148    94    95    1
   149    11     9    1
   150    74    77    1
   151   199   205   am
   152   199   200    2
   153    10     9    1
   154   205   206    1
   155    97    95   ar
   156    97    99   ar
   157   209   206    1
   158    95    96   ar
   159     9     8    2
   160    43    45    1
   161    43    40    1
   162    61    62    1
   163    77    79    1
   164    77    78    1
   165   206   207    1
   166    42    41    2
   167    99    98   ar
   168    41    40    1
   169    40    39    1
   170    96    98   ar
   171     8     7    1
   172    78    80    1
   173    62    64   ar
   174    62    63   ar
   175   208   207    2
   176    38    37    1
   177     7     6    1
   178    34    37    1
   179    34    35    1
   180    34    33    1
   181    35    36    2
   182    22    20    1
   183    30    29    2
   184     6     5    1
   185    29    28    1
   186    20    21    1
   187    20    19    2
   188    31    28    1
   189    31    32    1
   190    24    25    1
   191    24    23    1
   192    27    28    1
   193    27    25   am
   194     5     2    1
   195    25    26    2
   196    19    18    1
   197     2     3    1
   198     2     1    1
   199     4     3    2
   200    15    14    2
   201    18    17    1
   202    17    16    1
   203    12    13    1
   204    14    13    1
   205    13    16    1
