@<TRIPOS>MOLECULE
tmp/3mb4B00.pdb
 103 98 0 0 0
SMALL
GASTEIGER

@<TRIPOS>ATOM
      1  N         30.2000   32.9030   22.4120 N.3    33  ILE33      -0.1231
      2  CA        31.0860   32.2210   23.3990 C.3    33  ILE33       0.1692
      3  C         31.2950   30.7490   23.0380 C.2    33  ILE33       0.2592
      4  O         32.2500   30.1220   23.4790 O.2    33  ILE33      -0.2718
      5  CB        30.4860   32.3370   24.8490 C.3    33  ILE33       0.0266
      6  CG1       31.5310   32.0550   25.9330 C.3    33  ILE33       0.0019
      7  CG2       29.2080   31.4450   24.9970 C.3    33  ILE33       0.0020
      8  CD1       32.5330   33.1250   26.2270 C.3    33  ILE33       0.0001
      9  N         30.4320   30.2110   22.2120 N.am   34  PHE34      -0.1976
     10  CA        30.4490   28.7900   21.8120 C.3    34  PHE34       0.1639
     11  C         31.2400   28.4970   20.5450 C.2    34  PHE34       0.2290
     12  O         31.4330   27.3420   20.2020 O.2    34  PHE34      -0.2864
     13  CB        29.0060   28.3040   21.5940 C.3    34  PHE34       0.0560
     14  CG        28.1610   28.4360   22.8100 C.ar   34  PHE34      -0.0200
     15  CD1       28.3960   27.5820   23.9090 C.ar   34  PHE34      -0.0042
     16  CD2       27.1740   29.4140   22.9070 C.ar   34  PHE34      -0.0042
     17  CE1       27.6590   27.7240   25.0720 C.ar   34  PHE34      -0.0003
     18  CE2       26.4120   29.5440   24.0650 C.ar   34  PHE34      -0.0003
     19  CZ        26.6370   28.6920   25.1350 C.ar   34  PHE34      -0.0000
     20  N         36.5110   27.1310   21.8290 N.3    37  LEU37      -0.1231
     21  CA        37.0510   27.0940   23.1890 C.3    37  LEU37       0.1678
     22  C         38.4440   27.6640   23.2080 C.2    37  LEU37       0.2434
     23  O         39.2080   27.4600   22.2610 O.2    37  LEU37      -0.2733
     24  CB        37.1160   25.6630   23.7270 C.3    37  LEU37       0.0284
     25  CG        35.7720   25.0700   24.1410 C.3    37  LEU37       0.0019
     26  CD1       35.8900   23.5720   24.2330 C.3    37  LEU37       0.0001
     27  CD2       35.3250   25.6640   25.4490 C.3    37  LEU37       0.0001
     28  N         38.7970   28.3330   24.3200 N.am   38  PRO38      -0.2729
     29  CA        40.1990   28.6430   24.5370 C.3    38  PRO38       0.1401
     30  C         40.9900   27.3930   24.8470 C.2    38  PRO38       0.2269
     31  O         40.4150   26.3190   25.0280 O.2    38  PRO38      -0.2865
     32  CB        40.1540   29.5670   25.7550 C.3    38  PRO38       0.0296
     33  CG        39.0540   28.9810   26.5800 C.3    38  PRO38       0.0237
     34  CD        38.0060   28.5900   25.5400 C.3    38  PRO38       0.0939
     35  N         42.4170   28.5450   30.1610 N.3    43  LEU43      -0.1245
     36  CA        41.2710   28.2890   31.0410 C.3    43  LEU43       0.1561
     37  C         41.4220   26.9170   31.6770 C.2    43  LEU43       0.2260
     38  O         40.6180   26.0090   31.4340 O.2    43  LEU43      -0.2867
     39  CB        39.9640   28.4160   30.2840 C.3    43  LEU43       0.0270
     40  CG        38.7440   28.8410   31.1020 C.3    43  LEU43       0.0019
     41  CD1       38.9390   30.2360   31.7420 C.3    43  LEU43       0.0001
     42  CD2       37.5010   28.8050   30.2050 C.3    43  LEU43       0.0001
     43  N         38.4650   25.0410   33.4170 N.3    46  TYR46      -0.1241
     44  CA        37.4510   24.5200   32.5250 C.3    46  TYR46       0.1605
     45  C         37.7920   23.1070   32.1240 C.2    46  TYR46       0.2264
     46  O         36.9350   22.2120   32.2010 O.2    46  TYR46      -0.2867
     47  CB        37.3100   25.4120   31.2850 C.3    46  TYR46       0.0534
     48  CG        36.1600   24.9820   30.4090 C.ar   46  TYR46      -0.0201
     49  CD1       34.8820   25.4290   30.6650 C.ar   46  TYR46      -0.0009
     50  CD2       36.3610   24.0790   29.3880 C.ar   46  TYR46      -0.0009
     51  CE1       33.8040   25.0310   29.8720 C.ar   46  TYR46       0.0417
     52  CE2       35.3080   23.6660   28.5750 C.ar   46  TYR46       0.0417
     53  CZ        34.0330   24.1490   28.8120 C.ar   46  TYR46       0.1957
     54  OH        32.9740   23.6950   28.0520 O.3    46  TYR46      -0.2866
     55  N         33.5680   20.5850   23.7810 N.3    54  MET54      -0.1245
     56  CA        32.8810   20.6860   22.5200 C.3    54  MET54       0.1570
     57  C         32.6890   22.2030   22.1980 C.2    54  MET54       0.2261
     58  O         32.3300   23.0290   23.0710 O.2    54  MET54      -0.2867
     59  CB        31.5360   19.9550   22.5400 C.3    54  MET54       0.0387
     60  CG        30.8210   19.8660   21.1700 C.3    54  MET54       0.0595
     61  SD        31.8660   19.1630   19.8480 S.3    54  MET54      -0.1393
     62  CE        32.2370   17.5380   20.5560 C.3    54  MET54       0.0692
     63  N         27.8020   20.2060   23.9630 N.3    81  MET81      -0.1245
     64  CA        28.2280   21.5870   24.1240 C.3    81  MET81       0.1570
     65  C         27.3780   22.3330   25.1400 C.2    81  MET81       0.2261
     66  O         27.9020   23.0000   26.0210 O.2    81  MET81      -0.2867
     67  CB        28.2350   22.3010   22.7890 C.3    81  MET81       0.0387
     68  CG        28.8630   23.6760   22.8270 C.3    81  MET81       0.0595
     69  SD        28.9360   24.3930   21.1720 S.3    81  MET81      -0.1393
     70  CE        27.2490   24.8920   20.9930 C.3    81  MET81       0.0692
     71  N         28.1390   23.7490   29.0960 N.3    85  ALA85      -0.1245
     72  CA        27.8270   25.1020   29.5590 C.3    85  ALA85       0.1562
     73  C         26.9490   25.1460   30.7970 C.2    85  ALA85       0.2260
     74  O         27.1510   25.9530   31.6830 O.2    85  ALA85      -0.2867
     75  CB        27.1330   25.8960   28.4320 C.3    85  ALA85       0.0290
     76  N         29.1190   23.7680   33.7750 N.3    88  TYR88      -0.1227
     77  CA        30.2650   24.5800   34.1540 C.3    88  TYR88       0.1736
     78  C         29.9110   25.9310   34.7950 C.2    88  TYR88       0.2595
     79  O         30.5520   26.3910   35.7530 O.2    88  TYR88      -0.2718
     80  CB        31.1840   24.8260   32.9540 C.3    88  TYR88       0.0548
     81  CG        32.4430   25.5350   33.3870 C.ar   88  TYR88      -0.0200
     82  CD1       33.4370   24.8570   34.0710 C.ar   88  TYR88      -0.0009
     83  CD2       32.6260   26.9040   33.1710 C.ar   88  TYR88      -0.0009
     84  CE1       34.5730   25.5170   34.5170 C.ar   88  TYR88       0.0417
     85  CE2       33.7680   27.5650   33.6170 C.ar   88  TYR88       0.0417
     86  CZ        34.7380   26.8590   34.2790 C.ar   88  TYR88       0.1957
     87  OH        35.8710   27.4930   34.7190 O.3    88  TYR88      -0.2866
     88  N         28.9020   26.5770   34.2300 N.am   89  ASN89      -0.1974
     89  CA        28.5500   27.9190   34.6060 C.3    89  ASN89       0.1688
     90  C         27.3310   27.9290   35.5250 C.2    89  ASN89       0.2292
     91  O         26.4780   27.0340   35.4400 O.2    89  ASN89      -0.2864
     92  CB        28.2270   28.7310   33.3580 C.3    89  ASN89       0.1181
     93  CG        29.3640   28.7640   32.3800 C.2    89  ASN89       0.2629
     94  OD1       30.2820   29.5570   32.5370 O.2    89  ASN89      -0.2716
     95  ND2       29.3040   27.9150   31.3660 N.am   89  ASN89      -0.0877
     96  N         26.1230   32.9710   30.0140 N.3    95  ILE95      -0.1245
     97  CA        26.4970   31.7970   29.2050 C.3    95  ILE95       0.1561
     98  C         25.4900   30.6830   29.4020 C.2    95  ILE95       0.2260
     99  O         25.0570   30.0500   28.4400 O.2    95  ILE95      -0.2867
    100  CB        27.9600   31.2640   29.5130 C.3    95  ILE95       0.0252
    101  CG1       29.0170   32.3190   29.1360 C.3    95  ILE95       0.0019
    102  CG2       28.2940   29.9910   28.7380 C.3    95  ILE95       0.0019
    103  CD1       30.4440   32.0150   29.6170 C.3    95  ILE95       0.0001
@<TRIPOS>BOND
     1    61    62    1
     2    61    60    1
     3    12    11    2
     4    11    10    1
     5    70    69    1
     6    60    59    1
     7    69    68    1
     8    13    10    1
     9    13    14    1
    10    10     9    1
    11    20    21    1
    12    57    56    1
    13    57    58    2
    14     9     3   am
    15    23    22    2
    16     1     2    1
    17    56    59    1
    18    56    55    1
    19    67    68    1
    20    67    64    1
    21    14    16   ar
    22    14    15   ar
    23    16    18   ar
    24     3     2    1
    25     3     4    2
    26    21    22    1
    27    21    24    1
    28    22    28   am
    29     2     5    1
    30    24    25    1
    31    15    17   ar
    32    63    64    1
    33    18    19   ar
    34    64    65    1
    35    25    26    1
    36    25    27    1
    37    28    29    1
    38    28    34    1
    39    29    30    1
    40    29    32    1
    41    30    31    2
    42     5     7    1
    43     5     6    1
    44    17    19   ar
    45    65    66    2
    46    34    33    1
    47    32    33    1
    48     6     8    1
    49    54    53    1
    50    75    72    1
    51    99    98    2
    52    52    53   ar
    53    52    50   ar
    54   102   100    1
    55    53    51   ar
    56    71    72    1
    57   101   100    1
    58   101   103    1
    59    97    98    1
    60    97   100    1
    61    97    96    1
    62    50    48   ar
    63    72    73    1
    64    51    49   ar
    65    35    36    1
    66    42    40    1
    67    39    36    1
    68    39    40    1
    69    48    49   ar
    70    48    47    1
    71    73    74    2
    72    36    37    1
    73    40    41    1
    74    47    44    1
    75    95    93   am
    76    38    37    2
    77    45    46    2
    78    45    44    1
    79    93    94    2
    80    93    92    1
    81    44    43    1
    82    80    81    1
    83    80    77    1
    84    83    81   ar
    85    83    85   ar
    86    92    89    1
    87    81    82   ar
    88    85    86   ar
    89    76    77    1
    90    82    84   ar
    91    77    78    1
    92    88    89    1
    93    88    78   am
    94    86    84   ar
    95    86    87    1
    96    89    90    1
    97    78    79    2
    98    91    90    2
