@<TRIPOS>MOLECULE
tmp/3mb5A00.pdb
 202 200 0 0 0
SMALL
GASTEIGER

@<TRIPOS>ATOM
      1  N        -17.1070  -31.7560  -18.4300 N.3    74  PRO74      -0.2102
      2  CA       -16.1690  -31.2900  -17.3980 C.3    74  PRO74       0.1504
      3  C        -15.7460  -32.4580  -16.4970 C.2    74  PRO74       0.2576
      4  O        -16.5260  -33.4100  -16.3120 O.2    74  PRO74      -0.2718
      5  CB       -16.9650  -30.2520  -16.6080 C.3    74  PRO74       0.0282
      6  CG       -18.3490  -30.3100  -17.1040 C.3    74  PRO74       0.0208
      7  CD       -18.4120  -31.0700  -18.3770 C.3    74  PRO74       0.0893
      8  N        -14.5150  -32.3960  -15.9880 N.am   75  GLN75      -0.1966
      9  CA       -13.9280  -33.4640  -15.1550 C.3    75  GLN75       0.1733
     10  C        -14.8850  -33.9550  -14.0740 C.2    75  GLN75       0.2616
     11  O        -15.3430  -33.1710  -13.2560 O.2    75  GLN75      -0.2715
     12  CB       -12.6410  -32.9750  -14.4960 C.3    75  GLN75       0.0408
     13  CG       -12.0100  -34.0370  -13.5860 C.3    75  GLN75       0.0908
     14  CD       -11.5740  -35.2410  -14.3790 C.2    75  GLN75       0.2608
     15  OE1      -10.7370  -35.1240  -15.2870 O.2    75  GLN75      -0.2717
     16  NE2      -12.1360  -36.4030  -14.0640 N.am   75  GLN75      -0.0878
     17  N        -15.1900  -35.2480  -14.0970 N.am   76  ILE76      -0.1963
     18  CA       -16.1050  -35.8600  -13.1310 C.3    76  ILE76       0.1727
     19  C        -15.4170  -36.1020  -11.7790 C.2    76  ILE76       0.2616
     20  O        -14.1880  -36.2470  -11.7130 O.2    76  ILE76      -0.2715
     21  CB       -16.6800  -37.1980  -13.6570 C.3    76  ILE76       0.0290
     22  CG1      -15.5450  -38.1590  -14.0080 C.3    76  ILE76       0.0022
     23  CG2      -17.5720  -36.9860  -14.8830 C.3    76  ILE76       0.0023
     24  CD1      -15.8490  -39.5890  -13.5950 C.3    76  ILE76       0.0001
     25  N        -16.2140  -36.1510  -10.7080 N.am   77  VAL77      -0.1977
     26  CA       -15.7310  -36.6290   -9.4080 C.3    77  VAL77       0.1596
     27  C        -15.7080  -38.1590   -9.4710 C.2    77  VAL77       0.2287
     28  O        -16.7080  -38.7950   -9.8330 O.2    77  VAL77      -0.2864
     29  CB       -16.6260  -36.1360   -8.2280 C.3    77  VAL77       0.0276
     30  CG1      -16.3220  -36.9000   -6.9470 C.3    77  VAL77       0.0022
     31  CG2      -16.4370  -34.6530   -7.9750 C.3    77  VAL77       0.0022
     32  N        -26.0700  -28.8480   -4.5050 N.3    99  GLU99      -0.1231
     33  CA       -24.7650  -29.1940   -5.1250 C.3    99  GLU99       0.1699
     34  C        -24.3320  -28.0850   -6.0770 C.2    99  GLU99       0.2592
     35  O        -25.1730  -27.4390   -6.7160 O.2    99  GLU99      -0.2718
     36  CB       -24.9480  -30.4890   -5.9080 C.3    99  GLU99       0.0402
     37  CG       -23.6410  -30.9360   -6.5950 C.3    99  GLU99       0.1161
     38  CD       -23.8210  -31.9330   -7.7140 C.2    99  GLU99       0.3649
     39  OE1      -24.9440  -32.1090   -8.2810 O.co2  99  GLU99      -0.2457
     40  OE2      -22.7890  -32.5590   -8.0600 O.co2  99  GLU99      -0.2457
     41  N        -23.0310  -27.8490   -6.2100 N.am  100  ALA100     -0.1966
     42  CA       -22.5510  -26.9750   -7.3080 C.3   100  ALA100      0.1728
     43  C        -21.0890  -27.2520   -7.5820 C.2   100  ALA100      0.2617
     44  O        -20.3670  -27.5650   -6.6430 O.2   100  ALA100     -0.2715
     45  CB       -22.7250  -25.5040   -6.9280 C.3   100  ALA100      0.0334
     46  N        -20.6210  -27.1830   -8.8290 N.am  101  GLY101     -0.1940
     47  CA       -21.4440  -27.0690  -10.0280 C.3   101  GLY101      0.2014
     48  C        -21.8170  -28.4370  -10.5580 C.2   101  GLY101      0.2639
     49  O        -21.0990  -29.4450  -10.3090 O.2   101  GLY101     -0.2714
     50  N        -22.9280  -28.5030  -11.2970 N.am  102  VAL102     -0.1963
     51  CA       -23.4000  -29.8120  -11.8070 C.3   102  VAL102      0.1727
     52  C        -22.3520  -30.4900  -12.6970 C.2   102  VAL102      0.2617
     53  O        -22.2290  -31.7200  -12.6570 O.2   102  VAL102     -0.2715
     54  CB       -24.7830  -29.7090  -12.5190 C.3   102  VAL102      0.0290
     55  CG1      -24.6450  -29.1410  -13.9410 C.3   102  VAL102      0.0023
     56  CG2      -25.4760  -31.0740  -12.5430 C.3   102  VAL102      0.0023
     57  N        -21.6000  -29.7100  -13.4790 N.am  103  GLY103     -0.1940
     58  CA       -20.5460  -30.3090  -14.3380 C.3   103  GLY103      0.2014
     59  C        -21.1640  -31.2810  -15.3430 C.2   103  GLY103      0.2639
     60  O        -22.0650  -30.9070  -16.1090 O.2   103  GLY103     -0.2714
     61  N        -20.6840  -32.5280  -15.3450 N.am  104  SER104     -0.1949
     62  CA       -21.2360  -33.5720  -16.2030 C.3   104  SER104      0.1924
     63  C        -22.3970  -34.3000  -15.5420 C.2   104  SER104      0.2314
     64  O        -23.0600  -35.1060  -16.1810 O.2   104  SER104     -0.2863
     65  CB       -20.1580  -34.6120  -16.5470 C.3   104  SER104      0.2116
     66  OG       -19.1020  -34.0250  -17.2760 O.3   104  SER104     -0.2180
     67  N        -21.8780  -36.3580  -12.8240 N.3   106  ALA106     -0.1231
     68  CA       -21.4380  -37.6500  -12.2510 C.3   106  ALA106      0.1694
     69  C        -21.6900  -37.7240  -10.7420 C.2   106  ALA106      0.2591
     70  O        -22.2920  -38.6760  -10.2460 O.2   106  ALA106     -0.2718
     71  CB       -19.9840  -37.8980  -12.5390 C.3   106  ALA106      0.0304
     72  N        -21.2300  -36.7190  -10.0180 N.am  107  LEU107     -0.1980
     73  CA       -21.5060  -36.6480   -8.5940 C.3   107  LEU107      0.1596
     74  C        -23.0280  -36.5480   -8.3610 C.2   107  LEU107      0.2287
     75  O        -23.5510  -37.1590   -7.4440 O.2   107  LEU107     -0.2864
     76  CB       -20.7100  -35.4860   -7.9670 C.3   107  LEU107      0.0297
     77  CG       -20.9080  -35.3160   -6.4580 C.3   107  LEU107      0.0022
     78  CD1      -20.5670  -36.5730   -5.6120 C.3   107  LEU107      0.0001
     79  CD2      -20.0760  -34.1260   -6.0060 C.3   107  LEU107      0.0001
     80  N        -26.5790  -26.3220   -8.8400 N.3   124  TYR124     -0.1227
     81  CA       -26.3230  -25.0160   -9.4730 C.3   124  TYR124      0.1736
     82  C        -25.2790  -25.1510  -10.5630 C.2   124  TYR124      0.2595
     83  O        -24.3720  -25.9810  -10.4480 O.2   124  TYR124     -0.2718
     84  CB       -25.8310  -24.0070   -8.4280 C.3   124  TYR124      0.0548
     85  CG       -26.9070  -23.4570   -7.5030 C.ar  124  TYR124     -0.0200
     86  CD1      -27.1060  -22.0800   -7.4090 C.ar  124  TYR124     -0.0009
     87  CD2      -27.6790  -24.2970   -6.6880 C.ar  124  TYR124     -0.0009
     88  CE1      -28.0770  -21.5650   -6.5550 C.ar  124  TYR124      0.0417
     89  CE2      -28.6760  -23.7870   -5.8330 C.ar  124  TYR124      0.0417
     90  CZ       -28.8520  -22.4100   -5.7740 C.ar  124  TYR124      0.1957
     91  OH       -29.8130  -21.8930   -4.9290 O.3   124  TYR124     -0.2866
     92  N        -25.3860  -24.3560  -11.6280 N.am  125  GLU125     -0.1965
     93  CA       -24.4210  -24.4320  -12.7280 C.3   125  GLU125      0.1733
     94  C        -24.4630  -23.1140  -13.4870 C.2   125  GLU125      0.2616
     95  O        -25.5450  -22.6030  -13.7500 O.2   125  GLU125     -0.2715
     96  CB       -24.7330  -25.6140  -13.6570 C.3   125  GLU125      0.0429
     97  CG       -23.7900  -25.7100  -14.8810 C.3   125  GLU125      0.1163
     98  CD       -22.3200  -25.7570  -14.5060 C.2   125  GLU125      0.3649
     99  OE1      -21.5730  -24.8170  -14.8300 O.co2 125  GLU125     -0.2457
    100  OE2      -21.8810  -26.7520  -13.8510 O.co2 125  GLU125     -0.2457
    101  N        -23.3010  -22.5670  -13.7850 N.am  126  ILE126     -0.1963
    102  CA       -23.2490  -21.3160  -14.5590 C.3   126  ILE126      0.1727
    103  C        -23.0840  -21.5450  -16.0550 C.2   126  ILE126      0.2616
    104  O        -23.4970  -20.6810  -16.8590 O.2   126  ILE126     -0.2715
    105  CB       -22.1700  -20.3510  -14.0560 C.3   126  ILE126      0.0290
    106  CG1      -20.7760  -20.9930  -14.1150 C.3   126  ILE126      0.0022
    107  CG2      -22.5700  -19.8190  -12.6890 C.3   126  ILE126      0.0023
    108  CD1      -19.6510  -20.0810  -13.6680 C.3   126  ILE126      0.0001
    109  N        -22.4580  -22.6620  -16.4460 N.am  127  ARG127     -0.1977
    110  CA       -22.2480  -22.9720  -17.8720 C.3   127  ARG127      0.1597
    111  C        -23.4620  -23.6890  -18.4330 C.2   127  ARG127      0.2287
    112  O        -23.7520  -24.8240  -18.0680 O.2   127  ARG127     -0.2864
    113  CB       -20.9980  -23.8320  -18.0840 C.3   127  ARG127      0.0334
    114  CG       -19.6800  -23.1120  -17.8560 C.3   127  ARG127      0.0492
    115  CD       -19.1090  -22.4760  -19.1050 C.3   127  ARG127      0.2205
    116  NE       -18.9550  -23.3980  -20.2380 N.pl3 127  ARG127     -0.0865
    117  CZ       -17.8000  -23.8610  -20.7130 C.cat 127  ARG127      0.5346
    118  NH1      -16.6380  -23.5560  -20.1350 N.pl3 127  ARG127      0.1354
    119  NH2      -17.8180  -24.6450  -21.7900 N.pl3 127  ARG127      0.1354
    120  N        -22.6870  -27.0410  -20.2420 N.3   130  PHE130     -0.1241
    121  CA       -22.4790  -28.1500  -19.2740 C.3   130  PHE130      0.1605
    122  C        -23.8000  -28.5630  -18.6390 C.2   130  PHE130      0.2264
    123  O        -24.0650  -29.7630  -18.4770 O.2   130  PHE130     -0.2867
    124  CB       -21.4800  -27.7560  -18.1730 C.3   130  PHE130      0.0534
    125  CG       -20.0560  -27.4960  -18.6470 C.ar  130  PHE130     -0.0203
    126  CD1      -19.1540  -26.9070  -17.7700 C.ar  130  PHE130     -0.0042
    127  CD2      -19.6180  -27.8080  -19.9450 C.ar  130  PHE130     -0.0042
    128  CE1      -17.8290  -26.6490  -18.1460 C.ar  130  PHE130     -0.0003
    129  CE2      -18.2860  -27.5560  -20.3280 C.ar  130  PHE130     -0.0003
    130  CZ       -17.3990  -26.9690  -19.4220 C.ar  130  PHE130     -0.0000
    131  N        -27.6180  -20.6540  -12.1300 N.3   152  LYS152     -0.1231
    132  CA       -27.3430  -19.5440  -11.2250 C.3   152  LYS152      0.1693
    133  C        -25.9220  -19.6940  -10.7110 C.2   152  LYS152      0.2592
    134  O        -25.4260  -20.8140  -10.5340 O.2   152  LYS152     -0.2718
    135  CB       -28.3190  -19.5450  -10.0500 C.3   152  LYS152      0.0285
    136  CG       -29.7990  -19.3490  -10.4200 C.3   152  LYS152      0.0035
    137  CD       -30.1210  -17.8580  -10.5680 C.3   152  LYS152      0.0206
    138  CE       -31.6030  -17.6060  -10.8710 C.3   152  LYS152      0.1093
    139  NZ       -32.5300  -18.3320   -9.9370 N.3   152  LYS152     -0.1314
    140  N        -25.2880  -18.5620  -10.4600 N.am  153  ASP153     -0.1960
    141  CA       -23.9720  -18.4970   -9.8500 C.3   153  ASP153      0.1840
    142  C        -24.1520  -18.6610   -8.3390 C.2   153  ASP153      0.2622
    143  O        -24.6630  -17.7660   -7.6590 O.2   153  ASP153     -0.2715
    144  CB       -23.3660  -17.1210  -10.1670 C.3   153  ASP153      0.1450
    145  CG       -21.9940  -16.9230   -9.5760 C.2   153  ASP153      0.3671
    146  OD1      -21.3170  -15.9620  -10.0070 O.co2 153  ASP153     -0.2456
    147  OD2      -21.5840  -17.6840   -8.6650 O.co2 153  ASP153     -0.2456
    148  N        -23.7260  -19.7990   -7.7780 N.am  154  ILE154     -0.1963
    149  CA       -23.9540  -20.0540   -6.3530 C.3   154  ILE154      0.1727
    150  C        -23.1950  -19.1010   -5.4060 C.2   154  ILE154      0.2616
    151  O        -23.5450  -18.9780   -4.2410 O.2   154  ILE154     -0.2715
    152  CB       -23.7060  -21.5690   -6.0070 C.3   154  ILE154      0.0290
    153  CG1      -24.2880  -21.9190   -4.6350 C.3   154  ILE154      0.0022
    154  CG2      -22.2020  -21.8740   -6.0860 C.3   154  ILE154      0.0023
    155  CD1      -24.3210  -23.4560   -4.3240 C.3   154  ILE154      0.0001
    156  N        -22.1610  -18.4280   -5.9190 N.am  155  TYR155     -0.1974
    157  CA       -21.4140  -17.4480   -5.1400 C.3   155  TYR155      0.1639
    158  C        -22.3060  -16.2690   -4.7830 C.2   155  TYR155      0.2290
    159  O        -21.9940  -15.5360   -3.8540 O.2   155  TYR155     -0.2864
    160  CB       -20.1930  -16.9190   -5.9010 C.3   155  TYR155      0.0560
    161  CG       -19.1450  -17.9480   -6.2810 C.ar  155  TYR155     -0.0198
    162  CD1      -18.2780  -17.7010   -7.3320 C.ar  155  TYR155     -0.0009
    163  CD2      -19.0310  -19.1570   -5.5890 C.ar  155  TYR155     -0.0009
    164  CE1      -17.2860  -18.6230   -7.7020 C.ar  155  TYR155      0.0417
    165  CE2      -18.0520  -20.0840   -5.9430 C.ar  155  TYR155      0.0417
    166  CZ       -17.1960  -19.8120   -6.9910 C.ar  155  TYR155      0.1957
    167  OH       -16.2330  -20.7290   -7.3450 O.3   155  TYR155     -0.2866
    168  N        -18.0710  -28.8700   -5.8120 N.3   169  ASP169     -0.1225
    169  CA       -16.9190  -29.1270   -6.6720 C.3   169  ASP169      0.1805
    170  C        -16.8990  -27.9620   -7.6420 C.2   169  ASP169      0.2598
    171  O        -17.5330  -28.0080   -8.7160 O.2   169  ASP169     -0.2718
    172  CB       -17.1300  -30.4450   -7.4190 C.3   169  ASP169      0.1424
    173  CG       -16.0340  -30.7470   -8.4280 C.2   169  ASP169      0.3668
    174  OD1      -14.9960  -30.0540   -8.4320 O.co2 169  ASP169     -0.2456
    175  OD2      -16.2250  -31.6890   -9.2420 O.co2 169  ASP169     -0.2456
    176  N        -16.2340  -26.9030   -7.2010 N.am  170  LEU170     -0.1966
    177  CA       -16.0270  -25.6980   -8.0080 C.3   170  LEU170      0.1713
    178  C        -14.7690  -25.0080   -7.5130 C.2   170  LEU170      0.2458
    179  O        -14.1690  -25.4320   -6.5170 O.2   170  LEU170     -0.2730
    180  CB       -17.2780  -24.7880   -7.9880 C.3   170  LEU170      0.0310
    181  CG       -18.0260  -24.6460   -6.6600 C.3   170  LEU170      0.0022
    182  CD1      -17.1870  -24.0230   -5.5700 C.3   170  LEU170      0.0001
    183  CD2      -19.2400  -23.7570   -6.9920 C.3   170  LEU170      0.0001
    184  N        -14.3080  -23.9750   -8.2240 N.am  171  PRO171     -0.2727
    185  CA       -12.9510  -23.5030   -7.9100 C.3   171  PRO171      0.1402
    186  C        -12.7600  -22.7880   -6.5720 C.2   171  PRO171      0.2269
    187  O        -11.6900  -22.8630   -5.9860 O.2   171  PRO171     -0.2865
    188  CB       -12.6460  -22.5370   -9.0760 C.3   171  PRO171      0.0296
    189  CG       -13.4770  -23.0730  -10.2220 C.3   171  PRO171      0.0237
    190  CD       -14.7660  -23.5400   -9.5660 C.3   171  PRO171      0.0939
    191  N        -14.8910  -30.5280   -2.5310 N.3   193  TYR193     -0.1241
    192  CA       -13.8230  -31.2690   -3.2300 C.3   193  TYR193      0.1605
    193  C        -12.9360  -30.2430   -3.9320 C.2   193  TYR193      0.2264
    194  O        -13.4280  -29.3660   -4.6630 O.2   193  TYR193     -0.2867
    195  CB       -14.4800  -32.2000   -4.2420 C.3   193  TYR193      0.0534
    196  CG       -13.5300  -32.8440   -5.2250 C.ar  193  TYR193     -0.0201
    197  CD1      -13.2110  -32.2200   -6.4270 C.ar  193  TYR193     -0.0009
    198  CD2      -12.9080  -34.0630   -4.9080 C.ar  193  TYR193     -0.0009
    199  CE1      -12.3320  -32.8140   -7.3340 C.ar  193  TYR193      0.0417
    200  CE2      -12.0400  -34.6730   -5.8000 C.ar  193  TYR193      0.0417
    201  CZ       -11.7450  -34.0260   -6.9990 C.ar  193  TYR193      0.1957
    202  OH       -10.9050  -34.6160   -7.9120 O.3   193  TYR193     -0.2866
@<TRIPOS>BOND
     1   119   117    1
     2   117   116    2
     3   117   118    1
     4   129   127   ar
     5   129   130   ar
     6   120   121    1
     7   116   115    1
     8   127   125   ar
     9   130   128   ar
    10   121   122    1
    11   121   124    1
    12   115   114    1
    13   125   124    1
    14   125   126   ar
    15   122   123    2
    16   111   112    2
    17   111   110    1
    18     1     7    1
    19     1     2    1
    20     7     6    1
    21   128   126   ar
    22   113   110    1
    23   113   114    1
    24   110   109    1
    25     2     5    1
    26     2     3    1
    27    66    65    1
    28     6     5    1
    29   104   103    2
    30    65    62    1
    31     3     4    2
    32     3     8   am
    33   109   103   am
    34    62    63    1
    35    62    61    1
    36    64    63    2
    37    60    59    2
    38   103   102    1
    39     8     9    1
    40    61    59   am
    41    59    58    1
    42    15    14    2
    43     9    12    1
    44     9    10    1
    45    23    21    1
    46    97    98    1
    47    97    96    1
    48    99    98   ar
    49   102   105    1
    50   102   101    1
    51    98   100   ar
    52    12    13    1
    53    14    16   am
    54    14    13    1
    55    58    57    1
    56   106   105    1
    57   106   108    1
    58    17    10   am
    59    17    18    1
    60    10    11    2
    61   105   107    1
    62    22    21    1
    63    22    24    1
    64    55    54    1
    65   101    94   am
    66    95    94    2
    67    21    18    1
    68    96    93    1
    69    94    93    1
    70    57    52   am
    71    18    19    1
    72    67    68    1
    73    93    92    1
    74    52    53    2
    75    52    51    1
    76    56    54    1
    77    71    68    1
    78    54    51    1
    79    68    69    1
    80   131   132    1
    81    51    50    1
    82    19    20    2
    83    19    25   am
    84    92    82   am
    85    50    48   am
    86   132   133    1
    87   132   135    1
    88   138   137    1
    89   138   139    1
    90    69    70    2
    91    69    72   am
    92   133   134    2
    93   133   140   am
    94    25    26    1
    95   137   136    1
    96    82    83    2
    97    82    81    1
    98    48    49    2
    99    48    47    1
   100   140   141    1
   101   136   135    1
   102   189   190    1
   103   189   188    1
   104   144   141    1
   105   144   145    1
   106    47    46    1
   107    72    73    1
   108   146   145   ar
   109   141   142    1
   110    28    27    2
   111   145   147   ar
   112   190   184    1
   113    81    80    1
   114    81    84    1
   115    27    26    1
   116    26    29    1
   117   175   173   ar
   118   188   185    1
   119    46    43   am
   120   171   170    2
   121    73    74    1
   122    73    76    1
   123   174   173   ar
   124   173   172    1
   125    84    85    1
   126    74    75    2
   127   142   148   am
   128   142   143    2
   129    39    38   ar
   130    29    31    1
   131    29    30    1
   132   184   185    1
   133   184   178   am
   134    40    38   ar
   135   177   180    1
   136   177   178    1
   137   177   176    1
   138   180   181    1
   139    76    77    1
   140   202   201    1
   141   185   186    1
   142   148   149    1
   143    38    37    1
   144   164   162   ar
   145   164   166   ar
   146   170   176   am
   147   170   169    1
   148    43    42    1
   149    43    44    2
   150   178   179    2
   151    85    86   ar
   152    85    87   ar
   153   172   169    1
   154    86    88   ar
   155   167   166    1
   156   199   201   ar
   157   199   197   ar
   158   162   161   ar
   159    42    45    1
   160    42    41    1
   161   201   200   ar
   162   183   181    1
   163   166   165   ar
   164    35    34    2
   165    87    89   ar
   166   169   168    1
   167   181   182    1
   168    37    36    1
   169   186   187    2
   170    88    90   ar
   171    77    79    1
   172    77    78    1
   173   197   196   ar
   174   149   152    1
   175   149   150    1
   176   161   160    1
   177   161   163   ar
   178    41    34   am
   179   154   152    1
   180    34    33    1
   181   152   153    1
   182   165   163   ar
   183   156   150   am
   184   156   157    1
   185    36    33    1
   186   160   157    1
   187    89    90   ar
   188   200   198   ar
   189    90    91    1
   190   150   151    2
   191   196   198   ar
   192   196   195    1
   193   157   158    1
   194    33    32    1
   195   158   159    2
   196   194   193    2
   197   153   155    1
   198   195   192    1
   199   193   192    1
   200   192   191    1
