@<TRIPOS>MOLECULE
tmp/3mb6A00.pdb
 169 160 0 0 0
SMALL
GASTEIGER

@<TRIPOS>ATOM
      1  N         33.5980   13.7960   15.7220 N.3    41  ARG41      -0.1245
      2  CA        32.6830   14.3620   16.6890 C.3    41  ARG41       0.1563
      3  C         31.8420   13.2170   17.2550 C.2    41  ARG41       0.2260
      4  O         31.3380   12.3770   16.4990 O.2    41  ARG41      -0.2867
      5  CB        31.8330   15.4360   15.9830 C.3    41  ARG41       0.0307
      6  CG        30.4670   15.7330   16.5450 C.3    41  ARG41       0.0489
      7  CD        29.9790   17.0950   16.0530 C.3    41  ARG41       0.2205
      8  NE        29.1940   17.0390   14.8190 N.pl3  41  ARG41      -0.0865
      9  CZ        27.8640   17.1540   14.7600 C.cat  41  ARG41       0.5346
     10  NH1       27.1430   17.3240   15.8660 N.pl3  41  ARG41       0.1354
     11  NH2       27.2470   17.0970   13.5860 N.pl3  41  ARG41       0.1354
     12  N         28.5290   11.8710   18.6590 N.3    43  LEU43      -0.1245
     13  CA        27.1490   12.2930   18.4290 C.3    43  LEU43       0.1561
     14  C         26.2050   11.8460   19.5380 C.2    43  LEU43       0.2260
     15  O         25.2930   12.5880   19.9160 O.2    43  LEU43      -0.2867
     16  CB        26.6400   11.8040   17.0700 C.3    43  LEU43       0.0270
     17  CG        27.2820   12.3950   15.8140 C.3    43  LEU43       0.0019
     18  CD1       26.9170   11.5490   14.5990 C.3    43  LEU43       0.0001
     19  CD2       26.8550   13.8400   15.6060 C.3    43  LEU43       0.0001
     20  N         28.2230    6.5840   19.4390 N.3    51  VAL51      -0.1245
     21  CA        28.0530    6.9090   18.0310 C.3    51  VAL51       0.1561
     22  C         28.8430    8.1660   17.6770 C.2    51  VAL51       0.2260
     23  O         28.7290    9.1860   18.3630 O.2    51  VAL51      -0.2867
     24  CB        26.5480    7.0700   17.6890 C.3    51  VAL51       0.0252
     25  CG1       26.3390    7.5370   16.2700 C.3    51  VAL51       0.0019
     26  CG2       25.8050    5.7480   17.9240 C.3    51  VAL51       0.0019
     27  N         29.1730    7.4350    9.7280 N.3    64  VAL64      -0.1245
     28  CA        28.7870    7.3190   11.1210 C.3    64  VAL64       0.1561
     29  C         29.3880    6.0460   11.6730 C.2    64  VAL64       0.2260
     30  O         29.2410    4.9680   11.0820 O.2    64  VAL64      -0.2867
     31  CB        27.2530    7.3540   11.2880 C.3    64  VAL64       0.0252
     32  CG1       26.8450    6.9100   12.6530 C.3    64  VAL64       0.0019
     33  CG2       26.7370    8.7760   11.0190 C.3    64  VAL64       0.0019
     34  N         29.5490    3.5180   14.8520 N.3    66  LYS66      -0.1245
     35  CA        28.9090    3.0510   16.0580 C.3    66  LYS66       0.1561
     36  C         29.8050    2.0190   16.7390 C.2    66  LYS66       0.2260
     37  O         29.9610    0.8960   16.2490 O.2    66  LYS66      -0.2867
     38  CB        27.5500    2.4520   15.7050 C.3    66  LYS66       0.0271
     39  CG        26.7730    1.8720   16.8410 C.3    66  LYS66       0.0035
     40  CD        25.4640    1.3350   16.2760 C.3    66  LYS66       0.0206
     41  CE        24.6470    0.6180   17.3040 C.3    66  LYS66       0.1093
     42  NZ        23.3740    0.2380   16.6170 N.3    66  LYS66      -0.1314
     43  N         23.3210   -8.2340   15.4100 N.3    79  GLU79      -0.1245
     44  CA        23.1440   -6.9800   14.6950 C.3    79  GLU79       0.1567
     45  C         23.8750   -6.9860   13.3510 C.2    79  GLU79       0.2260
     46  O         23.3350   -6.5390   12.3280 O.2    79  GLU79      -0.2867
     47  CB        23.5850   -5.7740   15.5540 C.3    79  GLU79       0.0388
     48  CG        23.2860   -4.4160   14.8930 C.3    79  GLU79       0.1160
     49  CD        23.5760   -3.2200   15.7950 C.2    79  GLU79       0.3649
     50  OE1       23.9270   -3.4240   16.9820 O.co2  79  GLU79      -0.2457
     51  OE2       23.4270   -2.0790   15.3140 O.co2  79  GLU79      -0.2457
     52  N         19.1070    1.2770    6.7160 N.3    93  ILE93      -0.1245
     53  CA        20.4730    1.7770    6.8380 C.3    93  ILE93       0.1561
     54  C         21.4910    0.7460    6.2990 C.2    93  ILE93       0.2260
     55  O         21.3830   -0.4680    6.5640 O.2    93  ILE93      -0.2867
     56  CB        20.7750    2.2480    8.2970 C.3    93  ILE93       0.0252
     57  CG1       21.9880    3.1910    8.3220 C.3    93  ILE93       0.0019
     58  CG2       20.9210    1.1080    9.2640 C.3    93  ILE93       0.0019
     59  CD1       21.6700    4.5390    7.6830 C.3    93  ILE93       0.0001
     60  N         28.4140    3.0940    9.0560 N.3   111  PHE111     -0.1227
     61  CA        27.2120    3.3240    8.2630 C.3   111  PHE111      0.1736
     62  C         27.3650    4.5610    7.3820 C.2   111  PHE111      0.2595
     63  O         28.0690    5.5180    7.7300 O.2   111  PHE111     -0.2718
     64  CB        25.9900    3.5620    9.1610 C.3   111  PHE111      0.0547
     65  CG        25.7380    2.4840   10.1620 C.ar  111  PHE111     -0.0202
     66  CD1       25.0230    1.3300    9.8140 C.ar  111  PHE111     -0.0042
     67  CD2       26.1990    2.6160   11.4570 C.ar  111  PHE111     -0.0042
     68  CE1       24.7740    0.3400   10.7570 C.ar  111  PHE111     -0.0003
     69  CE2       25.9890    1.6270   12.3980 C.ar  111  PHE111     -0.0003
     70  CZ        25.2570    0.4730   12.0520 C.ar  111  PHE111     -0.0000
     71  N         26.6670    4.5370    6.2490 N.am  112  GLU112     -0.1965
     72  CA        26.4010    5.7270    5.4520 C.3   112  GLU112      0.1733
     73  C         25.8790    6.8790    6.3270 C.2   112  GLU112      0.2616
     74  O         25.1780    6.6590    7.3200 O.2   112  GLU112     -0.2715
     75  CB        25.3570    5.3930    4.3710 C.3   112  GLU112      0.0429
     76  CG        24.0920    4.7110    4.9270 C.3   112  GLU112      0.1163
     77  CD        22.9150    4.6460    3.9370 C.2   112  GLU112      0.3649
     78  OE1       22.9990    5.2200    2.8260 O.co2 112  GLU112     -0.2457
     79  OE2       21.9120    4.0000    4.2790 O.co2 112  GLU112     -0.2457
     80  N         26.2200    8.1050    5.9600 N.am  113  HIS113     -0.1959
     81  CA        25.7540    9.2540    6.7200 C.3   113  HIS113      0.1787
     82  C         24.3300    9.6050    6.2960 C.2   113  HIS113      0.2620
     83  O         24.0150    9.5920    5.1060 O.2   113  HIS113     -0.2715
     84  CB        26.6970   10.4370    6.5110 C.3   113  HIS113      0.0785
     85  CG        26.3910   11.6180    7.3780 C.ar  113  HIS113      0.0821
     86  ND1       26.0630   12.8520    6.8620 N.ar  113  HIS113     -0.2267
     87  CD2       26.3630   11.7530    8.7250 C.ar  113  HIS113      0.1154
     88  CE1       25.8520   13.7000    7.8530 C.ar  113  HIS113      0.1986
     89  NE2       26.0250   13.0580    8.9940 N.ar  113  HIS113     -0.2212
     90  N         23.4660    9.8830    7.2700 N.am  114  VAL114     -0.1977
     91  CA        22.1110   10.3740    6.9770 C.3   114  VAL114      0.1596
     92  C         21.9710   11.7970    7.5250 C.2   114  VAL114      0.2287
     93  O         21.5350   12.0100    8.6610 O.2   114  VAL114     -0.2864
     94  CB        20.9800    9.4310    7.4990 C.3   114  VAL114      0.0276
     95  CG1       19.6070    9.9400    7.0540 C.3   114  VAL114      0.0022
     96  CG2       21.1890    8.0060    6.9980 C.3   114  VAL114      0.0022
     97  N         20.9100   15.2770    8.6220 N.3   116  ASN116     -0.1240
     98  CA        21.7540   14.9880    9.7900 C.3   116  ASN116      0.1653
     99  C         20.7980   14.4680   10.8640 C.2   116  ASN116      0.2266
    100  O         21.1520   14.3770   12.0460 O.2   116  ASN116     -0.2867
    101  CB        22.4120   16.2650   10.3440 C.3   116  ASN116      0.1155
    102  CG        23.2700   16.9970    9.3250 C.2   116  ASN116      0.2627
    103  OD1       22.8780   18.0460    8.8030 O.2   116  ASN116     -0.2716
    104  ND2       24.4550   16.4620    9.0540 N.am  116  ASN116     -0.0877
    105  N         17.0590   12.9470   12.6690 N.3   118  ASP118     -0.1239
    106  CA        15.7150   12.4980   13.0270 C.3   118  ASP118      0.1674
    107  C         15.1500   13.8370   13.5090 C.2   118  ASP118      0.2266
    108  O         15.9100   14.6110   14.0950 O.2   118  ASP118     -0.2867
    109  CB        15.7510   11.4250   14.1350 C.3   118  ASP118      0.1410
    110  CG        15.9620   12.0060   15.5370 C.2   118  ASP118      0.3668
    111  OD1       15.0420   12.6620   16.0680 O.co2 118  ASP118     -0.2456
    112  OD2       17.0420   11.7800   16.1250 O.co2 118  ASP118     -0.2456
    113  N         12.6930   15.6020   15.8750 N.3   121  GLN121     -0.1245
    114  CA        12.8780   17.0490   15.7390 C.3   121  GLN121      0.1566
    115  C         11.9560   17.6680   14.6730 C.2   121  GLN121      0.2260
    116  O         11.6420   18.8660   14.7100 O.2   121  GLN121     -0.2867
    117  CB        14.3400   17.3430   15.4060 C.3   121  GLN121      0.0367
    118  CG        15.3210   16.9590   16.5160 C.3   121  GLN121      0.0905
    119  CD        16.7500   16.8580   16.0220 C.2   121  GLN121      0.2608
    120  OE1       17.0420   17.1530   14.8610 O.2   121  GLN121     -0.2717
    121  NE2       17.6520   16.4330   16.9010 N.am  121  GLN121     -0.0878
    122  N         13.3290    8.2880   17.1580 N.3   158  HIS158     -0.1241
    123  CA        14.7930    8.4040   17.1540 C.3   158  HIS158      0.1621
    124  C         15.4670    7.4190   16.1950 C.2   158  HIS158      0.2264
    125  O         16.5830    7.6710   15.7360 O.2   158  HIS158     -0.2867
    126  CB        15.3860    8.2470   18.5570 C.3   158  HIS158      0.0745
    127  CG        16.8840    8.2540   18.5650 C.ar  158  HIS158      0.0817
    128  ND1       17.6200    9.4170   18.5210 N.ar  158  HIS158     -0.2268
    129  CD2       17.7820    7.2390   18.5500 C.ar  158  HIS158      0.1154
    130  CE1       18.9080    9.1210   18.5020 C.ar  158  HIS158      0.1986
    131  NE2       19.0330    7.8060   18.5130 N.ar  158  HIS158     -0.2212
    132  N         15.6130    8.0700   10.7280 N.3   161  MET161     -0.1245
    133  CA        16.4540    9.1840   10.3010 C.3   161  MET161      0.1570
    134  C         15.9870    9.7510    8.9710 C.2   161  MET161      0.2261
    135  O         15.8750    9.0270    7.9760 O.2   161  MET161     -0.2867
    136  CB        17.9210    8.7560   10.2140 C.3   161  MET161      0.0387
    137  CG        18.5830    8.5080   11.5680 C.3   161  MET161      0.0595
    138  SD        18.9330   10.0370   12.4700 S.3   161  MET161     -0.1393
    139  CE        20.1450   10.7420   11.3590 C.3   161  MET161      0.0692
    140  N         16.9900    2.9180   11.3530 N.3   172  ILE172     -0.1231
    141  CA        18.3120    2.6430   11.9190 C.3   172  ILE172      0.1692
    142  C         18.2350    1.8270   13.2110 C.2   172  ILE172      0.2592
    143  O         17.1440    1.4880   13.6600 O.2   172  ILE172     -0.2718
    144  CB        19.1120    3.9680   12.1690 C.3   172  ILE172      0.0266
    145  CG1       18.4550    4.8050   13.2810 C.3   172  ILE172      0.0019
    146  CG2       19.2370    4.7530   10.8850 C.3   172  ILE172      0.0020
    147  CD1       19.4060    5.7770   14.0280 C.3   172  ILE172      0.0001
    148  N         19.4100    1.5310   13.7800 N.am  173  ASP173     -0.1960
    149  CA        19.5890    0.8430   15.0620 C.3   173  ASP173      0.1840
    150  C         18.8670   -0.4860   15.1600 C.2   173  ASP173      0.2622
    151  O         17.8400   -0.6350   15.8360 O.2   173  ASP173     -0.2715
    152  CB        19.2900    1.7030   16.2950 C.3   173  ASP173      0.1450
    153  CG        20.0240    1.1780   17.5320 C.2   173  ASP173      0.3671
    154  OD1       20.2140    1.9420   18.5020 O.co2 173  ASP173     -0.2456
    155  OD2       20.4590   -0.0050   17.5160 O.co2 173  ASP173     -0.2456
    156  N         19.4580   -1.4470   14.4650 N.am  174  TRP174     -0.1974
    157  CA        19.0140   -2.8300   14.4180 C.3   174  TRP174      0.1640
    158  C         19.5400   -3.6810   15.5890 C.2   174  TRP174      0.2290
    159  O         19.4690   -4.9070   15.5640 O.2   174  TRP174     -0.2864
    160  CB        19.3620   -3.3990   13.0220 C.3   174  TRP174      0.0576
    161  CG        18.6110   -2.6440   11.9480 C.ar  174  TRP174      0.0006
    162  CD1       18.9620   -1.4400   11.3670 C.ar  174  TRP174      0.0946
    163  CD2       17.3440   -3.0030   11.3840 C.ar  174  TRP174      0.0152
    164  NE1       17.9830   -1.0500   10.4740 N.ar  174  TRP174     -0.2442
    165  CE2       16.9890   -1.9930   10.4650 C.ar  174  TRP174      0.0810
    166  CE3       16.4780   -4.0980   11.5600 C.ar  174  TRP174      0.0012
    167  CZ2       15.7970   -2.0440    9.7050 C.ar  174  TRP174      0.0191
    168  CZ3       15.2900   -4.1370   10.8180 C.ar  174  TRP174      0.0001
    169  CH2       14.9700   -3.1220    9.8970 C.ar  174  TRP174      0.0015
@<TRIPOS>BOND
     1    78    77   ar
     2    77    79   ar
     3    77    76    1
     4    75    76    1
     5    75    72    1
     6    83    82    2
     7    72    71    1
     8    72    73    1
     9    80    73   am
    10    80    81    1
    11    71    62   am
    12    82    81    1
    13    82    90   am
    14    54    55    2
    15    54    53    1
    16    73    74    2
    17    84    81    1
    18    84    85    1
    19    52    53    1
    20    53    56    1
    21    86    85   ar
    22    86    88   ar
    23    91    90    1
    24    91    94    1
    25    91    92    1
    26    96    94    1
    27    95    94    1
    28    85    87   ar
    29    62    63    2
    30    62    61    1
    31    92    93    2
    32    59    57    1
    33    88    89   ar
    34   135   134    2
    35    61    60    1
    36    61    64    1
    37    56    57    1
    38    56    58    1
    39    97    98    1
    40    87    89   ar
    41   103   102    2
    42   134   133    1
    43   104   102   am
    44    64    65    1
    45   102   101    1
    46   167   169   ar
    47   167   165   ar
    48    27    28    1
    49    98   101    1
    50    98    99    1
    51    66    65   ar
    52    66    68   ar
    53   169   168   ar
    54    65    67   ar
    55   136   133    1
    56   136   137    1
    57   133   132    1
    58   165   164   ar
    59   165   163   ar
    60   164   162   ar
    61    68    70   ar
    62   168   166   ar
    63    99   100    2
    64   146   144    1
    65    33    31    1
    66    30    29    2
    67    28    31    1
    68    28    29    1
    69    31    32    1
    70   140   141    1
    71   139   138    1
    72   162   161   ar
    73   163   166   ar
    74   163   161   ar
    75    67    69   ar
    76   137   138    1
    77   141   144    1
    78   141   142    1
    79   161   160    1
    80    70    69   ar
    81   144   145    1
    82    46    45    2
    83   105   106    1
    84   160   157    1
    85   106   107    1
    86   106   109    1
    87   142   143    2
    88   142   148   am
    89   145   147    1
    90    45    44    1
    91   107   108    2
    92    11     9    1
    93   148   149    1
    94   109   110    1
    95   157   156    1
    96   157   158    1
    97   156   150   am
    98    18    17    1
    99   115   116    2
   100   115   114    1
   101    44    43    1
   102    44    47    1
   103     9     8    2
   104     9    10    1
   105     8     7    1
   106    34    35    1
   107   120   119    2
   108    48    47    1
   109    48    49    1
   110   149   150    1
   111   149   152    1
   112   150   151    2
   113    51    49   ar
   114   117   114    1
   115   117   118    1
   116   110   111   ar
   117   110   112   ar
   118   159   158    2
   119    19    17    1
   120    38    35    1
   121    38    39    1
   122     1     2    1
   123   125   124    2
   124   114   113    1
   125    49    50   ar
   126    17    16    1
   127     5     6    1
   128     5     2    1
   129   119   118    1
   130   119   121   am
   131     7     6    1
   132    35    36    1
   133   124   123    1
   134    37    36    2
   135    25    24    1
   136    40    39    1
   137    40    41    1
   138   152   153    1
   139     4     3    2
   140    42    41    1
   141     2     3    1
   142    16    13    1
   143   123   122    1
   144   123   126    1
   145   155   153   ar
   146   153   154   ar
   147    22    21    1
   148    22    23    2
   149    24    26    1
   150    24    21    1
   151    21    20    1
   152    13    12    1
   153    13    14    1
   154   130   131   ar
   155   130   128   ar
   156   131   129   ar
   157   128   127   ar
   158   129   127   ar
   159   126   127    1
   160    14    15    2
