@<TRIPOS>MOLECULE
tmp/3mb8A00.pdb
 154 149 0 0 0
SMALL
GASTEIGER

@<TRIPOS>ATOM
      1  N         49.3100   38.8350   55.2350 N.3    26  GLY26      -0.1225
      2  CA        50.2610   37.7060   55.3350 C.3    26  GLY26       0.1811
      3  C         49.5970   36.3310   55.3890 C.2    26  GLY26       0.2280
      4  O         50.0720   35.3620   54.7830 O.2    26  GLY26      -0.2866
      5  N         51.9050   35.4250   52.3970 N.3    68  GLY68      -0.1210
      6  CA        52.7530   34.5460   53.2250 C.3    68  GLY68       0.1956
      7  C         53.7460   35.3510   54.0540 C.2    68  GLY68       0.2611
      8  O         53.9240   36.5630   53.8410 O.2    68  GLY68      -0.2717
      9  N         54.4240   34.6790   54.9770 N.am   69  ILE69      -0.1979
     10  CA        55.3990   35.3620   55.8260 C.3    69  ILE69       0.1595
     11  C         56.7120   35.5980   55.0590 C.2    69  ILE69       0.2287
     12  O         57.3020   34.6490   54.5110 O.2    69  ILE69      -0.2864
     13  CB        55.6390   34.5950   57.1620 C.3    69  ILE69       0.0276
     14  CG1       54.3710   34.6710   58.0310 C.3    69  ILE69       0.0022
     15  CG2       56.8450   35.1590   57.9320 C.3    69  ILE69       0.0022
     16  CD1       54.3650   33.7850   59.2640 C.3    69  ILE69       0.0001
     17  N         49.5490   46.7700   52.1170 N.3    91  ARG91      -0.1245
     18  CA        49.7280   45.6550   53.0220 C.3    91  ARG91       0.1563
     19  C         49.0130   45.9540   54.3420 C.2    91  ARG91       0.2260
     20  O         49.3040   46.9520   54.9950 O.2    91  ARG91      -0.2867
     21  CB        51.2180   45.3770   53.2620 C.3    91  ARG91       0.0307
     22  CG        51.4510   44.4200   54.4560 C.3    91  ARG91       0.0489
     23  CD        52.8940   43.8770   54.5870 C.3    91  ARG91       0.2205
     24  NE        53.1450   43.5830   56.0010 N.pl3  91  ARG91      -0.0865
     25  CZ        52.6010   42.5790   56.6780 C.cat  91  ARG91       0.5346
     26  NH1       51.7770   41.7220   56.0820 N.pl3  91  ARG91       0.1354
     27  NH2       52.8680   42.4380   57.9710 N.pl3  91  ARG91       0.1354
     28  N         50.2550   42.3910   60.5680 N.3    94  THR94      -0.1203
     29  CA        50.4830   42.5230   62.0040 C.3    94  THR94       0.1994
     30  C         51.9460   42.8290   62.2410 C.2    94  THR94       0.2618
     31  O         52.7550   42.7210   61.3300 O.2    94  THR94      -0.2717
     32  CB        50.0120   41.2990   62.8220 C.3    94  THR94       0.1784
     33  OG1       50.6250   40.1020   62.3220 O.3    94  THR94      -0.2211
     34  CG2       48.4970   41.1690   62.7400 C.3    94  THR94       0.0376
     35  N         52.2640   43.2750   63.4440 N.am   95  CYS95      -0.1955
     36  CA        53.6090   43.7370   63.7530 C.3    95  CYS95       0.1843
     37  C         53.8490   43.7250   65.2480 C.2    95  CYS95       0.2626
     38  O         52.9090   43.5930   66.0400 O.2    95  CYS95      -0.2714
     39  CB        53.8190   45.1670   63.2460 C.3    95  CYS95       0.0997
     40  SG        52.8640   46.4040   64.1860 S.3    95  CYS95      -0.0797
     41  N         55.1170   43.8570   65.6210 N.am   96  GLY96      -0.1954
     42  CA        55.5010   44.1190   66.9960 C.3    96  GLY96       0.1869
     43  C         55.7200   45.5960   67.2430 C.2    96  GLY96       0.2309
     44  O         56.0380   46.3650   66.3160 O.2    96  GLY96      -0.2863
     45  N         63.5820   37.6420   59.6970 N.3   162  TYR162     -0.1227
     46  CA        63.3980   36.6340   60.7330 C.3   162  TYR162      0.1736
     47  C         62.4430   37.1860   61.7890 C.2   162  TYR162      0.2595
     48  O         62.1270   38.3900   61.7940 O.2   162  TYR162     -0.2718
     49  CB        64.7470   36.1930   61.3610 C.3   162  TYR162      0.0548
     50  CG        65.7040   37.3340   61.6230 C.ar  162  TYR162     -0.0200
     51  CD1       66.5150   37.8360   60.5970 C.ar  162  TYR162     -0.0009
     52  CD2       65.8060   37.9150   62.8950 C.ar  162  TYR162     -0.0009
     53  CE1       67.3870   38.8850   60.8270 C.ar  162  TYR162      0.0417
     54  CE2       66.6920   38.9530   63.1270 C.ar  162  TYR162      0.0417
     55  CZ        67.4780   39.4270   62.0840 C.ar  162  TYR162      0.1957
     56  OH        68.3620   40.4790   62.2740 O.3   162  TYR162     -0.2866
     57  N         61.9560   36.2890   62.6410 N.am  163  PHE163     -0.1976
     58  CA        60.9880   36.6180   63.6930 C.3   163  PHE163      0.1639
     59  C         61.6630   36.4940   65.0700 C.2   163  PHE163      0.2290
     60  O         61.7380   37.4720   65.8380 O.2   163  PHE163     -0.2864
     61  CB        59.8050   35.6630   63.5920 C.3   163  PHE163      0.0560
     62  CG        58.7200   35.8940   64.6150 C.ar  163  PHE163     -0.0200
     63  CD1       57.7530   36.8910   64.4140 C.ar  163  PHE163     -0.0042
     64  CD2       58.6420   35.0890   65.7520 C.ar  163  PHE163     -0.0042
     65  CE1       56.7250   37.0880   65.3360 C.ar  163  PHE163     -0.0003
     66  CE2       57.6110   35.2740   66.6960 C.ar  163  PHE163     -0.0003
     67  CZ        56.6610   36.2670   66.5030 C.ar  163  PHE163     -0.0000
     68  N         64.6630   36.0450   67.8670 N.3   165  GLN165     -0.1245
     69  CA        65.8550   36.8560   68.0880 C.3   165  GLN165      0.1566
     70  C         66.9200   36.0590   68.8290 C.2   165  GLN165      0.2260
     71  O         67.7790   36.6380   69.4620 O.2   165  GLN165     -0.2867
     72  CB        65.5000   38.1450   68.8510 C.3   165  GLN165      0.0367
     73  CG        64.4470   39.0440   68.1410 C.3   165  GLN165      0.0905
     74  CD        65.0070   39.7970   66.9470 C.2   165  GLN165      0.2608
     75  OE1       66.1230   40.3290   66.9960 O.2   165  GLN165     -0.2717
     76  NE2       64.2360   39.8430   65.8590 N.am  165  GLN165     -0.0878
     77  N         57.8380   46.7250   64.1890 N.3   183  ILE183     -0.1231
     78  CA        58.6780   45.7390   63.5130 C.3   183  ILE183      0.1692
     79  C         57.8330   44.6500   62.8370 C.2   183  ILE183      0.2592
     80  O         56.8960   44.1370   63.4240 O.2   183  ILE183     -0.2718
     81  CB        59.7180   45.0950   64.4780 C.3   183  ILE183      0.0266
     82  CG1       60.5620   44.0530   63.7290 C.3   183  ILE183      0.0019
     83  CG2       59.0290   44.4990   65.7260 C.3   183  ILE183      0.0020
     84  CD1       61.9900   43.8950   64.2510 C.3   183  ILE183      0.0001
     85  N         58.1780   44.3060   61.6010 N.am  184  ASP184     -0.1960
     86  CA        57.5050   43.2120   60.9080 C.3   184  ASP184      0.1840
     87  C         58.4830   42.5560   59.9360 C.2   184  ASP184      0.2622
     88  O         59.6950   42.8080   60.0190 O.2   184  ASP184     -0.2715
     89  CB        56.1950   43.6860   60.2370 C.3   184  ASP184      0.1450
     90  CG        56.4040   44.2410   58.8380 C.2   184  ASP184      0.3671
     91  OD1       57.4480   44.8850   58.5970 O.co2 184  ASP184     -0.2456
     92  OD2       55.5180   44.0230   57.9640 O.co2 184  ASP184     -0.2456
     93  N         57.9690   41.7240   59.0290 N.am  185  MET185     -0.1963
     94  CA        58.8290   40.8930   58.1970 C.3   185  MET185      0.1736
     95  C         58.6320   41.1210   56.6980 C.2   185  MET185      0.2616
     96  O         59.3000   40.4830   55.8840 O.2   185  MET185     -0.2715
     97  CB        58.6380   39.4110   58.5510 C.3   185  MET185      0.0427
     98  CG        59.1290   39.0700   59.9630 C.3   185  MET185      0.0599
     99  SD        58.7300   37.3880   60.4420 S.3   185  MET185     -0.1393
    100  CE        59.8050   36.4440   59.3540 C.3   185  MET185      0.0692
    101  N         57.7050   42.0070   56.3280 N.am  186  GLU186     -0.1977
    102  CA        57.4510   42.2700   54.8920 C.3   186  GLU186      0.1602
    103  C         57.4270   43.7460   54.4700 C.2   186  GLU186      0.2287
    104  O         57.5430   44.0340   53.2720 O.2   186  GLU186     -0.2864
    105  CB        56.1380   41.6210   54.4070 C.3   186  GLU186      0.0415
    106  CG        55.9890   40.1350   54.6540 C.3   186  GLU186      0.1163
    107  CD        55.5070   39.8060   56.0690 C.2   186  GLU186      0.3649
    108  OE1       54.9030   40.6990   56.7270 O.co2 186  GLU186     -0.2457
    109  OE2       55.7280   38.6500   56.5160 O.co2 186  GLU186     -0.2457
    110  N         50.6230   43.1290   67.8070 N.3   208  ASP208     -0.1225
    111  CA        50.3020   41.8930   68.5280 C.3   208  ASP208      0.1805
    112  C         51.1870   41.5890   69.7440 C.2   208  ASP208      0.2598
    113  O         51.0590   40.5270   70.3630 O.2   208  ASP208     -0.2718
    114  CB        50.2540   40.6690   67.5850 C.3   208  ASP208      0.1424
    115  CG        51.6160   40.2750   67.0120 C.2   208  ASP208      0.3668
    116  OD1       52.6870   40.7960   67.4330 O.co2 208  ASP208     -0.2456
    117  OD2       51.5930   39.3990   66.1160 O.co2 208  ASP208     -0.2456
    118  N         52.0930   42.5100   70.0490 N.am  209  GLY209     -0.1957
    119  CA        53.0240   42.3530   71.1540 C.3   209  GLY209      0.1869
    120  C         54.1980   43.2930   70.9980 C.2   209  GLY209      0.2309
    121  O         54.1960   44.1830   70.1380 O.2   209  GLY209     -0.2863
    122  N         58.4350   42.7710   70.9470 N.3   211  PRO211     -0.2116
    123  CA        59.5450   41.8250   71.0840 C.3   211  PRO211      0.1372
    124  C         60.5930   42.2340   72.1250 C.2   211  PRO211      0.2244
    125  O         61.3070   41.3740   72.6280 O.2   211  PRO211     -0.2868
    126  CB        60.1520   41.7400   69.6690 C.3   211  PRO211      0.0268
    127  CG        59.4580   42.7530   68.8400 C.3   211  PRO211      0.0207
    128  CD        58.2130   43.1970   69.5480 C.3   211  PRO211      0.0892
    129  N         59.0110   40.3370   74.9960 N.3   214  TRP214     -0.1241
    130  CA        58.5630   38.9620   74.8210 C.3   214  TRP214      0.1605
    131  C         58.9330   38.1000   76.0400 C.2   214  TRP214      0.2264
    132  O         58.1960   37.1970   76.4400 O.2   214  TRP214     -0.2867
    133  CB        59.1880   38.3590   73.5770 C.3   214  TRP214      0.0550
    134  CG        58.4630   38.6810   72.2770 C.ar  214  TRP214      0.0003
    135  CD1       57.2340   39.2740   72.1240 C.ar  214  TRP214      0.0946
    136  CD2       58.9220   38.3610   70.9600 C.ar  214  TRP214      0.0152
    137  NE1       56.9140   39.3610   70.7780 N.ar  214  TRP214     -0.2442
    138  CE2       57.9310   38.7990   70.0470 C.ar  214  TRP214      0.0810
    139  CE3       60.0870   37.7540   70.4590 C.ar  214  TRP214      0.0012
    140  CZ2       58.0770   38.6550   68.6500 C.ar  214  TRP214      0.0191
    141  CZ3       60.2250   37.6020   69.0770 C.ar  214  TRP214      0.0001
    142  CH2       59.2160   38.0440   68.1950 C.ar  214  TRP214      0.0015
    143  N         53.0110   39.2360   74.2390 N.3   219  TYR219     -0.1241
    144  CA        52.6470   38.7270   72.9180 C.3   219  TYR219      0.1605
    145  C         51.3090   38.0140   73.0460 C.2   219  TYR219      0.2264
    146  O         51.1400   37.1790   73.9390 O.2   219  TYR219     -0.2867
    147  CB        53.7160   37.7500   72.4080 C.3   219  TYR219      0.0534
    148  CG        53.4090   37.1710   71.0500 C.ar  219  TYR219     -0.0201
    149  CD1       53.7780   37.8490   69.8920 C.ar  219  TYR219     -0.0009
    150  CD2       52.7380   35.9460   70.9200 C.ar  219  TYR219     -0.0009
    151  CE1       53.5040   37.3230   68.6360 C.ar  219  TYR219      0.0417
    152  CE2       52.4650   35.4060   69.6600 C.ar  219  TYR219      0.0417
    153  CZ        52.8450   36.1080   68.5270 C.ar  219  TYR219      0.1957
    154  OH        52.5770   35.6010   67.2780 O.3   219  TYR219     -0.2866
@<TRIPOS>BOND
     1    17    18    1
     2     5     6    1
     3    18    21    1
     4    18    19    1
     5     6     7    1
     6    21    22    1
     7   104   103    2
     8     8     7    2
     9     7     9   am
    10    19    20    2
    11   105   106    1
    12   105   102    1
    13    22    23    1
    14   103   102    1
    15    12    11    2
    16    23    24    1
    17   106   107    1
    18     4     3    2
    19   102   101    1
    20     9    10    1
    21    11    10    1
    22     1     2    1
    23     2     3    1
    24    10    13    1
    25    96    95    2
    26    24    25    2
    27   107   109   ar
    28   107   108   ar
    29    26    25    1
    30   101    95   am
    31    25    27    1
    32    95    94    1
    33    13    15    1
    34    13    14    1
    35    92    90   ar
    36    14    16    1
    37    94    97    1
    38    94    93    1
    39    97    98    1
    40    91    90   ar
    41    90    89    1
    42    93    87   am
    43   100    99    1
    44    45    46    1
    45    87    88    2
    46    87    86    1
    47    98    99    1
    48    89    86    1
    49    28    29    1
    50    51    53   ar
    51    51    50   ar
    52    46    49    1
    53    46    47    1
    54    53    55   ar
    55    86    85    1
    56    31    30    2
    57    49    50    1
    58    85    79   am
    59    50    52   ar
    60    47    48    2
    61    47    57   am
    62    29    30    1
    63    29    32    1
    64    55    56    1
    65    55    54   ar
    66    30    35   am
    67    33    32    1
    68    57    58    1
    69    34    32    1
    70    79    80    2
    71    79    78    1
    72    52    54   ar
    73    39    36    1
    74    39    40    1
    75    35    36    1
    76    78    77    1
    77    78    81    1
    78    61    58    1
    79    61    62    1
    80    58    59    1
    81    82    84    1
    82    82    81    1
    83    36    37    1
    84    63    62   ar
    85    63    65   ar
    86    81    83    1
    87    62    64   ar
    88    59    60    2
    89    37    41   am
    90    37    38    2
    91    65    67   ar
    92    41    42    1
    93    64    66   ar
    94    76    74   am
    95   117   115   ar
    96    44    43    2
    97    67    66   ar
    98    74    75    2
    99    74    73    1
   100    42    43    1
   101   115   116   ar
   102   115   114    1
   103   154   153    1
   104   114   111    1
   105   110   111    1
   106    68    69    1
   107    69    70    1
   108    69    72    1
   109    73    72    1
   110   142   140   ar
   111   142   141   ar
   112   153   151   ar
   113   153   152   ar
   114   111   112    1
   115   151   149   ar
   116   140   138   ar
   117    70    71    2
   118   127   128    1
   119   127   126    1
   120   141   139   ar
   121   128   122    1
   122   152   150   ar
   123   126   123    1
   124   112   118   am
   125   112   113    2
   126   149   148   ar
   127   138   137   ar
   128   138   136   ar
   129   118   119    1
   130   121   120    2
   131   139   136   ar
   132   137   135   ar
   133   150   148   ar
   134   122   123    1
   135   136   134   ar
   136   120   119    1
   137   148   147    1
   138   123   124    1
   139   135   134   ar
   140   124   125    2
   141   134   133    1
   142   147   144    1
   143   144   145    1
   144   144   143    1
   145   145   146    2
   146   133   130    1
   147   130   129    1
   148   130   131    1
   149   131   132    2
