@<TRIPOS>MOLECULE
tmp/3mbcA00.pdb
 103 103 0 0 0
SMALL
GASTEIGER

@<TRIPOS>ATOM
      1  N         35.2640   10.6220   17.0190 N.3   559  LYS559     -0.1245
      2  CA        34.0320   10.3880   16.2720 C.3   559  LYS559      0.1561
      3  C         34.1030    8.9890   15.6710 C.2   559  LYS559      0.2260
      4  O         34.6310    8.8180   14.5820 O.2   559  LYS559     -0.2867
      5  CB        33.8650   11.4210   15.1490 C.3   559  LYS559      0.0271
      6  CG        33.5970   12.8510   15.6100 C.3   559  LYS559      0.0035
      7  CD        32.2240   13.0020   16.2730 C.3   559  LYS559      0.0206
      8  CE        32.0490   14.4010   16.8770 C.3   559  LYS559      0.1093
      9  NZ        30.6970   14.5770   17.4220 N.3   559  LYS559     -0.1314
     10  N         32.7910    8.7400   23.7000 N.3   577  ALA577     -0.1231
     11  CA        33.6880    8.3860   24.7810 C.3   577  ALA577      0.1694
     12  C         34.0290    9.5670   25.6870 C.2   577  ALA577      0.2593
     13  O         34.7940    9.4140   26.6500 O.2   577  ALA577     -0.2718
     14  CB        34.9570    7.7740   24.2000 C.3   577  ALA577      0.0304
     15  N         33.5530   10.7580   25.3500 N.am  578  GLY578     -0.1942
     16  CA        33.8140   11.9170   26.1860 C.3   578  GLY578      0.2014
     17  C         32.8590   12.0210   27.3810 C.2   578  GLY578      0.2639
     18  O         32.1420   11.0700   27.7390 O.2   578  GLY578     -0.2714
     19  N         32.8770   13.1820   28.0100 N.am  579  GLY579     -0.1939
     20  CA        32.0420   13.4440   29.1780 C.3   579  GLY579      0.2014
     21  C         30.7980   14.1010   28.6910 C.2   579  GLY579      0.2640
     22  O         30.5670   14.1330   27.4580 O.2   579  GLY579     -0.2714
     23  N         30.0100   14.6370   29.6350 N.am  580  SER580     -0.1935
     24  CA        28.6670   15.1350   29.3500 C.3   580  SER580      0.2055
     25  C         28.5830   16.7070   29.2540 C.2   580  SER580      0.2643
     26  O         27.4880   17.3090   29.2170 O.2   580  SER580     -0.2714
     27  CB        27.6570   14.5400   30.3580 C.3   580  SER580      0.2130
     28  OG        28.0670   14.6840   31.7200 O.3   580  SER580     -0.2179
     29  N         29.7470   17.3400   29.1430 N.am  581  ALA581     -0.1963
     30  CA        29.8880   18.7470   28.6740 C.3   581  ALA581      0.1713
     31  C         29.1600   19.7960   29.5190 C.2   581  ALA581      0.2458
     32  O         28.1720   20.4010   29.0850 O.2   581  ALA581     -0.2730
     33  CB        29.4700   18.8750   27.1840 C.3   581  ALA581      0.0333
     34  N         29.6040   19.9760   30.7620 N.am  582  PRO582     -0.2716
     35  CA        28.9610   20.9500   31.6470 C.3   582  PRO582      0.1536
     36  C         28.8990   22.3770   31.0840 C.2   582  PRO582      0.2598
     37  O         27.9350   23.1060   31.3150 O.2   582  PRO582     -0.2715
     38  CB        29.8380   20.9190   32.9010 C.3   582  PRO582      0.0310
     39  CG        31.1030   20.1980   32.4720 C.3   582  PRO582      0.0237
     40  CD        30.7120   19.2670   31.4260 C.3   582  PRO582      0.0939
     41  N         29.9130   22.7840   30.3410 N.am  583  LYS583     -0.1964
     42  CA        29.9080   24.1260   29.7370 C.3   583  LYS583      0.1728
     43  C         28.7860   24.2660   28.7140 C.2   583  LYS583      0.2616
     44  O         28.2880   25.3930   28.4920 O.2   583  LYS583     -0.2715
     45  CB        31.2520   24.4330   29.0730 C.3   583  LYS583      0.0311
     46  CG        32.3880   24.6300   30.0420 C.3   583  LYS583      0.0038
     47  CD        33.6320   25.1110   29.3020 C.3   583  LYS583      0.0206
     48  CE        34.8800   24.9340   30.1130 C.3   583  LYS583      0.1093
     49  NZ        36.0570   24.8150   29.2160 N.3   583  LYS583     -0.1314
     50  N         28.3800   23.1440   28.1220 N.am  584  HIS584     -0.1973
     51  CA        27.3010   23.1600   27.1510 C.3   584  HIS584      0.1656
     52  C         25.9960   23.5030   27.8410 C.2   584  HIS584      0.2291
     53  O         25.1550   24.1630   27.2560 O.2   584  HIS584     -0.2864
     54  CB        27.1480   21.8350   26.3960 C.3   584  HIS584      0.0771
     55  CG        28.2440   21.5680   25.4300 C.ar  584  HIS584      0.0820
     56  ND1       28.1710   20.5910   24.4650 N.ar  584  HIS584     -0.2267
     57  CD2       29.4410   22.1750   25.2650 C.ar  584  HIS584      0.1154
     58  CE1       29.2830   20.5950   23.7580 C.ar  584  HIS584      0.1986
     59  NE2       30.0750   21.5390   24.2300 N.ar  584  HIS584     -0.2212
     60  N         25.2150   23.5840   21.9940 N.3   595  ARG595     -0.1231
     61  CA        26.2160   23.2870   20.9870 C.3   595  ARG595      0.1694
     62  C         26.6560   21.8220   20.9090 C.2   595  ARG595      0.2592
     63  O         27.5060   21.4750   20.0940 O.2   595  ARG595     -0.2718
     64  CB        27.4260   24.1750   21.1940 C.3   595  ARG595      0.0321
     65  CG        28.3740   23.8790   22.3510 C.3   595  ARG595      0.0489
     66  CD        29.5570   24.8710   22.2350 C.3   595  ARG595      0.2205
     67  NE        30.5480   24.8670   23.3130 N.pl3 595  ARG595     -0.0865
     68  CZ        30.4890   25.5780   24.4400 C.cat 595  ARG595      0.5346
     69  NH1       29.4630   26.3790   24.7030 N.pl3 595  ARG595      0.1354
     70  NH2       31.4850   25.4910   25.3210 N.pl3 595  ARG595      0.1354
     71  N         26.1160   21.0160   21.7990 N.am  596  TRP596     -0.1962
     72  CA        26.3230   19.5580   21.8320 C.3   596  TRP596      0.1771
     73  C         26.0750   18.8950   20.4980 C.2   596  TRP596      0.2619
     74  O         25.0290   19.0790   19.8960 O.2   596  TRP596     -0.2715
     75  CB        25.4270   18.9290   22.8770 C.3   596  TRP596      0.0590
     76  CG        25.5770   17.3950   23.0070 C.ar  596  TRP596      0.0006
     77  CD1       24.7910   16.4620   22.4090 C.ar  596  TRP596      0.0946
     78  CD2       26.5600   16.6580   23.7770 C.ar  596  TRP596      0.0152
     79  NE1       25.2160   15.1880   22.7320 N.ar  596  TRP596     -0.2442
     80  CE2       26.2980   15.2830   23.5750 C.ar  596  TRP596      0.0810
     81  CE3       27.6330   17.0220   24.6010 C.ar  596  TRP596      0.0012
     82  CZ2       27.0580   14.3020   24.1650 C.ar  596  TRP596      0.0191
     83  CZ3       28.3770   16.0630   25.1770 C.ar  596  TRP596      0.0001
     84  CH2       28.0700   14.6980   24.9980 C.ar  596  TRP596      0.0015
     85  N         27.0500   18.1200   20.0390 N.am  597  ASP597     -0.1971
     86  CA        26.9600   17.4440   18.7090 C.3   597  ASP597      0.1709
     87  C         26.4310   16.0270   18.8870 C.2   597  ASP597      0.2293
     88  O         27.0610   15.2020   19.5420 O.2   597  ASP597     -0.2864
     89  CB        28.3710   17.4350   18.0730 C.3   597  ASP597      0.1436
     90  CG        28.4040   16.8370   16.6480 C.2   597  ASP597      0.3671
     91  OD1       27.3330   16.4290   16.1050 O.co2 597  ASP597     -0.2456
     92  OD2       29.5220   16.7630   16.0760 O.co2 597  ASP597     -0.2456
     93  N         28.9420   26.5980   17.4930 N.3   644  ARG644     -0.1245
     94  CA        29.1960   27.0140   18.8930 C.3   644  ARG644      0.1563
     95  C         28.3960   28.2810   19.2570 C.2   644  ARG644      0.2260
     96  O         28.1710   28.5730   20.4470 O.2   644  ARG644     -0.2867
     97  CB        30.6920   27.2890   19.1340 C.3   644  ARG644      0.0307
     98  CG        30.9830   28.0010   20.4760 C.3   644  ARG644      0.0489
     99  CD        32.3820   28.6210   20.5530 C.3   644  ARG644      0.2205
    100  NE        33.4220   27.6110   20.7440 N.pl3 644  ARG644     -0.0865
    101  CZ        33.9730   27.2840   21.9130 C.cat 644  ARG644      0.5346
    102  NH1       33.6190   27.8990   23.0460 N.pl3 644  ARG644      0.1354
    103  NH2       34.9030   26.3340   21.9450 N.pl3 644  ARG644      0.1354
@<TRIPOS>BOND
     1     4     3    2
     2     5     6    1
     3     5     2    1
     4     6     7    1
     5     3     2    1
     6    92    90   ar
     7    91    90   ar
     8     2     1    1
     9     7     8    1
    10    90    89    1
    11     8     9    1
    12    93    94    1
    13    89    86    1
    14    86    87    1
    15    86    85    1
    16    87    88    2
    17    94    97    1
    18    94    95    1
    19    97    98    1
    20    95    96    2
    21    74    73    2
    22    85    73   am
    23    63    62    2
    24    98    99    1
    25    73    72    1
    26    99   100    1
    27   100   101    2
    28    62    61    1
    29    62    71   am
    30    61    64    1
    31    61    60    1
    32    64    65    1
    33    71    72    1
    34    72    75    1
    35   101   103    1
    36   101   102    1
    37    66    65    1
    38    66    67    1
    39    77    79   ar
    40    77    76   ar
    41    79    80   ar
    42    75    76    1
    43    76    78   ar
    44    67    68    2
    45    80    78   ar
    46    80    82   ar
    47    10    11    1
    48    58    59   ar
    49    58    56   ar
    50    78    81   ar
    51    82    84   ar
    52    14    11    1
    53    59    57   ar
    54    68    69    1
    55    68    70    1
    56    56    55   ar
    57    81    83   ar
    58    11    12    1
    59    84    83   ar
    60    57    55   ar
    61    15    12   am
    62    15    16    1
    63    55    54    1
    64    12    13    2
    65    16    17    1
    66    54    51    1
    67    51    52    1
    68    51    50    1
    69    33    30    1
    70    53    52    2
    71    17    18    2
    72    17    19   am
    73    22    21    2
    74    19    20    1
    75    50    43   am
    76    44    43    2
    77    30    29    1
    78    30    31    1
    79    21    20    1
    80    21    23   am
    81    43    42    1
    82    45    42    1
    83    45    46    1
    84    32    31    2
    85    29    25   am
    86    49    48    1
    87    26    25    2
    88    25    24    1
    89    47    46    1
    90    47    48    1
    91    24    23    1
    92    24    27    1
    93    31    34   am
    94    42    41    1
    95    41    36   am
    96    27    28    1
    97    34    40    1
    98    34    35    1
    99    36    37    2
   100    36    35    1
   101    40    39    1
   102    35    38    1
   103    39    38    1
