@<TRIPOS>MOLECULE
tmp/3mbfA00.pdb
 162 150 0 0 0
SMALL
GASTEIGER

@<TRIPOS>ATOM
      1  N        -21.9890  -23.6230   -2.4870 N.3    25  ALA25      -0.1245
      2  CA       -21.9930  -22.2210   -2.0360 C.3    25  ALA25       0.1562
      3  C        -23.3790  -21.9430   -1.4620 C.2    25  ALA25       0.2260
      4  O        -24.3740  -22.0530   -2.1780 O.2    25  ALA25      -0.2867
      5  CB       -21.6290  -21.2140   -3.1700 C.3    25  ALA25       0.0290
      6  N        -23.5710  -19.0350    0.5910 N.3    27  ASP27      -0.1225
      7  CA       -23.0670  -17.8380    1.2380 C.3    27  ASP27       0.1805
      8  C        -23.8060  -16.5510    0.9300 C.2    27  ASP27       0.2598
      9  O        -23.4030  -15.4940    1.4040 O.2    27  ASP27      -0.2718
     10  CB       -21.5750  -17.6730    0.9170 C.3    27  ASP27       0.1424
     11  CG       -21.3100  -17.4770   -0.5560 C.2    27  ASP27       0.3668
     12  OD1      -21.7330  -18.3520   -1.3610 O.co2  27  ASP27      -0.2456
     13  OD2      -20.6660  -16.4560   -0.8900 O.co2  27  ASP27      -0.2456
     14  N        -24.8740  -16.6290    0.1480 N.am   28  GLU28      -0.1965
     15  CA       -25.6530  -15.4410   -0.2220 C.3    28  GLU28       0.1733
     16  C        -25.9520  -14.4730    0.9480 C.2    28  GLU28       0.2617
     17  O        -26.4190  -14.8830    2.0200 O.2    28  GLU28      -0.2715
     18  CB       -26.9950  -15.8580   -0.8260 C.3    28  GLU28       0.0429
     19  CG       -26.9150  -16.7810   -2.0240 C.3    28  GLU28       0.1163
     20  CD       -26.9890  -18.2550   -1.6460 C.2    28  GLU28       0.3649
     21  OE1      -26.7030  -18.5810   -0.4840 O.co2  28  GLU28      -0.2457
     22  OE2      -27.3070  -19.0980   -2.5160 O.co2  28  GLU28      -0.2457
     23  N        -25.6910  -13.1920    0.7390 N.am   29  THR29      -0.1951
     24  CA       -26.1080  -12.1550    1.6800 C.3    29  THR29       0.1897
     25  C        -27.6360  -12.1950    1.8430 C.2    29  THR29       0.2313
     26  O        -28.3420  -12.6740    0.9560 O.2    29  THR29      -0.2863
     27  CB       -25.7620  -10.7620    1.1570 C.3    29  THR29       0.1794
     28  OG1      -26.2320  -10.6540   -0.1920 O.3    29  THR29      -0.2208
     29  CG2      -24.2650  -10.4960    1.1940 C.3    29  THR29       0.0378
     30  N        -29.2210  -10.8300   -1.3290 N.3    32  THR32      -0.1218
     31  CA       -29.2080  -11.7210   -2.4820 C.3    32  THR32       0.1862
     32  C        -30.2190  -12.8650   -2.2560 C.2    32  THR32       0.2287
     33  O        -31.0160  -13.1590   -3.1340 O.2    32  THR32      -0.2866
     34  CB       -27.7710  -12.2190   -2.7540 C.3    32  THR32       0.1770
     35  OG1      -26.9630  -11.0870   -3.1110 O.3    32  THR32      -0.2211
     36  CG2      -27.7130  -13.3210   -3.8530 C.3    32  THR32       0.0375
     37  N        -34.2560  -13.9260   -4.2320 N.3    36  ARG36      -0.1245
     38  CA       -34.6700  -15.2700   -4.6770 C.3    36  ARG36       0.1563
     39  C        -35.9050  -15.7560   -3.9160 C.2    36  ARG36       0.2260
     40  O        -36.7860  -16.3630   -4.5070 O.2    36  ARG36      -0.2867
     41  CB       -33.5530  -16.2960   -4.5120 C.3    36  ARG36       0.0307
     42  CG       -32.2850  -15.8980   -5.1990 C.3    36  ARG36       0.0489
     43  CD       -31.6990  -17.0310   -5.9920 C.3    36  ARG36       0.2205
     44  NE       -30.8070  -17.8610   -5.2050 N.pl3  36  ARG36      -0.0865
     45  CZ       -29.4950  -17.6620   -5.0790 C.cat  36  ARG36       0.5346
     46  NH1      -28.8620  -16.6270   -5.6540 N.pl3  36  ARG36       0.1354
     47  NH2      -28.8030  -18.5200   -4.3420 N.pl3  36  ARG36       0.1354
     48  N        -17.5160  -16.6550    3.4610 N.3   100  LYS100     -0.1245
     49  CA       -17.4230  -15.6110    2.4430 C.3   100  LYS100      0.1561
     50  C        -17.0120  -14.3150    3.1360 C.2   100  LYS100      0.2260
     51  O        -17.7300  -13.8620    4.0140 O.2   100  LYS100     -0.2867
     52  CB       -18.7970  -15.4150    1.7640 C.3   100  LYS100      0.0271
     53  CG       -18.8260  -14.3000    0.7390 C.3   100  LYS100      0.0035
     54  CD       -19.6450  -13.0880    1.1800 C.3   100  LYS100      0.0206
     55  CE       -21.1220  -13.3650    1.0590 C.3   100  LYS100      0.1093
     56  NZ       -21.4950  -13.8090   -0.2890 N.3   100  LYS100     -0.1314
     57  N        -15.8280  -11.1290    1.5760 N.3   102  ASP102     -0.1239
     58  CA       -16.0060   -9.8210    0.9580 C.3   102  ASP102      0.1674
     59  C        -17.1940   -9.1200    1.5420 C.2   102  ASP102      0.2266
     60  O        -18.1170   -9.7640    1.9790 O.2   102  ASP102     -0.2867
     61  CB       -16.1200   -9.8910   -0.5780 C.3   102  ASP102      0.1410
     62  CG       -17.4170  -10.5100   -1.0810 C.2   102  ASP102      0.3668
     63  OD1      -18.5090   -9.8550   -1.0530 O.co2 102  ASP102     -0.2456
     64  OD2      -17.3120  -11.6610   -1.5510 O.co2 102  ASP102     -0.2456
     65  N        -13.9870  -17.3790    0.8100 N.3   137  LYS137     -0.1245
     66  CA       -14.2940  -16.9190   -0.5360 C.3   137  LYS137      0.1561
     67  C        -14.4450  -15.4100   -0.5820 C.2   137  LYS137      0.2260
     68  O        -14.9160  -14.8170    0.3780 O.2   137  LYS137     -0.2867
     69  CB       -15.6170  -17.5240   -0.9880 C.3   137  LYS137      0.0271
     70  CG       -15.8160  -17.4960   -2.4910 C.3   137  LYS137      0.0035
     71  CD       -17.2560  -17.2850   -2.8830 C.3   137  LYS137      0.0206
     72  CE       -17.7220  -15.8330   -2.7050 C.3   137  LYS137      0.1093
     73  NZ       -19.0350  -15.5860   -3.3870 N.3   137  LYS137     -0.1314
     74  N        -15.6100  -12.4840   -3.7590 N.3   139  ARG139     -0.1245
     75  CA       -16.0560  -12.3010   -5.1210 C.3   139  ARG139      0.1563
     76  C        -15.8530  -10.8840   -5.7090 C.2   139  ARG139      0.2260
     77  O        -16.2530   -9.9020   -5.0860 O.2   139  ARG139     -0.2867
     78  CB       -17.5490  -12.5920   -5.1580 C.3   139  ARG139      0.0307
     79  CG       -18.2740  -12.2060   -6.4590 C.3   139  ARG139      0.0489
     80  CD       -19.6870  -12.6430   -6.3150 C.3   139  ARG139      0.2205
     81  NE       -20.4700  -12.6480   -7.5380 N.pl3 139  ARG139     -0.0865
     82  CZ       -21.4970  -11.8470   -7.7860 C.cat 139  ARG139      0.5346
     83  NH1      -21.8620  -10.8930   -6.9380 N.pl3 139  ARG139      0.1354
     84  NH2      -22.1620  -11.9930   -8.9140 N.pl3 139  ARG139      0.1354
     85  N        -12.7910  -15.3720   -6.6630 N.3   178  GLU178     -0.1245
     86  CA       -13.8740  -15.4830   -7.6220 C.3   178  GLU178      0.1567
     87  C        -13.9540  -14.2370   -8.5290 C.2   178  GLU178      0.2260
     88  O        -14.6420  -13.2680   -8.2090 O.2   178  GLU178     -0.2867
     89  CB       -15.1990  -15.7210   -6.8880 C.3   178  GLU178      0.0388
     90  CG       -16.4260  -15.8250   -7.8130 C.3   178  GLU178      0.1160
     91  CD       -17.7510  -15.9240   -7.0530 C.2   178  GLU178      0.3649
     92  OE1      -17.7740  -16.0010   -5.7940 O.co2 178  GLU178     -0.2457
     93  OE2      -18.7810  -15.9280   -7.7390 O.co2 178  GLU178     -0.2457
     94  N        -15.6740  -13.2940  -11.1820 N.3   180  GLU180     -0.1245
     95  CA       -16.8220  -13.6350  -11.9950 C.3   180  GLU180      0.1567
     96  C        -16.9860  -12.7170  -13.1930 C.2   180  GLU180      0.2260
     97  O        -16.9700  -11.5240  -13.0420 O.2   180  GLU180     -0.2867
     98  CB       -18.1110  -13.5530  -11.1730 C.3   180  GLU180      0.0388
     99  CG       -19.2800  -13.9720  -12.0010 C.3   180  GLU180      0.1160
    100  CD       -20.5790  -14.0650  -11.2490 C.2   180  GLU180      0.3649
    101  OE1      -20.5630  -14.1020   -9.9880 O.co2 180  GLU180     -0.2457
    102  OE2      -21.6170  -14.1420  -11.9510 O.co2 180  GLU180     -0.2457
    103  N        -12.3770  -19.6650   -8.5170 N.3   220  LYS220     -0.1245
    104  CA       -13.7830  -19.8170   -8.8250 C.3   220  LYS220      0.1561
    105  C        -14.1630  -18.9650  -10.0300 C.2   220  LYS220      0.2260
    106  O        -14.2590  -17.7550   -9.9560 O.2   220  LYS220     -0.2867
    107  CB       -14.6290  -19.5060   -7.6110 C.3   220  LYS220      0.0271
    108  CG       -16.0610  -19.5540   -7.9110 C.3   220  LYS220      0.0035
    109  CD       -16.8590  -19.2900   -6.6800 C.3   220  LYS220      0.0206
    110  CE       -18.3200  -19.4460   -7.0150 C.3   220  LYS220      0.1093
    111  NZ       -19.0850  -19.1090   -5.8290 N.3   220  LYS220     -0.1314
    112  N        -18.4190  -21.4830  -11.0320 N.3   261  LEU261     -0.1231
    113  CA       -19.6790  -20.8650  -10.5970 C.3   261  LEU261      0.1693
    114  C        -20.7960  -21.0450  -11.6290 C.2   261  LEU261      0.2593
    115  O        -20.5310  -21.0550  -12.8150 O.2   261  LEU261     -0.2718
    116  CB       -19.4470  -19.3940  -10.3360 C.3   261  LEU261      0.0284
    117  CG       -18.9890  -18.5230  -11.5030 C.3   261  LEU261      0.0019
    118  CD1      -20.1750  -17.8090  -12.0850 C.3   261  LEU261      0.0001
    119  CD2      -17.8980  -17.4980  -11.0050 C.3   261  LEU261      0.0001
    120  N        -22.0460  -21.1750  -11.1990 N.am  262  SER262     -0.1938
    121  CA       -23.1310  -21.4300  -12.1630 C.3   262  SER262      0.2055
    122  C        -23.5770  -20.1360  -12.8790 C.2   262  SER262      0.2643
    123  O        -24.0240  -20.1520  -14.0270 O.2   262  SER262     -0.2714
    124  CB       -24.3220  -22.1660  -11.4960 C.3   262  SER262      0.2130
    125  OG       -24.8800  -21.4540  -10.3900 O.3   262  SER262     -0.2179
    126  N        -23.4780  -19.0160  -12.1780 N.am  263  GLY263     -0.1954
    127  CA       -23.5290  -17.7060  -12.8050 C.3   263  GLY263      0.1869
    128  C        -24.8140  -17.2130  -13.4400 C.2   263  GLY263      0.2309
    129  O        -24.7950  -16.1770  -14.1160 O.2   263  GLY263     -0.2863
    130  N        -18.3170  -24.9030   -7.6900 N.3   291  SER291     -0.1202
    131  CA       -18.6950  -24.2250   -6.5030 C.3   291  SER291      0.2020
    132  C        -19.9800  -23.5350   -6.8460 C.2   291  SER291      0.2619
    133  O        -19.9780  -22.3640   -7.2180 O.2   291  SER291     -0.2717
    134  CB       -17.6320  -23.2410   -6.0920 C.3   291  SER291      0.2103
    135  OG       -18.1100  -22.3440   -5.1250 O.3   291  SER291     -0.2182
    136  N        -21.0740  -24.2760   -6.7210 N.am  292  PHE292     -0.1961
    137  CA       -22.3670  -23.8140   -7.1730 C.3   292  PHE292      0.1771
    138  C        -23.2050  -23.3660   -5.9880 C.2   292  PHE292      0.2619
    139  O        -23.2060  -24.0210   -4.9470 O.2   292  PHE292     -0.2715
    140  CB       -23.1380  -24.9500   -7.8860 C.3   292  PHE292      0.0574
    141  CG       -22.5120  -25.4520   -9.1960 C.ar  292  PHE292     -0.0200
    142  CD1      -21.7270  -24.6410  -10.0030 C.ar  292  PHE292     -0.0042
    143  CD2      -22.8040  -26.7360   -9.6610 C.ar  292  PHE292     -0.0042
    144  CE1      -21.2080  -25.1020  -11.2170 C.ar  292  PHE292     -0.0003
    145  CE2      -22.2950  -27.2060  -10.8690 C.ar  292  PHE292     -0.0003
    146  CZ       -21.4820  -26.3870  -11.6500 C.ar  292  PHE292     -0.0000
    147  N        -23.9320  -22.2560   -6.1460 N.am  293  ALA293     -0.1963
    148  CA       -25.0820  -21.9990   -5.2920 C.3   293  ALA293      0.1728
    149  C        -26.3360  -22.2870   -6.0820 C.2   293  ALA293      0.2616
    150  O        -26.9980  -23.2850   -5.8490 O.2   293  ALA293     -0.2715
    151  CB       -25.0740  -20.5830   -4.7830 C.3   293  ALA293      0.0334
    152  N        -26.6460  -21.4340   -7.0460 N.am  294  ARG294     -0.1977
    153  CA       -27.8940  -21.5500   -7.8050 C.3   294  ARG294      0.1597
    154  C        -28.0680  -22.9320   -8.4480 C.2   294  ARG294      0.2287
    155  O        -29.1250  -23.5480   -8.3180 O.2   294  ARG294     -0.2864
    156  CB       -28.0130  -20.4380   -8.8240 C.3   294  ARG294      0.0334
    157  CG       -28.4600  -19.1040   -8.1910 C.3   294  ARG294      0.0492
    158  CD       -28.3860  -17.9290   -9.1560 C.3   294  ARG294      0.2205
    159  NE       -27.0060  -17.5650   -9.4370 N.pl3 294  ARG294     -0.0865
    160  CZ       -26.6120  -16.5750  -10.2340 C.cat 294  ARG294      0.5346
    161  NH1      -27.4890  -15.8220  -10.8940 N.pl3 294  ARG294      0.1354
    162  NH2      -25.3120  -16.3670  -10.4070 N.pl3 294  ARG294      0.1354
@<TRIPOS>BOND
     1   129   128    2
     2   123   122    2
     3   128   127    1
     4    96    97    2
     5    96    95    1
     6   122   126   am
     7   122   121    1
     8   115   114    2
     9   127   126    1
    10   121   124    1
    11   121   120    1
    12   118   117    1
    13    99   100    1
    14    99    98    1
    15    95    94    1
    16    95    98    1
    17   102   100   ar
    18   146   144   ar
    19   146   145   ar
    20   114   120   am
    21   114   113    1
    22   117   119    1
    23   117   116    1
    24   124   125    1
    25   100   101   ar
    26   144   142   ar
    27   112   113    1
    28   161   160    1
    29   145   143   ar
    30   113   116    1
    31   162   160    1
    32   160   159    2
    33   105   106    2
    34   105   104    1
    35   142   141   ar
    36   143   141   ar
    37   159   158    1
    38   141   140    1
    39   158   157    1
    40    84    82    1
    41   104   103    1
    42   104   107    1
    43   156   157    1
    44   156   153    1
    45    87    88    2
    46    87    86    1
    47   154   155    2
    48   154   153    1
    49   108   107    1
    50   108   109    1
    51   140   137    1
    52    90    91    1
    53    90    89    1
    54   153   152    1
    55    82    81    2
    56    82    83    1
    57    93    91   ar
    58   130   131    1
    59    86    89    1
    60    86    85    1
    61    81    80    1
    62   133   132    2
    63   137   136    1
    64   137   138    1
    65    91    92   ar
    66   152   149   am
    67   110   109    1
    68   110   111    1
    69   132   136   am
    70   132   131    1
    71   131   134    1
    72    79    80    1
    73    79    78    1
    74   147   138   am
    75   147   148    1
    76   134   135    1
    77   149   150    2
    78   149   148    1
    79    43    44    1
    80    43    42    1
    81   138   139    2
    82    76    75    1
    83    76    77    2
    84    46    45    1
    85   148   151    1
    86    44    45    2
    87    42    41    1
    88    78    75    1
    89    75    74    1
    90    45    47    1
    91    38    41    1
    92    38    37    1
    93    38    39    1
    94    40    39    2
    95    36    34    1
    96    73    72    1
    97     5     2    1
    98    33    32    2
    99    35    34    1
   100    71    72    1
   101    71    70    1
   102    34    31    1
   103    22    20   ar
   104    70    69    1
   105     1     2    1
   106    31    32    1
   107    31    30    1
   108     4     3    2
   109     2     3    1
   110    19    20    1
   111    19    18    1
   112    20    21   ar
   113    64    62   ar
   114    12    11   ar
   115    62    63   ar
   116    62    61    1
   117    69    66    1
   118    13    11   ar
   119    18    15    1
   120    67    66    1
   121    67    68    2
   122    61    58    1
   123    11    10    1
   124    66    65    1
   125    56    55    1
   126    15    14    1
   127    15    16    1
   128    28    27    1
   129    14     8   am
   130     6     7    1
   131    53    54    1
   132    53    52    1
   133    23    16   am
   134    23    24    1
   135    10     7    1
   136     8     7    1
   137     8     9    2
   138    16    17    2
   139    26    25    2
   140    58    59    1
   141    58    57    1
   142    55    54    1
   143    27    29    1
   144    27    24    1
   145    59    60    2
   146    24    25    1
   147    52    49    1
   148    49    50    1
   149    49    48    1
   150    50    51    2
