@<TRIPOS>MOLECULE
tmp/3mbhC00.pdb
 116 108 0 0 0
SMALL
GASTEIGER

@<TRIPOS>ATOM
      1  N         70.8410  117.1800   17.7260 N.3    13  ASP13      -0.1239
      2  CA        71.7370  117.0320   16.6000 C.3    13  ASP13       0.1674
      3  C         71.9000  115.5440   16.2190 C.2    13  ASP13       0.2266
      4  O         71.5550  114.6530   17.0000 O.2    13  ASP13      -0.2867
      5  CB        73.1210  117.5990   16.9150 C.3    13  ASP13       0.1410
      6  CG        73.7970  116.8540   18.0280 C.2    13  ASP13       0.3668
      7  OD1       73.5170  117.2030   19.2040 O.co2  13  ASP13      -0.2456
      8  OD2       74.5340  115.8880   17.7450 O.co2  13  ASP13      -0.2456
      9  N         74.9630  113.1450   15.4670 N.3    15  SER15      -0.1217
     10  CA        76.4460  112.9550   15.4460 C.3    15  SER15       0.1889
     11  C         76.7880  111.4980   15.0990 C.2    15  SER15       0.2288
     12  O         76.2330  110.5600   15.6770 O.2    15  SER15      -0.2866
     13  CB        77.0670  113.3030   16.8060 C.3    15  SER15       0.2089
     14  OG        76.8660  114.6510   17.1750 O.3    15  SER15      -0.2183
     15  N         75.6670  110.4620   21.7930 N.3    19  VAL19      -0.1231
     16  CA        75.0680  111.6890   22.2320 C.3    19  VAL19       0.1692
     17  C         73.7980  111.8350   21.3960 C.2    19  VAL19       0.2592
     18  O         73.5870  111.1400   20.4040 O.2    19  VAL19      -0.2718
     19  CB        75.9650  112.9620   21.9970 C.3    19  VAL19       0.0266
     20  CG1       77.1140  113.0480   22.9960 C.3    19  VAL19       0.0020
     21  CG2       76.4850  113.0060   20.5230 C.3    19  VAL19       0.0020
     22  N         72.9280  112.6960   21.8580 N.am   20  SER20      -0.1952
     23  CA        71.8790  113.2930   21.0310 C.3    20  SER20       0.1924
     24  C         71.0450  112.2310   20.3220 C.2    20  SER20       0.2314
     25  O         70.5850  111.2750   20.9850 O.2    20  SER20      -0.2863
     26  CB        72.4480  114.4090   20.1080 C.3    20  SER20       0.2116
     27  OG        73.4730  113.9760   19.2240 O.3    20  SER20      -0.2180
     28  N         76.9740  116.4480   12.8350 N.3    42  LEU42      -0.1245
     29  CA        78.4020  116.4140   13.1890 C.3    42  LEU42       0.1561
     30  C         78.9480  115.0240   12.9290 C.2    42  LEU42       0.2260
     31  O         78.2220  114.0230   13.0610 O.2    42  LEU42      -0.2867
     32  CB        78.6330  116.7510   14.6660 C.3    42  LEU42       0.0270
     33  CG        78.1360  118.0930   15.2200 C.3    42  LEU42       0.0019
     34  CD1       76.6400  118.1350   15.4850 C.3    42  LEU42       0.0001
     35  CD2       78.8580  118.4350   16.5070 C.3    42  LEU42       0.0001
     36  N         80.7290  114.0000   18.6160 N.3    45  HIS45      -0.1226
     37  CA        80.4540  115.0040   19.6240 C.3    45  HIS45       0.1752
     38  C         81.6410  115.9450   19.8010 C.2    45  HIS45       0.2597
     39  O         82.7660  115.6600   19.3610 O.2    45  HIS45      -0.2718
     40  CB        79.9610  114.3920   20.9640 C.3    45  HIS45       0.0759
     41  CG        80.9810  113.6010   21.6980 C.ar   45  HIS45       0.0818
     42  ND1       82.1760  114.1400   22.1310 N.ar   45  HIS45      -0.2268
     43  CD2       80.9810  112.3080   22.1050 C.ar   45  HIS45       0.1154
     44  CE1       82.8740  113.2030   22.7600 C.ar   45  HIS45       0.1986
     45  NE2       82.1740  112.0810   22.7560 N.ar   45  HIS45      -0.2212
     46  N         81.3560  117.0840   20.4180 N.am   46  THR46      -0.1939
     47  CA        82.2790  118.2140   20.5060 C.3    46  THR46       0.2028
     48  C         83.2320  118.1250   21.6750 C.2    46  THR46       0.2642
     49  O         83.9260  119.0840   21.9320 O.2    46  THR46      -0.2714
     50  CB        81.5410  119.5730   20.5990 C.3    46  THR46       0.1808
     51  OG1       80.7730  119.6370   21.8140 O.3    46  THR46      -0.2208
     52  CG2       80.6090  119.7820   19.3770 C.3    46  THR46       0.0379
     53  N         83.2650  117.0050   22.3880 N.am   47  GLN47      -0.1976
     54  CA        84.2540  116.8190   23.4400 C.3    47  GLN47       0.1601
     55  C         85.4090  115.9960   22.9270 C.2    47  GLN47       0.2287
     56  O         86.3020  115.6810   23.6910 O.2    47  GLN47      -0.2864
     57  CB        83.6630  116.2050   24.7300 C.3    47  GLN47       0.0394
     58  CG        82.5350  117.0150   25.2930 C.3    47  GLN47       0.0908
     59  CD        82.0660  116.5250   26.6380 C.2    47  GLN47       0.2608
     60  OE1       82.8470  116.4170   27.5690 O.2    47  GLN47      -0.2717
     61  NE2       80.8080  116.2140   26.7450 N.am   47  GLN47      -0.0878
     62  N         70.6160  119.4710   22.5140 N.3    80  TYR80      -0.1241
     63  CA        71.6790  120.2560   21.8690 C.3    80  TYR80       0.1605
     64  C         71.1280  120.9490   20.6620 C.2    80  TYR80       0.2264
     65  O         70.6600  120.2940   19.7630 O.2    80  TYR80      -0.2867
     66  CB        72.8120  119.3020   21.4510 C.3    80  TYR80       0.0534
     67  CG        74.0520  119.9770   20.8980 C.ar   80  TYR80      -0.0201
     68  CD1       74.0990  120.4360   19.5930 C.ar   80  TYR80      -0.0009
     69  CD2       75.1860  120.1680   21.6940 C.ar   80  TYR80      -0.0009
     70  CE1       75.2430  121.1100   19.0910 C.ar   80  TYR80       0.0417
     71  CE2       76.3200  120.8560   21.1900 C.ar   80  TYR80       0.0417
     72  CZ        76.3460  121.2840   19.8920 C.ar   80  TYR80       0.1957
     73  OH        77.4860  121.9180   19.3950 O.3    80  TYR80      -0.2866
     74  N         66.1370  119.4500   27.7030 N.3   107  ASP107     -0.1239
     75  CA        67.4500  119.3330   28.3340 C.3   107  ASP107      0.1674
     76  C         68.1910  120.5820   27.8980 C.2   107  ASP107      0.2266
     77  O         68.4380  120.7830   26.6980 O.2   107  ASP107     -0.2867
     78  CB        68.1360  118.0470   27.8570 C.3   107  ASP107      0.1410
     79  CG        69.4750  117.7740   28.5340 C.2   107  ASP107      0.3668
     80  OD1       70.0260  118.6210   29.2750 O.co2 107  ASP107     -0.2456
     81  OD2       69.9890  116.6640   28.2720 O.co2 107  ASP107     -0.2456
     82  N         70.9100  122.0520   27.0920 N.3   109  VAL109     -0.1245
     83  CA        72.2540  121.6080   26.8200 C.3   109  VAL109      0.1561
     84  C         73.1270  122.8380   26.5720 C.2   109  VAL109      0.2260
     85  O         72.9380  123.5750   25.5800 O.2   109  VAL109     -0.2867
     86  CB        72.3090  120.5800   25.6270 C.3   109  VAL109      0.0252
     87  CG1       73.7630  120.1720   25.3030 C.3   109  VAL109      0.0019
     88  CG2       71.4780  119.3180   25.9570 C.3   109  VAL109      0.0019
     89  N         80.0580  124.1440   26.4290 N.3   117  TYR117     -0.1241
     90  CA        80.5380  123.2510   25.3530 C.3   117  TYR117      0.1605
     91  C         81.2370  124.0820   24.2720 C.2   117  TYR117      0.2264
     92  O         81.0540  125.3150   24.2290 O.2   117  TYR117     -0.2867
     93  CB        79.3940  122.4160   24.7660 C.3   117  TYR117      0.0534
     94  CG        78.8890  121.3130   25.6990 C.ar  117  TYR117     -0.0201
     95  CD1       79.7630  120.3750   26.2700 C.ar  117  TYR117     -0.0009
     96  CD2       77.5550  121.2310   26.0250 C.ar  117  TYR117     -0.0009
     97  CE1       79.2890  119.4010   27.1520 C.ar  117  TYR117      0.0417
     98  CE2       77.0720  120.2570   26.8460 C.ar  117  TYR117      0.0417
     99  CZ        77.9390  119.3540   27.4130 C.ar  117  TYR117      0.1957
    100  OH        77.4050  118.4310   28.2200 O.3   117  TYR117     -0.2866
    101  N         77.4690  112.4640   26.6440 N.3   214  GLY214     -0.1225
    102  CA        76.1620  112.0090   26.2430 C.3   214  GLY214      0.1811
    103  C         75.3420  111.4220   27.3780 C.2   214  GLY214      0.2280
    104  O         74.1650  111.0450   27.1520 O.2   214  GLY214     -0.2866
    105  N         73.8740  112.8570   29.8610 N.3   216  GLY216     -0.1210
    106  CA        72.6610  113.6610   30.0090 C.3   216  GLY216      0.1956
    107  C         71.5590  113.3150   28.9920 C.2   216  GLY216      0.2611
    108  O         70.3370  113.3420   29.2890 O.2   216  GLY216     -0.2717
    109  N         71.9860  112.9780   27.7820 N.am  217  ASP217     -0.1973
    110  CA        71.0700  112.5140   26.7390 C.3   217  ASP217      0.1709
    111  C         70.4450  111.1310   27.0670 C.2   217  ASP217      0.2293
    112  O         69.2410  110.9360   26.9220 O.2   217  ASP217     -0.2864
    113  CB        71.7680  112.4920   25.3790 C.3   217  ASP217      0.1436
    114  CG        72.2960  113.8580   24.9720 C.2   217  ASP217      0.3671
    115  OD1       71.5730  114.8600   25.1340 O.co2 217  ASP217     -0.2456
    116  OD2       73.4440  113.9110   24.4370 O.co2 217  ASP217     -0.2456
@<TRIPOS>BOND
     1    28    29    1
     2    30    31    2
     3    30    29    1
     4    29    32    1
     5    32    33    1
     6    11    10    1
     7    11    12    2
     8    33    34    1
     9    33    35    1
    10    10     9    1
    11    10    13    1
    12     3     2    1
    13     3     4    2
    14     2     5    1
    15     2     1    1
    16    13    14    1
    17     5     6    1
    18     8     6   ar
    19     6     7   ar
    20    36    37    1
    21    70    68   ar
    22    70    72   ar
    23    27    26    1
    24    39    38    2
    25    52    50    1
    26    73    72    1
    27    68    67   ar
    28    37    38    1
    29    37    40    1
    30    65    64    2
    31    38    46   am
    32    72    71   ar
    33    26    23    1
    34    24    25    2
    35    24    23    1
    36    18    17    2
    37    46    47    1
    38    47    50    1
    39    47    48    1
    40    21    19    1
    41    50    51    1
    42    64    63    1
    43    67    66    1
    44    67    69   ar
    45    40    41    1
    46    23    22    1
    47    71    69   ar
    48    17    22   am
    49    17    16    1
    50    66    63    1
    51    48    49    2
    52    48    53   am
    53    41    43   ar
    54    41    42   ar
    55    15    16    1
    56    63    62    1
    57    19    16    1
    58    19    20    1
    59    43    45   ar
    60    42    44   ar
    61    53    54    1
    62    45    44   ar
    63    55    54    1
    64    55    56    2
    65    54    57    1
    66    92    91    2
    67    91    90    1
    68   116   114   ar
    69    57    58    1
    70    93    90    1
    71    93    94    1
    72   114   115   ar
    73   114   113    1
    74    58    59    1
    75    87    86    1
    76    90    89    1
    77   113   110    1
    78    85    84    2
    79    86    88    1
    80    86    83    1
    81    94    96   ar
    82    94    95   ar
    83    96    98   ar
    84   102   101    1
    85   102   103    1
    86    95    97   ar
    87    84    83    1
    88    59    61   am
    89    59    60    2
    90    77    76    2
    91   110   111    1
    92   110   109    1
    93    83    82    1
    94    98    99   ar
    95   112   111    2
    96    97    99   ar
    97   104   103    2
    98    99   100    1
    99    74    75    1
   100   109   107   am
   101    78    75    1
   102    78    79    1
   103    76    75    1
   104    81    79   ar
   105    79    80   ar
   106   107   108    2
   107   107   106    1
   108   105   106    1
