@<TRIPOS>MOLECULE
tmp/3mbiA00.pdb
 127 121 0 0 0
SMALL
GASTEIGER

@<TRIPOS>ATOM
      1  N         33.8080  -10.9590   19.5270 N.3    88  TYR88      -0.1241
      2  CA        33.7030   -9.6440   18.8920 C.3    88  TYR88       0.1605
      3  C         34.7120   -8.7000   19.5350 C.2    88  TYR88       0.2264
      4  O         34.6670   -8.4590   20.7510 O.2    88  TYR88      -0.2867
      5  CB        32.2980   -9.0610   19.0410 C.3    88  TYR88       0.0534
      6  CG        32.1770   -7.6690   18.4680 C.ar   88  TYR88      -0.0201
      7  CD1       32.6040   -7.3940   17.1680 C.ar   88  TYR88      -0.0009
      8  CD2       31.6310   -6.6320   19.2180 C.ar   88  TYR88      -0.0009
      9  CE1       32.5080   -6.1160   16.6360 C.ar   88  TYR88       0.0417
     10  CE2       31.5230   -5.3510   18.6980 C.ar   88  TYR88       0.0417
     11  CZ        31.9570   -5.1060   17.4060 C.ar   88  TYR88       0.1957
     12  OH        31.8540   -3.8400   16.8910 O.3    88  TYR88      -0.2866
     13  N         36.2950   -1.6780   19.3780 N.3    91  TYR91      -0.1241
     14  CA        37.1710   -0.6130   18.9020 C.3    91  TYR91       0.1605
     15  C         37.9350   -0.9360   17.6220 C.2    91  TYR91       0.2264
     16  O         38.8080   -0.1820   17.2150 O.2    91  TYR91      -0.2867
     17  CB        38.1010   -0.1370   20.0380 C.3    91  TYR91       0.0534
     18  CG        37.2780    0.5330   21.1020 C.ar   91  TYR91      -0.0201
     19  CD1       36.9350    1.8790   20.9830 C.ar   91  TYR91      -0.0009
     20  CD2       36.7810   -0.1870   22.1880 C.ar   91  TYR91      -0.0009
     21  CE1       36.1490    2.4980   21.9230 C.ar   91  TYR91       0.0417
     22  CE2       35.9960    0.4300   23.1440 C.ar   91  TYR91       0.0417
     23  CZ        35.6770    1.7730   22.9970 C.ar   91  TYR91       0.1957
     24  OH        34.9070    2.4190   23.9280 O.3    91  TYR91      -0.2866
     25  N         36.8820   -0.5970   14.7540 N.3    93  ARG93      -0.1231
     26  CA        36.5490    0.4020   13.7490 C.3    93  ARG93       0.1694
     27  C         37.3830    1.6660   13.9390 C.2    93  ARG93       0.2592
     28  O         37.4190    2.5160   13.0580 O.2    93  ARG93      -0.2718
     29  CB        35.0440    0.7090   13.7500 C.3    93  ARG93       0.0321
     30  CG        34.2090   -0.5450   13.4140 C.3    93  ARG93       0.0489
     31  CD        32.7220   -0.3570   13.6580 C.3    93  ARG93       0.2205
     32  NE        32.1810    0.6830   12.7900 N.pl3  93  ARG93      -0.0865
     33  CZ        30.9010    0.7820   12.4390 C.cat  93  ARG93       0.5346
     34  NH1       30.0110   -0.0730   12.9150 N.pl3  93  ARG93       0.1354
     35  NH2       30.5100    1.7450   11.6130 N.pl3  93  ARG93       0.1354
     36  N         38.0250    1.8090   15.1000 N.am   94  GLN94      -0.1966
     37  CA        38.9160    2.9550   15.3240 C.3    94  GLN94       0.1733
     38  C         40.3530    2.4440   15.3520 C.2    94  GLN94       0.2616
     39  O         41.0170    2.4330   16.4050 O.2    94  GLN94      -0.2715
     40  CB        38.5700    3.7010   16.6220 C.3    94  GLN94       0.0408
     41  CG        39.3320    5.0250   16.8440 C.3    94  GLN94       0.0908
     42  CD        38.9140    6.1270   15.8690 C.2    94  GLN94       0.2608
     43  OE1       37.9470    5.9790   15.1210 O.2    94  GLN94      -0.2717
     44  NE2       39.6660    7.2220   15.8530 N.am   94  GLN94      -0.0878
     45  N         40.8140    2.0110   14.1790 N.am   95  HIS95      -0.1973
     46  CA        42.1150    1.3760   14.0180 C.3    95  HIS95       0.1656
     47  C         43.1890    2.3390   13.5060 C.2    95  HIS95       0.2291
     48  O         44.3140    1.9200   13.2370 O.2    95  HIS95      -0.2864
     49  CB        42.0020    0.1790   13.0710 C.3    95  HIS95       0.0771
     50  CG        41.3000    0.4960   11.7840 C.ar   95  HIS95       0.0820
     51  ND1       41.9400    1.0720   10.7080 N.ar   95  HIS95      -0.2267
     52  CD2       40.0090    0.3290   11.4100 C.ar   95  HIS95       0.1154
     53  CE1       41.0740    1.2410    9.7220 C.ar   95  HIS95       0.1986
     54  NE2       39.8960    0.7930   10.1210 N.ar   95  HIS95      -0.2212
     55  N         41.5440    9.4390   12.2090 N.3    98  TYR98      -0.1241
     56  CA        40.8620    9.9910   11.0430 C.3    98  TYR98       0.1605
     57  C         40.8930   11.5180   11.0740 C.2    98  TYR98       0.2264
     58  O         40.6790   12.1760   10.0500 O.2    98  TYR98      -0.2867
     59  CB        39.4260    9.4810   11.0010 C.3    98  TYR98       0.0534
     60  CG        39.3720    7.9900   10.7870 C.ar   98  TYR98      -0.0201
     61  CD1       39.2950    7.4500    9.5140 C.ar   98  TYR98      -0.0009
     62  CD2       39.4310    7.1200   11.8650 C.ar   98  TYR98      -0.0009
     63  CE1       39.2580    6.0690    9.3270 C.ar   98  TYR98       0.0417
     64  CE2       39.4020    5.7620   11.6860 C.ar   98  TYR98       0.0417
     65  CZ        39.3110    5.2370   10.4250 C.ar   98  TYR98       0.1957
     66  OH        39.2800    3.8670   10.2740 O.3    98  TYR98      -0.2866
     67  N         42.6430   12.3680   17.6570 N.3   102  GLU102     -0.1245
     68  CA        41.8090   11.2040   17.9770 C.3   102  GLU102      0.1567
     69  C         42.6720   10.0940   18.5760 C.2   102  GLU102      0.2260
     70  O         43.8660   10.0030   18.2770 O.2   102  GLU102     -0.2867
     71  CB        41.1320   10.6390   16.7070 C.3   102  GLU102      0.0388
     72  CG        40.0030   11.4830   16.1400 C.3   102  GLU102      0.1160
     73  CD        39.3670   10.8440   14.9170 C.2   102  GLU102      0.3649
     74  OE1       39.8550    9.7930   14.4590 O.co2 102  GLU102     -0.2457
     75  OE2       38.3660   11.3860   14.4220 O.co2 102  GLU102     -0.2457
     76  N         37.4340   -6.2740   12.1820 N.3   126  HIS126     -0.1241
     77  CA        36.9850   -5.3170   11.1720 C.3   126  HIS126      0.1621
     78  C         38.0970   -4.9190   10.2040 C.2   126  HIS126      0.2264
     79  O         37.8570   -4.7450    9.0070 O.2   126  HIS126     -0.2867
     80  CB        36.3920   -4.0630   11.8250 C.3   126  HIS126      0.0745
     81  CG        35.8260   -3.0960   10.8360 C.ar  126  HIS126      0.0817
     82  ND1       34.8310   -3.4440    9.9450 N.ar  126  HIS126     -0.2268
     83  CD2       36.1360   -1.8050   10.5710 C.ar  126  HIS126      0.1154
     84  CE1       34.5440   -2.4020    9.1830 C.ar  126  HIS126      0.1986
     85  NE2       35.3180   -1.3940    9.5430 N.ar  126  HIS126     -0.2212
     86  N         30.8150   -4.0030    0.7160 N.3   163  ASP163     -0.1239
     87  CA        32.0070   -3.1660    0.6150 C.3   163  ASP163      0.1674
     88  C         33.1620   -3.9460    0.0010 C.2   163  ASP163      0.2266
     89  O         33.0630   -5.1590   -0.1970 O.2   163  ASP163     -0.2867
     90  CB        32.4020   -2.5820    1.9880 C.3   163  ASP163      0.1410
     91  CG        32.7950   -3.6480    3.0060 C.2   163  ASP163      0.3668
     92  OD1       33.0110   -4.8220    2.6310 O.co2 163  ASP163     -0.2456
     93  OD2       32.9080   -3.3060    4.2010 O.co2 163  ASP163     -0.2456
     94  N         31.5670    0.9990   -1.1040 N.3   186  LYS186     -0.1245
     95  CA        30.9310    1.6810    0.0080 C.3   186  LYS186      0.1561
     96  C         31.7710    2.8570    0.4790 C.2   186  LYS186      0.2260
     97  O         32.9950    2.7700    0.5250 O.2   186  LYS186     -0.2867
     98  CB        30.7160    0.7020    1.1630 C.3   186  LYS186      0.0271
     99  CG        30.0790    1.3200    2.4040 C.3   186  LYS186      0.0035
    100  CD        30.0650    0.3120    3.5460 C.3   186  LYS186      0.0206
    101  CE        30.1600    0.9830    4.8950 C.3   186  LYS186      0.1093
    102  NZ        30.3370   -0.0180    5.9850 N.3   186  LYS186     -0.1314
    103  N         31.5080    5.4580    3.8740 N.3   188  ARG188     -0.1245
    104  CA        30.7820    5.8590    5.0750 C.3   188  ARG188      0.1563
    105  C         30.7660    7.3890    5.2350 C.2   188  ARG188      0.2260
    106  O         31.8020    8.0500    5.1530 O.2   188  ARG188     -0.2867
    107  CB        31.3410    5.1700    6.3220 C.3   188  ARG188      0.0307
    108  CG        30.7480    5.7140    7.6300 C.3   188  ARG188      0.0489
    109  CD        31.1090    4.8440    8.8250 C.3   188  ARG188      0.2205
    110  NE        30.6090    3.4760    8.7290 N.pl3 188  ARG188     -0.0865
    111  CZ        29.3260    3.1420    8.8210 C.cat 188  ARG188      0.5346
    112  NH1       28.4060    4.0850    8.9980 N.pl3 188  ARG188      0.1354
    113  NH2       28.9630    1.8620    8.7390 N.pl3 188  ARG188      0.1354
    114  N         28.1400    8.1940   11.3450 N.3   191  ASP191     -0.1239
    115  CA        27.8390    7.0120   12.1730 C.3   191  ASP191      0.1674
    116  C         26.6570    6.1910   11.6460 C.2   191  ASP191      0.2266
    117  O         26.5320    4.9930   11.9340 O.2   191  ASP191     -0.2867
    118  CB        27.5040    7.4420   13.6050 C.3   191  ASP191      0.1410
    119  CG        28.6750    8.0540   14.3300 C.2   191  ASP191      0.3668
    120  OD1       29.7430    8.2590   13.7110 O.co2 191  ASP191     -0.2456
    121  OD2       28.5090    8.3520   15.5300 O.co2 191  ASP191     -0.2456
    122  N         25.5300   -2.7810   13.0110 N.3   216  SER216     -0.1217
    123  CA        25.3880   -1.8940   14.1640 C.3   216  SER216      0.1889
    124  C         24.0580   -1.1440   14.0300 C.2   216  SER216      0.2288
    125  O         23.0160   -1.6260   14.4920 O.2   216  SER216     -0.2866
    126  CB        26.5850   -0.9380   14.2680 C.3   216  SER216      0.2089
    127  OG        26.5720   -0.1940   15.4930 O.3   216  SER216     -0.2183
@<TRIPOS>BOND
     1    94    95    1
     2    89    88    2
     3    88    87    1
     4    95    96    1
     5    95    98    1
     6    96    97    2
     7    87    86    1
     8    87    90    1
     9    98    99    1
    10    90    91    1
    11    99   100    1
    12    92    91   ar
    13    91    93   ar
    14   100   101    1
    15   103   104    1
    16   101   102    1
    17   104   105    1
    18   104   107    1
    19   106   105    2
    20   107   108    1
    21   108   109    1
    22   110   111    2
    23   110   109    1
    24   113   111    1
    25   111   112    1
    26    79    78    2
    27    84    85   ar
    28    84    82   ar
    29    63    61   ar
    30    63    65   ar
    31    61    60   ar
    32    85    83   ar
    33    53    54   ar
    34    53    51   ar
    35    82    81   ar
    36    58    57    2
    37    54    52   ar
    38    78    77    1
    39    66    65    1
    40    65    64   ar
    41    83    81   ar
    42    51    50   ar
    43    60    59    1
    44    60    62   ar
    45    81    80    1
    46    59    56    1
    47    56    57    1
    48    56    55    1
    49    77    80    1
    50    77    76    1
    51   114   115    1
    52    52    50   ar
    53    35    33    1
    54   116   117    2
    55   116   115    1
    56    64    62   ar
    57    50    49    1
    58   115   118    1
    59    33    32    2
    60    33    34    1
    61    32    31    1
    62   122   123    1
    63    28    27    2
    64    49    46    1
    65    48    47    2
    66    30    31    1
    67    30    29    1
    68    47    46    1
    69   118   119    1
    70   120   119   ar
    71    26    29    1
    72    26    27    1
    73    26    25    1
    74    27    36   am
    75    46    45    1
    76   124   123    1
    77   124   125    2
    78   123   126    1
    79    45    38   am
    80   126   127    1
    81   119   121   ar
    82    75    73   ar
    83    74    73   ar
    84    73    72    1
    85    36    37    1
    86    43    42    2
    87    37    38    1
    88    37    40    1
    89    38    39    2
    90    44    42   am
    91    42    41    1
    92    72    71    1
    93    40    41    1
    94     9     7   ar
    95     9    11   ar
    96    71    68    1
    97    12    11    1
    98     7     6   ar
    99    16    15    2
   100    11    10   ar
   101    15    14    1
   102    67    68    1
   103    68    69    1
   104    70    69    2
   105     6     5    1
   106     6     8   ar
   107    10     8   ar
   108     2     5    1
   109     2     1    1
   110     2     3    1
   111    14    13    1
   112    14    17    1
   113     3     4    2
   114    17    18    1
   115    19    18   ar
   116    19    21   ar
   117    18    20   ar
   118    21    23   ar
   119    20    22   ar
   120    23    22   ar
   121    23    24    1
