@<TRIPOS>MOLECULE
tmp/3mbiD01.pdb
 132 125 0 0 0
SMALL
GASTEIGER

@<TRIPOS>ATOM
      1  N         76.3070    0.5950   46.8230 N.3    91  ARG91      -0.1245
      2  CA        75.7340   -0.2790   47.8530 C.3    91  ARG91       0.1563
      3  C         76.0350   -1.7550   47.5590 C.2    91  ARG91       0.2260
      4  O         75.8410   -2.6180   48.4170 O.2    91  ARG91      -0.2867
      5  CB        74.2200   -0.0470   48.0110 C.3    91  ARG91       0.0307
      6  CG        73.8460    1.3810   48.4730 C.3    91  ARG91       0.0489
      7  CD        72.3400    1.6750   48.3940 C.3    91  ARG91       0.2205
      8  NE        71.5690    0.9030   49.3740 N.pl3  91  ARG91      -0.0865
      9  CZ        70.3470    1.2190   49.8010 C.cat  91  ARG91       0.5346
     10  NH1       69.7330    2.3050   49.3480 N.pl3  91  ARG91       0.1354
     11  NH2       69.7350    0.4480   50.6960 N.pl3  91  ARG91       0.1354
     12  N         79.1460    5.5220   49.2640 N.3   124  HIS124     -0.1241
     13  CA        78.4960    4.7310   50.3090 C.3   124  HIS124      0.1621
     14  C         79.4730    3.9330   51.1680 C.2   124  HIS124      0.2264
     15  O         79.2840    3.8110   52.3740 O.2   124  HIS124     -0.2867
     16  CB        77.4380    3.7970   49.7240 C.3   124  HIS124      0.0745
     17  CG        76.7400    2.9590   50.7510 C.ar  124  HIS124      0.0817
     18  ND1       75.8530    3.4860   51.6670 N.ar  124  HIS124     -0.2268
     19  CD2       76.7950    1.6270   51.0030 C.ar  124  HIS124      0.1154
     20  CE1       75.3950    2.5160   52.4410 C.ar  124  HIS124      0.1986
     21  NE2       75.9480    1.3790   52.0550 N.ar  124  HIS124     -0.2212
     22  N         72.7000    4.8170   61.3930 N.3   161  ASP161     -0.1239
     23  CA        73.4780    3.5830   61.3300 C.3   161  ASP161      0.1674
     24  C         74.9380    3.7840   61.7400 C.2   161  ASP161      0.2266
     25  O         75.3810    4.9040   61.9690 O.2   161  ASP161     -0.2867
     26  CB        73.3970    2.9440   59.9290 C.3   161  ASP161      0.1410
     27  CG        73.9340    3.8530   58.8290 C.2   161  ASP161      0.3668
     28  OD1       74.7940    4.7160   59.1130 O.co2 161  ASP161     -0.2456
     29  OD2       73.4960    3.6920   57.6670 O.co2 161  ASP161     -0.2456
     30  N         71.7540   -0.2790   63.1230 N.3   184  LYS184     -0.1245
     31  CA        70.8000   -0.7080   62.1130 C.3   184  LYS184      0.1561
     32  C         71.1360   -2.0840   61.5570 C.2   184  LYS184      0.2260
     33  O         72.3040   -2.4530   61.4480 O.2   184  LYS184     -0.2867
     34  CB        70.7450    0.3000   60.9610 C.3   184  LYS184      0.0271
     35  CG        69.6230    0.0190   59.9720 C.3   184  LYS184      0.0035
     36  CD        69.5960    1.0320   58.8310 C.3   184  LYS184      0.0206
     37  CE        70.6110    0.7030   57.7400 C.3   184  LYS184      0.1093
     38  NZ        70.4840    1.6090   56.5320 N.3   184  LYS184     -0.1314
     39  N         69.6710   -4.1590   58.1250 N.3   186  ARG186     -0.1245
     40  CA        68.7390   -4.2450   57.0090 C.3   186  ARG186      0.1563
     41  C         68.1790   -5.6560   56.8700 C.2   186  ARG186      0.2260
     42  O         68.9130   -6.6380   56.9590 O.2   186  ARG186     -0.2867
     43  CB        69.3980   -3.7920   55.7080 C.3   186  ARG186      0.0307
     44  CG        68.4900   -3.9310   54.5010 C.3   186  ARG186      0.0489
     45  CD        69.0290   -3.1780   53.2920 C.3   186  ARG186      0.2205
     46  NE        69.0990   -1.7310   53.5080 N.pl3 186  ARG186     -0.0865
     47  CZ        68.0510   -0.9140   53.4770 C.cat 186  ARG186      0.5346
     48  NH1       66.8360   -1.4010   53.2590 N.pl3 186  ARG186      0.1354
     49  NH2       68.2160    0.3890   53.6700 N.pl3 186  ARG186      0.1354
     50  N         65.0120   -4.9800   50.9640 N.3   189  ASP189     -0.1239
     51  CA        65.1130   -3.7260   50.2150 C.3   189  ASP189      0.1674
     52  C         64.3510   -2.5430   50.8250 C.2   189  ASP189      0.2266
     53  O         64.7240   -1.3750   50.6290 O.2   189  ASP189     -0.2867
     54  CB        64.6420   -3.9480   48.7820 C.3   189  ASP189      0.1410
     55  CG        65.5910   -4.8130   47.9990 C.2   189  ASP189      0.3668
     56  OD1       66.6420   -5.1950   48.5560 O.co2 189  ASP189     -0.2456
     57  OD2       65.2970   -5.0980   46.8230 O.co2 189  ASP189     -0.2456
     58  N         64.1440   -2.2210   57.5860 N.3   192  VAL192     -0.1245
     59  CA        65.3090   -2.2410   58.4710 C.3   192  VAL192      0.1561
     60  C         64.8810   -2.4240   59.9270 C.2   192  VAL192      0.2260
     61  O         63.7330   -2.1700   60.2740 O.2   192  VAL192     -0.2867
     62  CB        66.1580   -0.9530   58.3490 C.3   192  VAL192      0.0252
     63  CG1       66.6040   -0.7280   56.9010 C.3   192  VAL192      0.0019
     64  CG2       65.3870    0.2500   58.8680 C.3   192  VAL192      0.0019
     65  N         72.1000   11.0120   56.9690 N.3   210  ASP210     -0.1225
     66  CA        72.4960    9.7510   56.3570 C.3   210  ASP210      0.1805
     67  C         73.1120   10.0520   54.9840 C.2   210  ASP210      0.2598
     68  O         73.0750   11.1930   54.5120 O.2   210  ASP210     -0.2718
     69  CB        71.2760    8.8350   56.2080 C.3   210  ASP210      0.1424
     70  CG        71.6410    7.3560   56.2210 C.2   210  ASP210      0.3668
     71  OD1       72.8440    7.0370   56.2740 O.co2 210  ASP210     -0.2456
     72  OD2       70.7140    6.5190   56.1830 O.co2 210  ASP210     -0.2456
     73  N         73.6820    9.0450   54.3310 N.am  211  ASP211     -0.1960
     74  CA        74.2340    9.2950   53.0070 C.3   211  ASP211      0.1840
     75  C         73.1690    9.2850   51.9230 C.2   211  ASP211      0.2622
     76  O         73.1180   10.1980   51.1000 O.2   211  ASP211     -0.2715
     77  CB        75.4200    8.3700   52.6710 C.3   211  ASP211      0.1450
     78  CG        75.0680    6.8960   52.7360 C.2   211  ASP211      0.3671
     79  OD1       74.0050    6.5330   53.2770 O.co2 211  ASP211     -0.2456
     80  OD2       75.8790    6.0920   52.2320 O.co2 211  ASP211     -0.2456
     81  N         72.3030    8.2730   51.9530 N.am  212  ILE212     -0.1963
     82  CA        71.3090    8.0590   50.9120 C.3   212  ILE212      0.1727
     83  C         69.8910    7.9150   51.4540 C.2   212  ILE212      0.2616
     84  O         69.6650    7.2500   52.4630 O.2   212  ILE212     -0.2715
     85  CB        71.6280    6.7610   50.1370 C.3   212  ILE212      0.0290
     86  CG1       73.0140    6.8530   49.4850 C.3   212  ILE212      0.0022
     87  CG2       70.5350    6.4600   49.1120 C.3   212  ILE212      0.0023
     88  CD1       73.6100    5.4970   49.0740 C.3   212  ILE212      0.0001
     89  N         68.9340    8.5370   50.7760 N.am  213  ILE213     -0.1963
     90  CA        67.5330    8.2220   50.9860 C.3   213  ILE213      0.1727
     91  C         66.9690    7.6010   49.7170 C.2   213  ILE213      0.2617
     92  O         66.9520    8.2370   48.6640 O.2   213  ILE213     -0.2715
     93  CB        66.7000    9.4740   51.3320 C.3   213  ILE213      0.0290
     94  CG1       67.1740   10.0930   52.6530 C.3   213  ILE213      0.0022
     95  CG2       65.2230    9.1110   51.3820 C.3   213  ILE213      0.0023
     96  CD1       66.4440   11.3570   53.0340 C.3   213  ILE213      0.0001
     97  N         66.5110    6.3570   49.8120 N.am  214  SER214     -0.1936
     98  CA        65.9370    5.6850   48.6580 C.3   214  SER214      0.2055
     99  C         64.4460    5.4500   48.8940 C.2   214  SER214      0.2644
    100  O         63.6110    6.2350   48.4430 O.2   214  SER214     -0.2714
    101  CB        66.6830    4.3720   48.3710 C.3   214  SER214      0.2130
    102  OG        66.1340    3.7000   47.2490 O.3   214  SER214     -0.2179
    103  N         64.1100    4.3780   49.6110 N.am  215  THR215     -0.1936
    104  CA        62.7210    4.1200   49.9730 C.3   215  THR215      0.2028
    105  C         62.2590    5.0050   51.1290 C.2   215  THR215      0.2643
    106  O         61.0630    5.2190   51.3120 O.2   215  THR215     -0.2714
    107  CB        62.4960    2.6620   50.4060 C.3   215  THR215      0.1808
    108  OG1       63.1700    2.4210   51.6500 O.3   215  THR215     -0.2208
    109  CG2       62.9920    1.6930   49.3350 C.3   215  THR215      0.0379
    110  N         63.2100    5.4930   51.9130 N.am  216  GLY216     -0.1939
    111  CA        62.8920    6.2380   53.1220 C.3   216  GLY216      0.2014
    112  C         62.7180    5.3330   54.3340 C.2   216  GLY216      0.2639
    113  O         62.4500    5.8080   55.4400 O.2   216  GLY216     -0.2714
    114  N         62.8790    4.0270   54.1380 N.am  217  GLY217     -0.1939
    115  CA        62.6890    3.0780   55.2250 C.3   217  GLY217      0.2014
    116  C         63.6040    3.3530   56.4010 C.2   217  GLY217      0.2640
    117  O         63.2040    3.2260   57.5570 O.2   217  GLY217     -0.2714
    118  N         64.8430    3.7390   56.1080 N.am  218  THR218     -0.1936
    119  CA        65.8230    3.9850   57.1550 C.3   218  THR218      0.2028
    120  C         65.4940    5.2560   57.9380 C.2   218  THR218      0.2642
    121  O         65.5520    5.2690   59.1720 O.2   218  THR218     -0.2714
    122  CB        67.2410    4.0820   56.5800 C.3   218  THR218      0.1808
    123  OG1       67.5940    2.8270   55.9810 O.3   218  THR218     -0.2208
    124  CG2       68.2350    4.4410   57.6650 C.3   218  THR218      0.0379
    125  N         65.1380    6.3220   57.2300 N.am  219  ILE219     -0.1977
    126  CA        64.7130    7.5440   57.9130 C.3   219  ILE219      0.1596
    127  C         63.3900    7.3540   58.6670 C.2   219  ILE219      0.2287
    128  O         63.2550    7.7890   59.8120 O.2   219  ILE219     -0.2864
    129  CB        64.6090    8.7450   56.9480 C.3   219  ILE219      0.0276
    130  CG1       65.9960    9.0900   56.3980 C.3   219  ILE219      0.0022
    131  CG2       63.9790    9.9450   57.6590 C.3   219  ILE219      0.0022
    132  CD1       67.0350    9.3670   57.4640 C.3   219  ILE219      0.0001
@<TRIPOS>BOND
     1    57    55   ar
     2     1     2    1
     3   102   101    1
     4     3     2    1
     5     3     4    2
     6     2     5    1
     7    55    56   ar
     8    55    54    1
     9     5     6    1
    10   101    98    1
    11     7     6    1
    12     7     8    1
    13   100    99    2
    14    98    99    1
    15    98    97    1
    16    92    91    2
    17    54    51    1
    18    99   103   am
    19    88    86    1
    20    87    85    1
    21    12    13    1
    22   109   107    1
    23    10     9    1
    24     8     9    2
    25    86    85    1
    26   103   104    1
    27    91    97   am
    28    91    90    1
    29    16    13    1
    30    16    17    1
    31     9    11    1
    32   104   107    1
    33   104   105    1
    34    85    82    1
    35    51    52    1
    36    51    50    1
    37    13    14    1
    38   107   108    1
    39    53    52    2
    40    17    19   ar
    41    17    18   ar
    42    89    90    1
    43    89    83   am
    44    82    83    1
    45    82    81    1
    46    90    93    1
    47    19    21   ar
    48    76    75    2
    49   105   106    2
    50   105   110   am
    51    14    15    2
    52    93    95    1
    53    93    94    1
    54    83    84    2
    55    18    20   ar
    56   110   111    1
    57    75    81   am
    58    75    74    1
    59    21    20   ar
    60    80    78   ar
    61    94    96    1
    62    77    78    1
    63    77    74    1
    64    78    79   ar
    65    74    73    1
    66   111   112    1
    67    48    47    1
    68    45    46    1
    69    45    44    1
    70    47    46    2
    71    47    49    1
    72   114   112   am
    73   114   115    1
    74    73    67   am
    75   112   113    2
    76    44    43    1
    77    68    67    2
    78    67    66    1
    79   115   116    1
    80    43    40    1
    81   123   122    1
    82   118   116   am
    83   118   119    1
    84    72    70   ar
    85    69    70    1
    86    69    66    1
    87    70    71   ar
    88    66    65    1
    89   130   129    1
    90   130   132    1
    91   116   117    2
    92    38    37    1
    93   122   119    1
    94   122   124    1
    95    41    42    2
    96    41    40    1
    97    63    62    1
    98   129   131    1
    99   129   126    1
   100    40    39    1
   101   119   120    1
   102   125   126    1
   103   125   120   am
   104    58    59    1
   105    29    27   ar
   106    37    36    1
   107   126   127    1
   108   120   121    2
   109    62    59    1
   110    62    64    1
   111    59    60    1
   112   127   128    2
   113    27    28   ar
   114    27    26    1
   115    36    35    1
   116    60    61    2
   117    26    23    1
   118    35    34    1
   119    34    31    1
   120    23    22    1
   121    23    24    1
   122    33    32    2
   123    32    31    1
   124    24    25    2
   125    31    30    1
