@<TRIPOS>MOLECULE
tmp/3mbjA01.pdb
 86 79 0 0 0
SMALL
GASTEIGER

@<TRIPOS>ATOM
      1  N          5.5730   29.5720   -6.6510 N.3   104  LEU104     -0.1245
      2  CA         5.0600   29.0950   -7.9200 C.3   104  LEU104      0.1561
      3  C          3.7160   29.7800   -8.1590 C.2   104  LEU104      0.2260
      4  O          2.8310   29.6660   -7.3570 O.2   104  LEU104     -0.2867
      5  CB         4.9080   27.5550   -7.9260 C.3   104  LEU104      0.0270
      6  CG         4.4100   26.8900   -9.2300 C.3   104  LEU104      0.0019
      7  CD1        5.4600   26.9790  -10.2820 C.3   104  LEU104      0.0001
      8  CD2        3.9860   25.4460   -8.9790 C.3   104  LEU104      0.0001
      9  N          4.2420   31.8020  -13.6270 N.3   134  ASP134     -0.1225
     10  CA         5.3050   30.8610  -13.9780 C.3   134  ASP134      0.1805
     11  C          4.8110   29.7300  -14.8480 C.2   134  ASP134      0.2597
     12  O          5.5670   29.2170  -15.6770 O.2   134  ASP134     -0.2718
     13  CB         5.8840   30.2590  -12.7110 C.3   134  ASP134      0.1424
     14  CG         6.4710   31.2850  -11.8060 C.2   134  ASP134      0.3668
     15  OD1        7.2510   32.1080  -12.3240 O.co2 134  ASP134     -0.2456
     16  OD2        6.1750   31.2620  -10.5820 O.co2 134  ASP134     -0.2456
     17  N          3.5600   29.3040  -14.6060 N.am  135  VAL135     -0.1980
     18  CA         2.9080   28.1940  -15.3330 C.3   135  VAL135      0.1595
     19  C          1.4820   28.5930  -15.7110 C.2   135  VAL135      0.2287
     20  O          0.7040   28.9920  -14.8440 O.2   135  VAL135     -0.2864
     21  CB         2.8420   26.9190  -14.4480 C.3   135  VAL135      0.0276
     22  CG1        2.0750   25.8120  -15.1470 C.3   135  VAL135      0.0022
     23  CG2        4.2670   26.4580  -14.1250 C.3   135  VAL135      0.0022
     24  N          7.3430   30.9820  -17.8560 N.3   173  GLN173     -0.1231
     25  CA         8.3660   29.9850  -18.1500 C.3   173  GLN173      0.1698
     26  C          7.7960   28.6960  -18.7890 C.2   173  GLN173      0.2592
     27  O          8.3970   28.1230  -19.7110 O.2   173  GLN173     -0.2718
     28  CB         9.0580   29.5900  -16.8560 C.3   173  GLN173      0.0381
     29  CG        10.1970   28.6490  -17.0400 C.3   173  GLN173      0.0905
     30  CD        10.6680   28.0950  -15.7220 C.2   173  GLN173      0.2608
     31  OE1       10.7570   28.8290  -14.7560 O.2   173  GLN173     -0.2717
     32  NE2       10.9550   26.8070  -15.6670 N.am  173  GLN173     -0.0878
     33  N          6.6590   28.2380  -18.2460 N.am  174  VAL174     -0.1980
     34  CA         6.0010   27.0210  -18.6760 C.3   174  VAL174      0.1595
     35  C          4.6170   27.3650  -19.2160 C.2   174  VAL174      0.2287
     36  O          3.8290   28.0300  -18.5320 O.2   174  VAL174     -0.2864
     37  CB         5.9430   26.0220  -17.5270 C.3   174  VAL174      0.0276
     38  CG1        5.0150   24.8590  -17.8400 C.3   174  VAL174      0.0022
     39  CG2        7.3820   25.5430  -17.2330 C.3   174  VAL174      0.0022
     40  N          8.9400   24.6420  -21.9050 N.3   192  ASN192     -0.1240
     41  CA         9.6620   25.1310  -20.7000 C.3   192  ASN192      0.1653
     42  C         10.8060   25.9750  -21.2420 C.2   192  ASN192      0.2266
     43  O         11.6300   25.4870  -22.0460 O.2   192  ASN192     -0.2867
     44  CB        10.1930   23.9690  -19.8780 C.3   192  ASN192      0.1155
     45  CG        10.6740   24.3890  -18.4800 C.2   192  ASN192      0.2627
     46  OD1       10.8920   25.5920  -18.2100 O.2   192  ASN192     -0.2716
     47  ND2       10.8220   23.3920  -17.5810 N.am  192  ASN192     -0.0877
     48  N         13.1530   27.0500  -19.5850 N.3   194  GLN194     -0.1245
     49  CA        14.3360   26.4740  -19.0180 C.3   194  GLN194      0.1566
     50  C         14.7160   25.1850  -19.7420 C.2   194  GLN194      0.2260
     51  O         13.9740   24.2260  -19.7530 O.2   194  GLN194     -0.2867
     52  CB        14.1530   26.2180  -17.5510 C.3   194  GLN194      0.0367
     53  CG        15.4520   25.7280  -16.9730 C.3   194  GLN194      0.0905
     54  CD        15.4050   25.4890  -15.4930 C.2   194  GLN194      0.2608
     55  OE1       14.5500   26.0560  -14.7740 O.2   194  GLN194     -0.2717
     56  NE2       16.3410   24.6400  -15.0090 N.am  194  GLN194     -0.0878
     57  N          4.1320   19.3750   -9.7660 N.3   225  LEU225     -0.1245
     58  CA         5.2450   20.3240   -9.8170 C.3   225  LEU225      0.1561
     59  C          5.7300   20.7000   -8.4140 C.2   225  LEU225      0.2260
     60  O          6.9290   20.7400   -8.1610 O.2   225  LEU225     -0.2867
     61  CB         4.8600   21.5740  -10.6120 C.3   225  LEU225      0.0270
     62  CG         4.7130   21.3510  -12.1330 C.3   225  LEU225      0.0019
     63  CD1        4.3400   22.6850  -12.7900 C.3   225  LEU225      0.0001
     64  CD2        5.9790   20.7720  -12.7680 C.3   225  LEU225      0.0001
     65  N          8.2320   17.0170   -9.2580 N.3   228  ASP228     -0.1225
     66  CA         8.2280   16.2830  -10.5220 C.3   228  ASP228      0.1805
     67  C          8.6950   17.1330  -11.7240 C.2   228  ASP228      0.2598
     68  O          8.4170   18.3240  -11.8340 O.2   228  ASP228     -0.2718
     69  CB         6.8210   15.7930  -10.8730 C.3   228  ASP228      0.1424
     70  CG         6.2580   14.7750   -9.9060 C.2   228  ASP228      0.3668
     71  OD1        6.9670   14.2640   -9.0210 O.co2 228  ASP228     -0.2456
     72  OD2        5.0600   14.4890  -10.0920 O.co2 228  ASP228     -0.2456
     73  N          9.3680   16.4940  -12.6530 N.am  229  SER229     -0.1938
     74  CA         9.6850   17.1450  -13.9180 C.3   229  SER229      0.2055
     75  C          8.4120   17.5390  -14.6490 C.2   229  SER229      0.2642
     76  O          7.3360   16.9610  -14.4060 O.2   229  SER229     -0.2714
     77  CB        10.5170   16.2210  -14.7870 C.3   229  SER229      0.2130
     78  OG         9.7190   15.1950  -15.3490 O.3   229  SER229     -0.2179
     79  N          8.5460   18.4840  -15.5670 N.am  230  LEU230     -0.1977
     80  CA         7.3940   18.9590  -16.3520 C.3   230  LEU230      0.1596
     81  C          6.6600   17.8260  -17.0710 C.2   230  LEU230      0.2287
     82  O          5.4320   17.7380  -16.9490 O.2   230  LEU230     -0.2864
     83  CB         7.7620   20.0840  -17.3100 C.3   230  LEU230      0.0297
     84  CG         6.6690   20.6940  -18.2300 C.3   230  LEU230      0.0022
     85  CD1        5.3670   21.0810  -17.4800 C.3   230  LEU230      0.0001
     86  CD2        7.2260   21.9160  -18.9360 C.3   230  LEU230      0.0001
@<TRIPOS>BOND
     1    43    42    2
     2    40    41    1
     3    42    41    1
     4    41    44    1
     5    44    45    1
     6    51    50    2
     7    50    49    1
     8    27    26    2
     9    48    49    1
    10    35    34    1
    11    35    36    2
    12    49    52    1
    13    86    84    1
    14    26    33   am
    15    26    25    1
    16    34    33    1
    17    34    37    1
    18    45    46    2
    19    45    47   am
    20    84    85    1
    21    84    83    1
    22    25    24    1
    23    25    28    1
    24    38    37    1
    25    52    53    1
    26    37    39    1
    27    83    80    1
    28    81    82    2
    29    81    80    1
    30    29    28    1
    31    29    30    1
    32    53    54    1
    33    80    79    1
    34    30    32   am
    35    30    31    2
    36    19    18    1
    37    19    20    2
    38    12    11    2
    39    79    75   am
    40    54    56   am
    41    54    55    2
    42    78    77    1
    43    18    17    1
    44    18    21    1
    45    22    21    1
    46    11    17   am
    47    11    10    1
    48    77    74    1
    49    75    76    2
    50    75    74    1
    51    21    23    1
    52    10     9    1
    53    10    13    1
    54    74    73    1
    55    63    62    1
    56    64    62    1
    57    13    14    1
    58    73    67   am
    59    15    14   ar
    60    62    61    1
    61    68    67    2
    62    14    16   ar
    63    67    66    1
    64    69    66    1
    65    69    70    1
    66    61    58    1
    67    66    65    1
    68     7     6    1
    69    72    70   ar
    70    70    71   ar
    71    58    57    1
    72    58    59    1
    73     6     8    1
    74     6     5    1
    75    59    60    2
    76     3     2    1
    77     3     4    2
    78     5     2    1
    79     2     1    1
