@<TRIPOS>MOLECULE
tmp/3mblA01.pdb
 184 171 0 0 0
SMALL
GASTEIGER

@<TRIPOS>ATOM
      1  N         26.9170   37.3720   42.0540 N.3    17  GLY17      -0.1210
      2  CA        26.6350   37.1350   40.6310 C.3    17  GLY17       0.1956
      3  C         25.2700   36.4620   40.5140 C.2    17  GLY17       0.2611
      4  O         24.3630   36.7110   41.3370 O.2    17  GLY17      -0.2717
      5  N         25.1190   35.6090   39.4950 N.am   18  ASN18      -0.1974
      6  CA        23.9140   34.7620   39.3160 C.3    18  ASN18       0.1688
      7  C         23.7430   33.6570   40.3910 C.2    18  ASN18       0.2292
      8  O         24.5800   32.7230   40.4890 O.2    18  ASN18      -0.2864
      9  CB        23.9000   34.1160   37.9140 C.3    18  ASN18       0.1181
     10  CG        23.4650   35.0800   36.8220 C.2    18  ASN18       0.2629
     11  OD1       22.7370   34.7000   35.8870 O.2    18  ASN18      -0.2716
     12  ND2       23.8990   36.3400   36.9350 N.am   18  ASN18      -0.0877
     13  N         24.5020   33.2340   43.3020 N.3    20  GLY20      -0.1225
     14  CA        25.6630   33.0590   44.2250 C.3    20  GLY20       0.1811
     15  C         26.2630   34.2990   44.9140 C.2    20  GLY20       0.2280
     16  O         26.7370   35.2370   44.2530 O.2    20  GLY20      -0.2866
     17  N         31.6050   31.0910   48.9650 N.3    37  LYS37      -0.1245
     18  CA        30.6240   31.2710   47.9270 C.3    37  LYS37       0.1561
     19  C         29.4570   30.3490   48.2460 C.2    37  LYS37       0.2260
     20  O         29.6570   29.1630   48.5910 O.2    37  LYS37      -0.2867
     21  CB        31.2020   30.9270   46.5620 C.3    37  LYS37       0.0271
     22  CG        30.2060   30.9920   45.4130 C.3    37  LYS37       0.0035
     23  CD        30.7610   30.5630   44.0770 C.3    37  LYS37       0.0206
     24  CE        31.4740   31.7010   43.3680 C.3    37  LYS37       0.1093
     25  NZ        31.0740   31.9100   41.9250 N.3    37  LYS37      -0.1314
     26  N         25.7840   28.8930   46.8910 N.3    39  ILE39      -0.1245
     27  CA        24.9240   28.6830   45.7340 C.3    39  ILE39       0.1561
     28  C         23.5940   28.1010   46.1460 C.2    39  ILE39       0.2260
     29  O         23.5190   26.9670   46.6030 O.2    39  ILE39      -0.2867
     30  CB        25.5750   27.7910   44.6880 C.3    39  ILE39       0.0252
     31  CG1       26.9170   28.3830   44.2450 C.3    39  ILE39       0.0019
     32  CG2       24.6570   27.6430   43.5150 C.3    39  ILE39       0.0019
     33  CD1       27.8370   27.3960   43.4800 C.3    39  ILE39       0.0001
     34  N         32.5180   17.9240   43.9540 N.3    55  LEU55      -0.1245
     35  CA        33.3150   19.1010   44.3300 C.3    55  LEU55       0.1561
     36  C         34.6040   18.7830   45.0610 C.2    55  LEU55       0.2260
     37  O         35.4380   19.6620   45.2350 O.2    55  LEU55      -0.2867
     38  CB        32.5170   20.0730   45.2050 C.3    55  LEU55       0.0270
     39  CG        31.3470   20.7770   44.5000 C.3    55  LEU55       0.0019
     40  CD1       30.4900   21.6410   45.4390 C.3    55  LEU55       0.0001
     41  CD2       31.8710   21.5660   43.3100 C.3    55  LEU55       0.0001
     42  N         38.3170   19.3400   43.9160 N.3    58  LEU58      -0.1245
     43  CA        38.9800   20.6120   44.0480 C.3    58  LEU58       0.1561
     44  C         40.1290   20.4980   45.0320 C.2    58  LEU58       0.2260
     45  O         41.1080   21.2460   44.9040 O.2    58  LEU58      -0.2867
     46  CB        38.0080   21.7220   44.4380 C.3    58  LEU58       0.0270
     47  CG        36.9360   22.0850   43.3920 C.3    58  LEU58       0.0019
     48  CD1       35.9640   23.1050   43.9350 C.3    58  LEU58       0.0001
     49  CD2       37.5270   22.6380   42.1560 C.3    58  LEU58       0.0001
     50  N         43.2080   20.0930   43.1440 N.3    61  CYS61      -0.1235
     51  CA        43.6170   21.2010   42.2680 C.3    61  CYS61       0.1677
     52  C         44.6230   22.0740   43.0120 C.2    61  CYS61       0.2270
     53  O         44.2510   22.8710   43.8740 O.2    61  CYS61      -0.2867
     54  CB        42.4100   22.0530   41.8400 C.3    61  CYS61       0.0956
     55  SG        41.2570   21.2130   40.7210 S.3    61  CYS61      -0.0801
     56  N         45.5640   28.7450   40.1280 N.3    66  ILE66      -0.1231
     57  CA        44.2340   28.2830   40.3560 C.3    66  ILE66       0.1692
     58  C         43.9660   28.6880   41.7590 C.2    66  ILE66       0.2592
     59  O         44.7890   28.4000   42.6270 O.2    66  ILE66      -0.2718
     60  CB        44.1590   26.7260   40.2990 C.3    66  ILE66       0.0266
     61  CG1       44.3230   26.2310   38.8660 C.3    66  ILE66       0.0019
     62  CG2       42.8510   26.2180   40.8570 C.3    66  ILE66       0.0020
     63  CD1       43.4910   26.9050   37.8240 C.3    66  ILE66       0.0001
     64  N         42.8050   29.3190   42.0050 N.am   67  VAL67      -0.1966
     65  CA        42.4510   29.7220   43.3700 C.3    67  VAL67       0.1727
     66  C         42.4420   28.5260   44.3420 C.2    67  VAL67       0.2617
     67  O         42.0350   27.4460   43.9870 O.2    67  VAL67      -0.2715
     68  CB        41.1510   30.5540   43.3840 C.3    67  VAL67       0.0290
     69  CG1       40.6870   30.8520   44.7840 C.3    67  VAL67       0.0023
     70  CG2       41.3500   31.8670   42.6000 C.3    67  VAL67       0.0023
     71  N         43.0410   28.7000   45.5190 N.am   68  GLY68      -0.1940
     72  CA        43.0730   27.6650   46.5400 C.3    68  GLY68       0.2014
     73  C         41.6750   27.2880   46.9620 C.2    68  GLY68       0.2638
     74  O         40.7860   28.1120   46.9280 O.2    68  GLY68      -0.2714
     75  N         41.4970   26.0360   47.3620 N.am   69  PHE69      -0.1973
     76  CA        40.2370   25.4810   47.7950 C.3    69  PHE69       0.1639
     77  C         40.4460   24.8690   49.1690 C.2    69  PHE69       0.2290
     78  O         41.4400   24.1500   49.3830 O.2    69  PHE69      -0.2864
     79  CB        39.8130   24.3860   46.8340 C.3    69  PHE69       0.0560
     80  CG        38.5850   23.6020   47.2680 C.ar   69  PHE69      -0.0200
     81  CD1       38.7140   22.2750   47.7290 C.ar   69  PHE69      -0.0042
     82  CD2       37.2850   24.1600   47.1740 C.ar   69  PHE69      -0.0042
     83  CE1       37.5620   21.4950   48.0660 C.ar   69  PHE69      -0.0003
     84  CE2       36.1110   23.3980   47.5390 C.ar   69  PHE69      -0.0003
     85  CZ        36.2450   22.0580   47.9580 C.ar   69  PHE69      -0.0000
     86  N         31.0640   26.7560   48.8240 N.3    81  ILE81      -0.1245
     87  CA        32.4370   26.5110   48.3840 C.3    81  ILE81       0.1561
     88  C         33.3580   27.5290   49.0670 C.2    81  ILE81       0.2260
     89  O         33.1320   28.7470   48.9870 O.2    81  ILE81      -0.2867
     90  CB        32.5500   26.5610   46.8490 C.3    81  ILE81       0.0252
     91  CG1       31.5930   25.5670   46.2260 C.3    81  ILE81       0.0019
     92  CG2       33.9450   26.2400   46.3800 C.3    81  ILE81       0.0019
     93  CD1       31.4270   25.7360   44.7970 C.3    81  ILE81       0.0001
     94  N         37.0750   29.0870   49.5440 N.3    83  MET83      -0.1245
     95  CA        38.2900   29.2700   48.7730 C.3    83  MET83       0.1570
     96  C         39.2350   30.1830   49.5270 C.2    83  MET83       0.2261
     97  O         38.8550   30.9220   50.4840 O.2    83  MET83      -0.2867
     98  CB        37.9900   30.0680   47.5010 C.3    83  MET83       0.0387
     99  CG        37.0960   29.5230   46.5170 C.3    83  MET83       0.0595
    100  SD        36.1670   30.8900   45.6350 S.3    83  MET83      -0.1393
    101  CE        37.5100   31.7430   44.9190 C.3    83  MET83       0.0692
    102  N         33.9730   29.2370   31.9040 N.3   130  ASP130     -0.1239
    103  CA        33.5320   30.5410   32.3420 C.3   130  ASP130      0.1674
    104  C         34.7080   31.4580   32.5480 C.2   130  ASP130      0.2266
    105  O         34.8920   32.0220   33.6160 O.2   130  ASP130     -0.2867
    106  CB        32.7130   30.4120   33.6200 C.3   130  ASP130      0.1410
    107  CG        31.7470   31.6020   33.8450 C.2   130  ASP130      0.3668
    108  OD1       31.1600   31.6600   34.9940 O.co2 130  ASP130     -0.2456
    109  OD2       31.5730   32.4530   32.9010 O.co2 130  ASP130     -0.2456
    110  N         36.3250   34.8070   32.2280 N.3   132  LYS132     -0.1245
    111  CA        35.9720   36.2090   32.0920 C.3   132  LYS132      0.1561
    112  C         36.6990   37.0090   33.1780 C.2   132  LYS132      0.2260
    113  O         37.1340   36.3990   34.1660 O.2   132  LYS132     -0.2867
    114  CB        34.4310   36.4080   32.1540 C.3   132  LYS132      0.0271
    115  CG        33.6770   35.7450   33.2970 C.3   132  LYS132      0.0035
    116  CD        32.2250   36.2180   33.3760 C.3   132  LYS132      0.0206
    117  CE        31.4970   35.3950   34.4190 C.3   132  LYS132      0.1093
    118  NZ        30.3410   36.0190   35.1010 N.3   132  LYS132     -0.1314
    119  N         39.3200   31.0120   38.9320 N.3   147  CYS147     -0.1221
    120  CA        38.3440   30.4880   39.8260 C.3   147  CYS147      0.1808
    121  C         37.0850   30.1080   39.0460 C.2   147  CYS147      0.2601
    122  O         37.0080   30.3470   37.8640 O.2   147  CYS147     -0.2717
    123  CB        38.0250   31.4430   40.9790 C.3   147  CYS147      0.0970
    124  SG        37.0510   32.8600   40.5330 S.3   147  CYS147     -0.0800
    125  N         36.1110   29.5120   39.7140 N.am  148  ASP148     -0.1959
    126  CA        34.7890   29.2750   39.0930 C.3   148  ASP148      0.1840
    127  C         34.8090   28.4190   37.7910 C.2   148  ASP148      0.2622
    128  O         34.0260   28.6300   36.8690 O.2   148  ASP148     -0.2715
    129  CB        34.0380   30.6010   38.9270 C.3   148  ASP148      0.1450
    130  CG        33.7950   31.3150   40.2700 C.2   148  ASP148      0.3671
    131  OD1       34.0350   30.7320   41.3760 O.co2 148  ASP148     -0.2456
    132  OD2       33.3710   32.4980   40.2150 O.co2 148  ASP148     -0.2456
    133  N         35.6910   27.4240   37.7480 N.am  149  PHE149     -0.1960
    134  CA        35.6700   26.4510   36.6550 C.3   149  PHE149      0.1771
    135  C         34.7360   25.2750   36.9930 C.2   149  PHE149      0.2620
    136  O         34.4170   25.0170   38.1760 O.2   149  PHE149     -0.2715
    137  CB        37.0860   25.9740   36.3000 C.3   149  PHE149      0.0574
    138  CG        37.9200   25.7230   37.4700 C.ar  149  PHE149     -0.0200
    139  CD1       37.9410   24.4690   38.0450 C.ar  149  PHE149     -0.0042
    140  CD2       38.6570   26.7740   38.0520 C.ar  149  PHE149     -0.0042
    141  CE1       38.6730   24.2430   39.2150 C.ar  149  PHE149     -0.0003
    142  CE2       39.3880   26.5640   39.2040 C.ar  149  PHE149     -0.0003
    143  CZ        39.4110   25.2780   39.7710 C.ar  149  PHE149     -0.0000
    144  N         34.3080   24.5670   35.9610 N.am  150  GLY150     -0.1940
    145  CA        33.3230   23.5300   36.1490 C.3   150  GLY150      0.2014
    146  C         33.9580   22.1970   36.4280 C.2   150  GLY150      0.2639
    147  O         34.4180   21.5260   35.5260 O.2   150  GLY150     -0.2714
    148  N         33.9720   21.8140   37.6900 N.am  151  VAL151     -0.1963
    149  CA        34.4970   20.5260   38.0600 C.3   151  VAL151      0.1727
    150  C         33.3590   19.5490   38.1850 C.2   151  VAL151      0.2616
    151  O         33.5970   18.3380   38.1500 O.2   151  VAL151     -0.2715
    152  CB        35.3060   20.5500   39.4190 C.3   151  VAL151      0.0290
    153  CG1       36.4920   21.5150   39.3230 C.3   151  VAL151      0.0023
    154  CG2       34.4290   20.9260   40.5970 C.3   151  VAL151      0.0023
    155  N         32.1380   20.0540   38.3750 N.am  152  SER152     -0.1950
    156  CA        31.0660   19.1430   38.7170 C.3   152  SER152      0.1924
    157  C         30.0160   19.0610   37.6300 C.2   152  SER152      0.2314
    158  O         29.2510   20.0100   37.4050 O.2   152  SER152     -0.2863
    159  CB        30.4480   19.4710   40.0740 C.3   152  SER152      0.2116
    160  OG        29.1680   18.8740   40.1890 O.3   152  SER152     -0.2180
    161  N         26.6910   19.9150   38.7090 N.3   155  LEU155     -0.1231
    162  CA        26.4690   21.3040   39.1200 C.3   155  LEU155      0.1693
    163  C         26.3020   22.1580   37.8780 C.2   155  LEU155      0.2591
    164  O         25.4210   23.0250   37.8230 O.2   155  LEU155     -0.2718
    165  CB        27.5890   21.8400   40.0280 C.3   155  LEU155      0.0284
    166  CG        27.3970   23.2410   40.6520 C.3   155  LEU155      0.0019
    167  CD1       26.1390   23.3400   41.5090 C.3   155  LEU155      0.0001
    168  CD2       28.5700   23.6410   41.4420 C.3   155  LEU155      0.0001
    169  N         27.1430   21.9090   36.8750 N.am  156  ILE156     -0.1980
    170  CA        26.8830   22.4600   35.5520 C.3   156  ILE156      0.1595
    171  C         25.3570   22.2860   35.2200 C.2   156  ILE156      0.2287
    172  O         24.6930   23.2360   34.7920 O.2   156  ILE156     -0.2864
    173  CB        27.7810   21.8150   34.4860 C.3   156  ILE156      0.0276
    174  CG1       29.2680   22.1500   34.7290 C.3   156  ILE156      0.0022
    175  CG2       27.3690   22.2930   33.1030 C.3   156  ILE156      0.0022
    176  CD1       30.2750   21.2680   33.9420 C.3   156  ILE156      0.0001
    177  N         22.6830   24.4070   37.2600 N.3   159  MET159     -0.1245
    178  CA        22.9560   25.8130   37.0580 C.3   159  MET159      0.1570
    179  C         22.7090   26.2770   35.6200 C.2   159  MET159      0.2261
    180  O         22.9990   27.4390   35.2740 O.2   159  MET159     -0.2867
    181  CB        24.3930   26.1460   37.4960 C.3   159  MET159      0.0387
    182  CG        24.5370   26.3080   39.0250 C.3   159  MET159      0.0595
    183  SD        26.2040   26.8050   39.4570 S.3   159  MET159     -0.1393
    184  CE        26.0780   28.5880   39.3330 C.3   159  MET159      0.0692
@<TRIPOS>BOND
     1   102   103    1
     2   111   114    1
     3   111   110    1
     4   111   112    1
     5   114   115    1
     6   103   104    1
     7   103   106    1
     8   104   105    2
     9   109   107   ar
    10   175   173    1
    11   112   113    2
    12   115   116    1
    13   116   117    1
    14   106   107    1
    15   107   108   ar
    16   176   174    1
    17   117   118    1
    18   173   174    1
    19   173   170    1
    20   172   171    2
    21   171   170    1
    22   180   179    2
    23   147   146    2
    24   170   169    1
    25   179   178    1
    26    11    10    2
    27   144   145    1
    28   144   135   am
    29   145   146    1
    30   137   134    1
    31   137   138    1
    32   146   148   am
    33   134   135    1
    34   134   133    1
    35    10    12   am
    36    10     9    1
    37   128   127    2
    38   169   163   am
    39   135   136    2
    40   178   177    1
    41   178   181    1
    42   158   157    2
    43   138   139   ar
    44   138   140   ar
    45   181   182    1
    46   157   156    1
    47   148   149    1
    48   133   127   am
    49   127   126    1
    50   164   163    2
    51    63    61    1
    52   122   121    2
    53   163   162    1
    54     9     6    1
    55   139   141   ar
    56   140   142   ar
    57   149   150    1
    58   149   152    1
    59   151   150    2
    60   150   155   am
    61   155   156    1
    62   161   162    1
    63   156   159    1
    64    61    60    1
    65   129   126    1
    66   129   130    1
    67   119   120    1
    68   182   183    1
    69   121   125   am
    70   121   120    1
    71   126   125    1
    72   162   165    1
    73   142   143   ar
    74   141   143   ar
    75     6     5    1
    76     6     7    1
    77   153   152    1
    78   184   183    1
    79   152   154    1
    80     5     3   am
    81   120   123    1
    82   165   166    1
    83   159   160    1
    84    56    57    1
    85   132   130   ar
    86   130   131   ar
    87    60    57    1
    88    60    62    1
    89    57    58    1
    90     7     8    2
    91     3     2    1
    92     3     4    2
    93   124   123    1
    94     2     1    1
    95   166   168    1
    96   166   167    1
    97    55    54    1
    98    58    64   am
    99    58    59    2
   100    54    51    1
   101    25    24    1
   102    64    65    1
   103    49    47    1
   104    51    52    1
   105    51    50    1
   106    70    68    1
   107    52    53    2
   108    13    14    1
   109    41    39    1
   110    24    23    1
   111    65    68    1
   112    65    66    1
   113    68    69    1
   114    47    48    1
   115    47    46    1
   116    33    31    1
   117    32    30    1
   118    42    43    1
   119    34    35    1
   120    67    66    2
   121    43    46    1
   122    43    44    1
   123    23    22    1
   124    14    15    1
   125    31    30    1
   126    16    15    2
   127    35    36    1
   128    35    38    1
   129    66    71   am
   130    39    38    1
   131    39    40    1
   132    30    27    1
   133    93    91    1
   134    45    44    2
   135   101   100    1
   136    36    37    2
   137    22    21    1
   138    71    72    1
   139   100    99    1
   140    27    28    1
   141    27    26    1
   142    28    29    2
   143    91    90    1
   144    92    90    1
   145    99    98    1
   146    72    73    1
   147    21    18    1
   148    79    80    1
   149    79    76    1
   150    90    87    1
   151    74    73    2
   152    73    75   am
   153    82    80   ar
   154    82    84   ar
   155    80    81   ar
   156    75    76    1
   157    98    95    1
   158    84    85   ar
   159    81    83   ar
   160    76    77    1
   161    18    19    1
   162    18    17    1
   163    85    83   ar
   164    19    20    2
   165    87    86    1
   166    87    88    1
   167    95    96    1
   168    95    94    1
   169    89    88    2
   170    77    78    2
   171    96    97    2
