@<TRIPOS>MOLECULE
tmp/3mblA00.pdb
 169 157 0 0 0
SMALL
GASTEIGER

@<TRIPOS>ATOM
      1  N         31.9830   40.1320   49.4920 N.3    14  LEU14      -0.1231
      2  CA        32.9750   40.4160   48.4330 C.3    14  LEU14       0.1693
      3  C         32.3160   40.7600   47.1120 C.2    14  LEU14       0.2593
      4  O         32.8620   41.5230   46.3390 O.2    14  LEU14      -0.2718
      5  CB        33.9460   39.2550   48.2390 C.3    14  LEU14       0.0284
      6  CG        34.8130   39.0520   49.4800 C.3    14  LEU14       0.0019
      7  CD1       35.4770   37.7010   49.4240 C.3    14  LEU14       0.0001
      8  CD2       35.8280   40.2380   49.6050 C.3    14  LEU14       0.0001
      9  N         31.1470   40.1730   46.8660 N.am   15  GLY15      -0.1942
     10  CA        30.2960   40.5590   45.7680 C.3    15  GLY15       0.2014
     11  C         29.2220   39.5030   45.6010 C.2    15  GLY15       0.2639
     12  O         29.0970   38.5950   46.4490 O.2    15  GLY15      -0.2714
     13  N         28.4470   39.6370   44.5090 N.am   16  ALA16      -0.1963
     14  CA        27.4370   38.6390   44.0640 C.3    16  ALA16       0.1728
     15  C         27.4480   38.4980   42.5390 C.2    16  ALA16       0.2617
     16  O         27.9520   39.3780   41.8370 O.2    16  ALA16      -0.2715
     17  CB        26.0250   39.0150   44.5420 C.3    16  ALA16       0.0334
     18  N         26.9170   37.3720   42.0540 N.am   17  GLY17      -0.1940
     19  CA        26.6350   37.1350   40.6310 C.3    17  GLY17       0.2014
     20  C         25.2700   36.4620   40.5140 C.2    17  GLY17       0.2638
     21  O         24.3630   36.7110   41.3370 O.2    17  GLY17      -0.2714
     22  N         25.1190   35.6090   39.4950 N.am   18  ASN18      -0.1972
     23  CA        23.9140   34.7620   39.3160 C.3    18  ASN18       0.1688
     24  C         23.7430   33.6570   40.3910 C.2    18  ASN18       0.2292
     25  O         24.5800   32.7230   40.4890 O.2    18  ASN18      -0.2864
     26  CB        23.9000   34.1160   37.9140 C.3    18  ASN18       0.1181
     27  CG        23.4650   35.0800   36.8220 C.2    18  ASN18       0.2629
     28  OD1       22.7370   34.7000   35.8870 O.2    18  ASN18      -0.2716
     29  ND2       23.8990   36.3400   36.9350 N.am   18  ASN18      -0.0877
     30  N         24.5020   33.2340   43.3020 N.3    20  GLY20      -0.1225
     31  CA        25.6630   33.0590   44.2250 C.3    20  GLY20       0.1811
     32  C         26.2630   34.2990   44.9140 C.2    20  GLY20       0.2280
     33  O         26.7370   35.2370   44.2530 O.2    20  GLY20      -0.2866
     34  N         29.1570   35.8770   47.5780 N.3    22  VAL22      -0.1245
     35  CA        30.4500   35.5700   48.0920 C.3    22  VAL22       0.1561
     36  C         30.7960   36.4370   49.2890 C.2    22  VAL22       0.2260
     37  O         30.8760   37.6710   49.2110 O.2    22  VAL22      -0.2867
     38  CB        31.5090   35.5950   47.0130 C.3    22  VAL22       0.0252
     39  CG1       32.8400   35.1040   47.5820 C.3    22  VAL22       0.0019
     40  CG2       31.0860   34.7030   45.8890 C.3    22  VAL22       0.0019
     41  N         37.2060   33.1390   51.3550 N.3    35  ALA35      -0.1245
     42  CA        36.0370   33.6270   50.6200 C.3    35  ALA35       0.1562
     43  C         35.1010   32.4650   50.5660 C.2    35  ALA35       0.2260
     44  O         35.4880   31.3450   50.2410 O.2    35  ALA35      -0.2867
     45  CB        36.3960   34.1210   49.2170 C.3    35  ALA35       0.0290
     46  N         31.6050   31.0910   48.9650 N.3    37  LYS37      -0.1245
     47  CA        30.6240   31.2710   47.9270 C.3    37  LYS37       0.1561
     48  C         29.4570   30.3490   48.2460 C.2    37  LYS37       0.2260
     49  O         29.6570   29.1630   48.5910 O.2    37  LYS37      -0.2867
     50  CB        31.2020   30.9270   46.5620 C.3    37  LYS37       0.0271
     51  CG        30.2060   30.9920   45.4130 C.3    37  LYS37       0.0035
     52  CD        30.7610   30.5630   44.0770 C.3    37  LYS37       0.0206
     53  CE        31.4740   31.7010   43.3680 C.3    37  LYS37       0.1093
     54  NZ        31.0740   31.9100   41.9250 N.3    37  LYS37      -0.1314
     55  N         37.0750   29.0870   49.5440 N.3    83  MET83      -0.1230
     56  CA        38.2900   29.2700   48.7730 C.3    83  MET83       0.1702
     57  C         39.2350   30.1830   49.5270 C.2    83  MET83       0.2592
     58  O         38.8550   30.9220   50.4840 O.2    83  MET83      -0.2718
     59  CB        37.9900   30.0680   47.5010 C.3    83  MET83       0.0401
     60  CG        37.0960   29.5230   46.5170 C.3    83  MET83       0.0596
     61  SD        36.1670   30.8900   45.6350 S.3    83  MET83      -0.1393
     62  CE        37.5100   31.7430   44.9190 C.3    83  MET83       0.0692
     63  N         40.4480   30.2270   48.9950 N.am   84  GLU84      -0.1966
     64  CA        41.4440   31.2520   49.3520 C.3    84  GLU84       0.1733
     65  C         40.8780   32.6290   49.0470 C.2    84  GLU84       0.2616
     66  O         40.2750   32.8300   47.9860 O.2    84  GLU84      -0.2715
     67  CB        42.6850   30.9870   48.4990 C.3    84  GLU84       0.0429
     68  CG        43.5450   32.1390   48.2380 C.3    84  GLU84       0.1163
     69  CD        44.7600   31.7560   47.3930 C.2    84  GLU84       0.3649
     70  OE1       45.7580   32.4690   47.4840 O.co2  84  GLU84      -0.2457
     71  OE2       44.7320   30.7830   46.6180 O.co2  84  GLU84      -0.2457
     72  N         41.0890   33.5810   49.9460 N.am   85  HIS85      -0.1959
     73  CA        40.5450   34.9180   49.7520 C.3    85  HIS85       0.1787
     74  C         41.5920   35.7520   48.9790 C.2    85  HIS85       0.2620
     75  O         42.7480   35.8290   49.3580 O.2    85  HIS85      -0.2715
     76  CB        40.1920   35.5500   51.1010 C.3    85  HIS85       0.0785
     77  CG        40.1190   37.0430   51.0700 C.ar   85  HIS85       0.0821
     78  ND1       41.0880   37.8460   51.6360 N.ar   85  HIS85      -0.2267
     79  CD2       39.2130   37.8870   50.5160 C.ar   85  HIS85       0.1154
     80  CE1       40.7830   39.1190   51.4340 C.ar   85  HIS85       0.1986
     81  NE2       39.6460   39.1710   50.7600 N.ar   85  HIS85      -0.2212
     82  N         41.2040   36.3370   47.8600 N.am   86  MET86      -0.1977
     83  CA        42.1660   37.0950   47.0860 C.3    86  MET86       0.1605
     84  C         41.9030   38.5700   47.3060 C.2    86  MET86       0.2287
     85  O         40.9210   39.1330   46.7880 O.2    86  MET86      -0.2864
     86  CB        42.0980   36.7300   45.6180 C.3    86  MET86       0.0413
     87  CG        42.2350   35.2570   45.3930 C.3    86  MET86       0.0598
     88  SD        43.9470   34.6820   45.2680 S.3    86  MET86      -0.1393
     89  CE        44.5640   35.6180   43.8420 C.3    86  MET86       0.0692
     90  N         40.8410   41.1400   44.6490 N.3    89  GLY89      -0.1210
     91  CA        39.6130   41.0400   43.8940 C.3    89  GLY89       0.1956
     92  C         39.8120   40.4030   42.5260 C.2    89  GLY89       0.2612
     93  O         40.8440   39.7510   42.2590 O.2    89  GLY89      -0.2717
     94  N         38.8130   40.6000   41.6660 N.am   90  SER90      -0.1952
     95  CA        38.8370   40.1420   40.2880 C.3    90  SER90       0.1924
     96  C         39.2550   41.2820   39.4130 C.2    90  SER90       0.2314
     97  O         39.2070   42.4590   39.8030 O.2    90  SER90      -0.2863
     98  CB        37.4530   39.7180   39.8520 C.3    90  SER90       0.2116
     99  OG        36.5020   40.6330   40.3710 O.3    90  SER90      -0.2180
    100  N         37.7930   42.3680   36.6560 N.3    92  ASP92      -0.1225
    101  CA        36.7690   43.3860   36.3880 C.3    92  ASP92       0.1805
    102  C         36.7190   44.4590   37.4450 C.2    92  ASP92       0.2597
    103  O         36.4500   45.5930   37.1020 O.2    92  ASP92      -0.2718
    104  CB        35.3500   42.8120   36.1970 C.3    92  ASP92       0.1424
    105  CG        34.8510   42.1720   37.4290 C.2    92  ASP92       0.3668
    106  OD1       33.6980   42.4440   37.7940 O.co2  92  ASP92      -0.2456
    107  OD2       35.6550   41.4490   38.0840 O.co2  92  ASP92      -0.2456
    108  N         36.9380   44.1130   38.7180 N.am   93  GLN93      -0.1979
    109  CA        36.9440   45.1320   39.7720 C.3    93  GLN93       0.1601
    110  C         38.1760   46.0100   39.5590 C.2    93  GLN93       0.2287
    111  O         38.1130   47.2300   39.6870 O.2    93  GLN93      -0.2864
    112  CB        37.0000   44.5220   41.1790 C.3    93  GLN93       0.0394
    113  CG        35.7200   43.9340   41.6620 C.3    93  GLN93       0.0908
    114  CD        35.8380   43.1320   42.9740 C.2    93  GLN93       0.2608
    115  OE1       36.6350   42.1920   43.1070 O.2    93  GLN93      -0.2717
    116  NE2       35.0060   43.4880   43.9360 N.am   93  GLN93      -0.0878
    117  N         33.9730   29.2370   31.9040 N.3   130  ASP130     -0.1239
    118  CA        33.5320   30.5410   32.3420 C.3   130  ASP130      0.1674
    119  C         34.7080   31.4580   32.5480 C.2   130  ASP130      0.2266
    120  O         34.8920   32.0220   33.6160 O.2   130  ASP130     -0.2867
    121  CB        32.7130   30.4120   33.6200 C.3   130  ASP130      0.1410
    122  CG        31.7470   31.6020   33.8450 C.2   130  ASP130      0.3668
    123  OD1       31.1600   31.6600   34.9940 O.co2 130  ASP130     -0.2456
    124  OD2       31.5730   32.4530   32.9010 O.co2 130  ASP130     -0.2456
    125  N         36.3250   34.8070   32.2280 N.3   132  LYS132     -0.1245
    126  CA        35.9720   36.2090   32.0920 C.3   132  LYS132      0.1561
    127  C         36.6990   37.0090   33.1780 C.2   132  LYS132      0.2260
    128  O         37.1340   36.3990   34.1660 O.2   132  LYS132     -0.2867
    129  CB        34.4310   36.4080   32.1540 C.3   132  LYS132      0.0271
    130  CG        33.6770   35.7450   33.2970 C.3   132  LYS132      0.0035
    131  CD        32.2250   36.2180   33.3760 C.3   132  LYS132      0.0206
    132  CE        31.4970   35.3950   34.4190 C.3   132  LYS132      0.1093
    133  NZ        30.3410   36.0190   35.1010 N.3   132  LYS132     -0.1314
    134  N         35.8970   38.6440   35.7870 N.3   134  SER134     -0.1202
    135  CA        35.4940   38.4880   37.1760 C.3   134  SER134      0.2020
    136  C         35.9120   37.1380   37.7740 C.2   134  SER134      0.2618
    137  O         35.8200   36.9580   39.0000 O.2   134  SER134     -0.2717
    138  CB        33.9750   38.6500   37.3140 C.3   134  SER134      0.2103
    139  OG        33.3210   37.4570   36.8530 O.3   134  SER134     -0.2182
    140  N         36.2700   36.1760   36.9300 N.am  135  ASN135     -0.1974
    141  CA        36.7430   34.9040   37.4140 C.3   135  ASN135      0.1688
    142  C         38.2860   34.8110   37.3070 C.2   135  ASN135      0.2292
    143  O         38.8450   33.7090   37.3180 O.2   135  ASN135     -0.2864
    144  CB        36.1020   33.7730   36.6350 C.3   135  ASN135      0.1181
    145  CG        34.6380   33.6180   36.9500 C.2   135  ASN135      0.2629
    146  OD1       34.1420   34.1170   37.9780 O.2   135  ASN135     -0.2716
    147  ND2       33.9230   32.9210   36.0800 N.am  135  ASN135     -0.0877
    148  N         41.1870   36.2670   39.5140 N.3   137  LEU137     -0.1245
    149  CA        41.4360   36.8980   40.7840 C.3   137  LEU137      0.1561
    150  C         42.9470   37.1820   40.9610 C.2   137  LEU137      0.2260
    151  O         43.8010   36.4730   40.4230 O.2   137  LEU137     -0.2867
    152  CB        40.9030   35.9790   41.8550 C.3   137  LEU137      0.0270
    153  CG        39.4390   35.5280   41.6670 C.3   137  LEU137      0.0019
    154  CD1       38.9690   34.7700   42.8610 C.3   137  LEU137      0.0001
    155  CD2       38.5840   36.7530   41.5890 C.3   137  LEU137      0.0001
    156  N         39.3200   31.0120   38.9320 N.3   147  CYS147     -0.1221
    157  CA        38.3440   30.4880   39.8260 C.3   147  CYS147      0.1808
    158  C         37.0850   30.1080   39.0460 C.2   147  CYS147      0.2601
    159  O         37.0080   30.3470   37.8640 O.2   147  CYS147     -0.2717
    160  CB        38.0250   31.4430   40.9790 C.3   147  CYS147      0.0970
    161  SG        37.0510   32.8600   40.5330 S.3   147  CYS147     -0.0800
    162  N         36.1110   29.5120   39.7140 N.am  148  ASP148     -0.1973
    163  CA        34.7890   29.2750   39.0930 C.3   148  ASP148      0.1709
    164  C         34.8090   28.4190   37.7910 C.2   148  ASP148      0.2293
    165  O         34.0260   28.6300   36.8690 O.2   148  ASP148     -0.2864
    166  CB        34.0380   30.6010   38.9270 C.3   148  ASP148      0.1436
    167  CG        33.7950   31.3150   40.2700 C.2   148  ASP148      0.3671
    168  OD1       34.0350   30.7320   41.3760 O.co2 148  ASP148     -0.2456
    169  OD2       33.3710   32.4980   40.2150 O.co2 148  ASP148     -0.2456
@<TRIPOS>BOND
     1   117   118    1
     2   126   129    1
     3   126   125    1
     4   126   127    1
     5   129   130    1
     6   118   119    1
     7   118   121    1
     8   119   120    2
     9   124   122   ar
    10   127   128    2
    11   130   131    1
    12   131   132    1
    13   121   122    1
    14   122   123   ar
    15   132   133    1
    16   134   135    1
    17    28    27    2
    18   147   145   am
    19   104   101    1
    20   104   105    1
    21   101   100    1
    22   101   102    1
    23   144   145    1
    24   144   141    1
    25    27    29   am
    26    27    26    1
    27   139   138    1
    28   165   164    2
    29   140   141    1
    30   140   136   am
    31   145   146    2
    32   103   102    2
    33   135   138    1
    34   135   136    1
    35   142   143    2
    36   142   141    1
    37   105   106   ar
    38   105   107   ar
    39   102   108   am
    40   136   137    2
    41   164   163    1
    42   159   158    2
    43    26    23    1
    44   108   109    1
    45   166   163    1
    46   166   167    1
    47   156   157    1
    48   158   162   am
    49   158   157    1
    50   163   162    1
    51    23    22    1
    52    23    24    1
    53    96    97    2
    54    96    95    1
    55    22    20   am
    56   148   149    1
    57   110   111    2
    58   110   109    1
    59   109   112    1
    60   157   160    1
    61    98    95    1
    62    98    99    1
    63   169   167   ar
    64   167   168   ar
    65    95    94    1
    66    24    25    2
    67   151   150    2
    68    20    19    1
    69    20    21    2
    70   161   160    1
    71    19    18    1
    72   149   150    1
    73   149   152    1
    74   112   113    1
    75   155   153    1
    76   113   114    1
    77    94    92   am
    78   153   152    1
    79   153   154    1
    80    16    15    2
    81    54    53    1
    82    18    15   am
    83    93    92    2
    84    92    91    1
    85    15    14    1
    86   114   115    2
    87   114   116   am
    88    30    31    1
    89    53    52    1
    90    89    88    1
    91    91    90    1
    92    14    13    1
    93    14    17    1
    94    52    51    1
    95    31    32    1
    96    33    32    2
    97    13    11   am
    98    62    61    1
    99    88    87    1
   100    87    86    1
   101    51    50    1
   102    11    10    1
   103    11    12    2
   104    86    83    1
   105    61    60    1
   106    10     9    1
   107    40    38    1
   108     4     3    2
   109    60    59    1
   110    50    47    1
   111    71    69   ar
   112    85    84    2
   113     9     3   am
   114    38    39    1
   115    38    35    1
   116    83    84    1
   117    83    82    1
   118     3     2    1
   119    69    70   ar
   120    69    68    1
   121    59    56    1
   122    34    35    1
   123    82    74   am
   124    47    48    1
   125    47    46    1
   126    66    65    2
   127    35    36    1
   128    68    67    1
   129     5     2    1
   130     5     6    1
   131    48    49    2
   132     2     1    1
   133    67    64    1
   134    56    57    1
   135    56    55    1
   136    74    75    2
   137    74    73    1
   138    63    64    1
   139    63    57   am
   140    65    64    1
   141    65    72   am
   142    37    36    2
   143    45    42    1
   144     7     6    1
   145     6     8    1
   146    57    58    2
   147    73    72    1
   148    73    76    1
   149    44    43    2
   150    79    81   ar
   151    79    77   ar
   152    43    42    1
   153    42    41    1
   154    81    80   ar
   155    77    76    1
   156    77    78   ar
   157    80    78   ar
