@<TRIPOS>MOLECULE
tmp/3mboE01.pdb
 94 89 0 0 0
SMALL
GASTEIGER

@<TRIPOS>ATOM
      1  N       -168.4700  -19.1980   17.9140 N.3     9  TYR9       -0.1241
      2  CA      -168.6760  -18.1670   18.9160 C.3     9  TYR9        0.1605
      3  C       -168.7240  -16.7080   18.4370 C.2     9  TYR9        0.2264
      4  O       -168.3400  -16.4250   17.2950 O.2     9  TYR9       -0.2867
      5  CB      -167.5540  -18.3760   19.9380 C.3     9  TYR9        0.0534
      6  CG      -167.6970  -19.6000   20.8320 C.ar    9  TYR9       -0.0201
      7  CD1     -168.4440  -20.7120   20.4420 C.ar    9  TYR9       -0.0009
      8  CD2     -167.0470  -19.6530   22.0640 C.ar    9  TYR9       -0.0009
      9  CE1     -168.5540  -21.8250   21.2680 C.ar    9  TYR9        0.0417
     10  CE2     -167.1510  -20.7610   22.8890 C.ar    9  TYR9        0.0417
     11  CZ      -167.9020  -21.8400   22.4870 C.ar    9  TYR9        0.1957
     12  OH      -167.9990  -22.9240   23.3190 O.3     9  TYR9       -0.2866
     13  N       -165.4060  -12.3660   20.0050 N.3    12  VAL12      -0.1231
     14  CA      -164.1860  -12.5810   20.7940 C.3    12  VAL12       0.1692
     15  C       -163.7620  -14.0520   20.7540 C.2    12  VAL12       0.2593
     16  O       -164.6000  -14.9570   20.8470 O.2    12  VAL12      -0.2718
     17  CB      -164.3470  -12.1080   22.2750 C.3    12  VAL12       0.0266
     18  CG1     -163.0280  -12.2290   23.0420 C.3    12  VAL12       0.0020
     19  CG2     -164.8680  -10.6700   22.3430 C.3    12  VAL12       0.0020
     20  N       -162.4570  -14.2700   20.6080 N.am   13  GLY13      -0.1942
     21  CA      -161.8800  -15.6080   20.6140 C.3    13  GLY13       0.2014
     22  C       -161.3050  -16.0200   19.2730 C.2    13  GLY13       0.2639
     23  O       -161.8550  -15.6860   18.2200 O.2    13  GLY13      -0.2714
     24  N       -160.1880  -16.7450   19.3220 N.am   14  GLY14      -0.1939
     25  CA      -159.5620  -17.3090   18.1270 C.3    14  GLY14       0.2014
     26  C       -160.5350  -18.1800   17.3630 C.2    14  GLY14       0.2640
     27  O       -160.7170  -18.0040   16.1550 O.2    14  GLY14      -0.2714
     28  N       -161.1650  -19.1120   18.0780 N.am   15  SER15      -0.1935
     29  CA      -162.1990  -19.9750   17.5040 C.3    15  SER15       0.2055
     30  C       -163.3050  -19.1520   16.8430 C.2    15  SER15       0.2643
     31  O       -163.6290  -19.3660   15.6760 O.2    15  SER15      -0.2714
     32  CB      -162.7850  -20.8970   18.5780 C.3    15  SER15       0.2130
     33  OG      -163.5720  -20.1720   19.5090 O.3    15  SER15      -0.2179
     34  N       -163.8600  -18.2060   17.5980 N.am   16  GLY16      -0.1954
     35  CA      -164.9300  -17.3390   17.1210 C.3    16  GLY16       0.1869
     36  C       -164.6140  -16.5560   15.8590 C.2    16  GLY16       0.2309
     37  O       -165.2990  -16.7130   14.8470 O.2    16  GLY16      -0.2863
     38  N       -164.7370  -25.0820   16.9510 N.3    93  TYR93      -0.1241
     39  CA      -164.6930  -25.3560   18.3770 C.3    93  TYR93       0.1605
     40  C       -165.5420  -26.5590   18.7320 C.2    93  TYR93       0.2264
     41  O       -166.7370  -26.5460   18.5870 O.2    93  TYR93      -0.2867
     42  CB      -165.0510  -24.1660   19.2380 C.3    93  TYR93       0.0534
     43  CG      -164.4250  -24.3090   20.5930 C.ar   93  TYR93      -0.0201
     44  CD1     -163.1530  -23.8560   20.8300 C.ar   93  TYR93      -0.0009
     45  CD2     -165.0800  -24.9590   21.6100 C.ar   93  TYR93      -0.0009
     46  CE1     -162.5800  -24.0060   22.0340 C.ar   93  TYR93       0.0417
     47  CE2     -164.5030  -25.1100   22.8190 C.ar   93  TYR93       0.0417
     48  CZ      -163.2570  -24.6320   23.0190 C.ar   93  TYR93       0.1957
     49  OH      -162.6740  -24.7860   24.2260 O.3    93  TYR93      -0.2866
     50  N       -159.9330  -26.0540   17.4130 N.3   119  HIS119     -0.1241
     51  CA      -159.1250  -24.9200   17.7460 C.3   119  HIS119      0.1621
     52  C       -158.7180  -25.4210   19.0900 C.2   119  HIS119      0.2264
     53  O       -159.4020  -26.2660   19.6680 O.2   119  HIS119     -0.2867
     54  CB      -159.9600  -23.6640   17.8230 C.3   119  HIS119      0.0745
     55  CG      -160.3620  -23.1290   16.4870 C.ar  119  HIS119      0.0817
     56  ND1     -159.5580  -22.3010   15.7450 N.ar  119  HIS119     -0.2268
     57  CD2     -161.4880  -23.2980   15.7640 C.ar  119  HIS119      0.1154
     58  CE1     -160.1660  -21.9880   14.6190 C.ar  119  HIS119      0.1986
     59  NE2     -161.3370  -22.5860   14.6030 N.ar  119  HIS119     -0.2212
     60  N       -158.1900  -25.1280   22.5910 N.3   121  THR121     -0.1218
     61  CA      -158.6610  -25.4410   23.9250 C.3   121  THR121      0.1862
     62  C       -159.6110  -26.6200   23.9920 C.2   121  THR121      0.2287
     63  O       -159.7230  -27.2710   25.0060 O.2   121  THR121     -0.2866
     64  CB      -159.1840  -24.2260   24.6120 C.3   121  THR121      0.1770
     65  OG1     -159.4620  -23.2350   23.6290 O.3   121  THR121     -0.2211
     66  CG2     -158.1240  -23.6850   25.4760 C.3   121  THR121      0.0375
     67  N       -156.6360  -13.8670   26.5780 N.3   205  ASN205     -0.1240
     68  CA      -157.3880  -13.9990   27.8220 C.3   205  ASN205      0.1653
     69  C       -156.3400  -13.5440   28.9000 C.2   205  ASN205      0.2266
     70  O       -155.1710  -13.3010   28.5910 O.2   205  ASN205     -0.2867
     71  CB      -157.7170  -15.3840   28.2120 C.3   205  ASN205      0.1155
     72  CG      -158.1650  -16.2060   27.0240 C.2   205  ASN205      0.2627
     73  OD1     -159.0070  -15.7780   26.2340 O.2   205  ASN205     -0.2716
     74  ND2     -157.6110  -17.4060   26.8990 N.am  205  ASN205     -0.0877
     75  N       -155.5410  -15.8750   31.4750 N.3   207  ARG207     -0.1245
     76  CA      -155.7890  -17.2210   31.9700 C.3   207  ARG207      0.1563
     77  C       -154.3440  -17.5840   32.3080 C.2   207  ARG207      0.2260
     78  O       -153.4110  -17.0210   31.7290 O.2   207  ARG207     -0.2867
     79  CB      -156.4290  -18.2680   31.0580 C.3   207  ARG207      0.0307
     80  CG      -157.8980  -17.9910   30.7230 C.3   207  ARG207      0.0489
     81  CD      -158.7020  -19.2780   30.5600 C.3   207  ARG207      0.2205
     82  NE      -159.0960  -19.8670   31.8450 N.pl3 207  ARG207     -0.0865
     83  CZ      -158.4220  -20.8180   32.4950 C.cat 207  ARG207      0.5346
     84  NH1     -157.2910  -21.3200   32.0030 N.pl3 207  ARG207      0.1354
     85  NH2     -158.8840  -21.2740   33.6510 N.pl3 207  ARG207      0.1354
     86  N       -151.6850  -18.4580   29.4880 N.3   210  LYS210     -0.1245
     87  CA      -151.0120  -17.3320   28.8310 C.3   210  LYS210      0.1561
     88  C       -149.7520  -17.0880   29.6540 C.2   210  LYS210      0.2260
     89  O       -148.6680  -16.9030   29.0990 O.2   210  LYS210     -0.2867
     90  CB      -152.0020  -16.1970   28.5490 C.3   210  LYS210      0.0271
     91  CG      -153.3080  -16.6240   27.9020 C.3   210  LYS210      0.0035
     92  CD      -153.1120  -17.1380   26.4860 C.3   210  LYS210      0.0206
     93  CE      -154.3860  -17.7820   25.9630 C.3   210  LYS210      0.1093
     94  NZ      -154.2220  -18.3310   24.5880 N.3   210  LYS210     -0.1314
@<TRIPOS>BOND
     1    59    58   ar
     2    59    57   ar
     3    58    56   ar
     4    37    36    2
     5    31    30    2
     6    56    55   ar
     7    57    55   ar
     8    36    35    1
     9    27    26    2
    10    55    54    1
    11    30    29    1
    12    30    34   am
    13    38    39    1
    14    35    34    1
    15     4     3    2
    16    26    28   am
    17    26    25    1
    18    50    51    1
    19    29    28    1
    20    29    32    1
    21    51    54    1
    22    51    52    1
    23     1     2    1
    24    25    24    1
    25    23    22    2
    26    39    40    1
    27    39    42    1
    28     3     2    1
    29    32    33    1
    30    41    40    2
    31     2     5    1
    32    52    53    2
    33    42    43    1
    34    22    24   am
    35    22    21    1
    36     5     6    1
    37    13    14    1
    38     7     6   ar
    39     7     9   ar
    40    43    44   ar
    41    43    45   ar
    42    20    21    1
    43    20    15   am
    44    15    14    1
    45    15    16    2
    46    14    17    1
    47    44    46   ar
    48     6     8   ar
    49     9    11   ar
    50    45    47   ar
    51    46    48   ar
    52     8    10   ar
    53    17    19    1
    54    17    18    1
    55    11    10   ar
    56    11    12    1
    57    60    61    1
    58    47    48   ar
    59    48    49    1
    60    65    64    1
    61    61    62    1
    62    61    64    1
    63    62    63    2
    64    94    93    1
    65    64    66    1
    66    93    92    1
    67    73    72    2
    68    92    91    1
    69    67    68    1
    70    74    72   am
    71    72    71    1
    72    68    71    1
    73    68    69    1
    74    91    90    1
    75    90    87    1
    76    70    69    2
    77    87    86    1
    78    87    88    1
    79    89    88    2
    80    81    80    1
    81    81    82    1
    82    80    79    1
    83    79    76    1
    84    75    76    1
    85    78    77    2
    86    82    83    2
    87    76    77    1
    88    84    83    1
    89    83    85    1
