@<TRIPOS>MOLECULE
tmp/3mboE00.pdb
 176 168 0 0 0
SMALL
GASTEIGER

@<TRIPOS>ATOM
      1  N       -167.8940  -12.3330   18.6020 N.3    11  SER11      -0.1202
      2  CA      -166.7410  -11.5270   18.1260 C.3    11  SER11       0.2020
      3  C       -165.4020  -11.6670   18.8710 C.2    11  SER11       0.2619
      4  O       -164.3850  -11.1350   18.4150 O.2    11  SER11      -0.2717
      5  CB      -167.1240  -10.0420   18.0230 C.3    11  SER11       0.2103
      6  OG      -167.5870   -9.7140   16.7240 O.3    11  SER11      -0.2182
      7  N       -165.4060  -12.3660   20.0050 N.am   12  VAL12      -0.1965
      8  CA      -164.1860  -12.5810   20.7940 C.3    12  VAL12       0.1727
      9  C       -163.7620  -14.0520   20.7540 C.2    12  VAL12       0.2617
     10  O       -164.6000  -14.9570   20.8470 O.2    12  VAL12      -0.2715
     11  CB      -164.3470  -12.1080   22.2750 C.3    12  VAL12       0.0290
     12  CG1     -163.0280  -12.2290   23.0420 C.3    12  VAL12       0.0023
     13  CG2     -164.8680  -10.6700   22.3430 C.3    12  VAL12       0.0023
     14  N       -162.4570  -14.2700   20.6080 N.am   13  GLY13      -0.1940
     15  CA      -161.8800  -15.6080   20.6140 C.3    13  GLY13       0.2014
     16  C       -161.3050  -16.0200   19.2730 C.2    13  GLY13       0.2639
     17  O       -161.8550  -15.6860   18.2200 O.2    13  GLY13      -0.2714
     18  N       -160.1880  -16.7450   19.3220 N.am   14  GLY14      -0.1939
     19  CA      -159.5620  -17.3090   18.1270 C.3    14  GLY14       0.2014
     20  C       -160.5350  -18.1800   17.3630 C.2    14  GLY14       0.2639
     21  O       -160.7170  -18.0040   16.1550 O.2    14  GLY14      -0.2714
     22  N       -161.1650  -19.1120   18.0780 N.am   15  SER15      -0.1949
     23  CA      -162.1990  -19.9750   17.5040 C.3    15  SER15       0.1924
     24  C       -163.3050  -19.1520   16.8430 C.2    15  SER15       0.2314
     25  O       -163.6290  -19.3660   15.6760 O.2    15  SER15      -0.2863
     26  CB      -162.7850  -20.8970   18.5780 C.3    15  SER15       0.2116
     27  OG      -163.5720  -20.1720   19.5090 O.3    15  SER15      -0.2180
     28  N       -163.5740  -15.7230   15.9080 N.3    17  VAL17      -0.1245
     29  CA      -163.3010  -14.7670   14.8190 C.3    17  VAL17       0.1561
     30  C       -162.9480  -15.4260   13.4800 C.2    17  VAL17       0.2260
     31  O       -163.3220  -14.9170   12.4250 O.2    17  VAL17      -0.2867
     32  CB      -162.2330  -13.6820   15.1920 C.3    17  VAL17       0.0252
     33  CG1     -162.5230  -13.0670   16.5600 C.3    17  VAL17       0.0019
     34  CG2     -160.8250  -14.2390   15.1470 C.3    17  VAL17       0.0019
     35  N       -158.1900  -25.1280   22.5910 N.3   121  THR121     -0.1218
     36  CA      -158.6610  -25.4410   23.9250 C.3   121  THR121      0.1862
     37  C       -159.6110  -26.6200   23.9920 C.2   121  THR121      0.2287
     38  O       -159.7230  -27.2710   25.0060 O.2   121  THR121     -0.2866
     39  CB      -159.1840  -24.2260   24.6120 C.3   121  THR121      0.1770
     40  OG1     -159.4620  -23.2350   23.6290 O.3   121  THR121     -0.2211
     41  CG2     -158.1240  -23.6850   25.4760 C.3   121  THR121      0.0375
     42  N       -156.1540  -14.3680    8.8290 N.3   174  ILE174     -0.1245
     43  CA      -156.8590  -13.1750    9.2610 C.3   174  ILE174      0.1561
     44  C       -156.9650  -12.1570    8.1330 C.2   174  ILE174      0.2260
     45  O       -156.0240  -11.9910    7.3530 O.2   174  ILE174     -0.2867
     46  CB      -156.2450  -12.5730   10.5720 C.3   174  ILE174      0.0252
     47  CG1     -157.1100  -11.4180   11.1210 C.3   174  ILE174      0.0019
     48  CG2     -154.7620  -12.1980   10.3800 C.3   174  ILE174      0.0019
     49  CD1     -158.5810  -11.7720   11.4640 C.3   174  ILE174      0.0001
     50  N       -151.8400   -9.3330   23.8780 N.3   203  ILE203     -0.1231
     51  CA      -153.2720   -9.5840   23.9040 C.3   203  ILE203      0.1692
     52  C       -153.7650  -11.0330   23.8470 C.2   203  ILE203      0.2593
     53  O       -153.5020  -11.7540   22.8820 O.2   203  ILE203     -0.2718
     54  CB      -153.9870   -8.9030   22.7010 C.3   203  ILE203      0.0266
     55  CG1     -155.2460   -9.6700   22.2840 C.3   203  ILE203      0.0019
     56  CG2     -153.0560   -8.7570   21.5120 C.3   203  ILE203      0.0020
     57  CD1     -156.4370   -9.5040   23.2310 C.3   203  ILE203      0.0001
     58  N       -154.4640  -11.4410   24.9070 N.am  204  SER204     -0.1938
     59  CA      -155.1620  -12.7310   24.9890 C.3   204  SER204      0.2055
     60  C       -156.2540  -12.6980   26.0630 C.2   204  SER204      0.2643
     61  O       -156.7460  -11.6260   26.4130 O.2   204  SER204     -0.2714
     62  CB      -154.0860  -13.7460   25.3770 C.3   204  SER204      0.2130
     63  OG      -153.4710  -13.3710   26.5980 O.3   204  SER204     -0.2179
     64  N       -156.6360  -13.8670   26.5780 N.am  205  ASN205     -0.1971
     65  CA      -157.3880  -13.9990   27.8220 C.3   205  ASN205      0.1688
     66  C       -156.3400  -13.5440   28.9000 C.2   205  ASN205      0.2292
     67  O       -155.1710  -13.3010   28.5910 O.2   205  ASN205     -0.2864
     68  CB      -157.7170  -15.3840   28.2120 C.3   205  ASN205      0.1181
     69  CG      -158.1650  -16.2060   27.0240 C.2   205  ASN205      0.2629
     70  OD1     -159.0070  -15.7780   26.2340 O.2   205  ASN205     -0.2716
     71  ND2     -157.6110  -17.4060   26.8990 N.am  205  ASN205     -0.0877
     72  N       -151.6850  -18.4580   29.4880 N.3   210  LYS210     -0.1245
     73  CA      -151.0120  -17.3320   28.8310 C.3   210  LYS210      0.1561
     74  C       -149.7520  -17.0880   29.6540 C.2   210  LYS210      0.2260
     75  O       -148.6680  -16.9030   29.0990 O.2   210  LYS210     -0.2867
     76  CB      -152.0020  -16.1970   28.5490 C.3   210  LYS210      0.0271
     77  CG      -153.3080  -16.6240   27.9020 C.3   210  LYS210      0.0035
     78  CD      -153.1120  -17.1380   26.4860 C.3   210  LYS210      0.0206
     79  CE      -154.3860  -17.7820   25.9630 C.3   210  LYS210      0.1093
     80  NZ      -154.2220  -18.3310   24.5880 N.3   210  LYS210     -0.1314
     81  N       -154.1580   -6.4420   27.0110 N.3   233  VAL233     -0.1245
     82  CA      -155.4890   -6.4430   26.4190 C.3   233  VAL233      0.1561
     83  C       -156.1560   -7.7780   26.7390 C.2   233  VAL233      0.2260
     84  O       -155.6350   -8.8380   26.3840 O.2   233  VAL233     -0.2867
     85  CB      -155.4360   -6.2290   24.8790 C.3   233  VAL233      0.0252
     86  CG1     -156.8360   -6.0560   24.3100 C.3   233  VAL233      0.0019
     87  CG2     -154.5590   -5.0290   24.4990 C.3   233  VAL233      0.0019
     88  N       -160.8990   -4.9760   27.9510 N.3   260  LYS260     -0.1231
     89  CA      -161.2200   -5.8830   26.8520 C.3   260  LYS260      0.1693
     90  C       -161.5630   -4.8370   25.8000 C.2   260  LYS260      0.2592
     91  O       -162.7190   -4.4500   25.6620 O.2   260  LYS260     -0.2718
     92  CB      -162.4110   -6.7830   27.2080 C.3   260  LYS260      0.0285
     93  CG      -163.4240   -6.1720   28.1930 C.3   260  LYS260      0.0035
     94  CD      -164.8800   -6.6140   27.9310 C.3   260  LYS260      0.0206
     95  CE      -165.0390   -8.1240   27.7260 C.3   260  LYS260      0.1093
     96  NZ      -164.6190   -8.9340   28.9100 N.3   260  LYS260     -0.1314
     97  N       -160.5460   -4.3970   25.0590 N.am  261  GLN261     -0.1966
     98  CA      -160.6920   -3.3370   24.0180 C.3   261  GLN261      0.1733
     99  C       -161.2760   -3.9090   22.7570 C.2   261  GLN261      0.2616
    100  O       -160.7970   -4.9220   22.2590 O.2   261  GLN261     -0.2715
    101  CB      -159.3000   -2.7780   23.6720 C.3   261  GLN261      0.0408
    102  CG      -159.2890   -1.7450   22.5350 C.3   261  GLN261      0.0908
    103  CD      -159.7820   -0.3510   22.9390 C.2   261  GLN261      0.2608
    104  OE1     -159.6640    0.6020   22.1620 O.2   261  GLN261     -0.2717
    105  NE2     -160.3330   -0.2270   24.1450 N.am  261  GLN261     -0.0878
    106  N       -162.3100   -3.2520   22.2290 N.am  262  ASP262     -0.1957
    107  CA      -163.1530   -3.7970   21.1050 C.3   262  ASP262      0.1840
    108  C       -162.4900   -4.1240   19.7830 C.2   262  ASP262      0.2622
    109  O       -162.8410   -5.1260   19.1500 O.2   262  ASP262     -0.2715
    110  CB      -164.3410   -2.8440   20.9320 C.3   262  ASP262      0.1450
    111  CG      -165.6440   -3.5840   20.6100 C.2   262  ASP262      0.3671
    112  OD1     -165.6170   -4.8070   20.3460 O.co2 262  ASP262     -0.2456
    113  OD2     -166.7090   -2.9290   20.6270 O.co2 262  ASP262     -0.2456
    114  N       -161.5540   -3.2860   19.3420 N.am  263  ASN263     -0.1958
    115  CA      -160.8640   -3.5000   18.0700 C.3   263  ASN263      0.1819
    116  C       -159.3510   -3.3980   18.2590 C.2   263  ASN263      0.2621
    117  O       -158.8200   -2.3280   18.5810 O.2   263  ASN263     -0.2715
    118  CB      -161.3650   -2.5030   17.0130 C.3   263  ASN263      0.1195
    119  CG      -161.5390   -3.1340   15.6340 C.2   263  ASN263      0.2630
    120  OD1     -162.2300   -4.1440   15.4780 O.2   263  ASN263     -0.2716
    121  ND2     -160.9290   -2.5220   14.6230 N.am  263  ASN263     -0.0877
    122  N       -158.6690   -4.5240   18.0710 N.am  264  VAL264     -0.1977
    123  CA      -157.2320   -4.6110   18.3350 C.3   264  VAL264      0.1596
    124  C       -156.3700   -4.1480   17.1580 C.2   264  VAL264      0.2287
    125  O       -155.2610   -3.6590   17.3690 O.2   264  VAL264     -0.2864
    126  CB      -156.7990   -6.0240   18.8820 C.3   264  VAL264      0.0276
    127  CG1     -157.4520   -7.1520   18.1120 C.3   264  VAL264      0.0022
    128  CG2     -155.2810   -6.1930   18.8860 C.3   264  VAL264      0.0022
    129  N       -149.9860  -22.6000   24.2050 N.3   281  GLU281     -0.1245
    130  CA      -150.7500  -22.0690   23.1140 C.3   281  GLU281      0.1567
    131  C       -150.6480  -22.8910   21.8670 C.2   281  GLU281      0.2260
    132  O       -149.5980  -23.1310   21.3530 O.2   281  GLU281     -0.2867
    133  CB      -150.2750  -20.6740   22.8000 C.3   281  GLU281      0.0388
    134  CG      -150.8440  -20.1470   21.5450 C.3   281  GLU281      0.1148
    135  CD      -152.2130  -19.6010   21.7320 C.2   281  GLU281      0.3521
    136  OE1     -152.4390  -18.9490   22.7590 O.2   281  GLU281     -0.2469
    137  OE2     -153.0630  -19.8200   20.8540 O.3   281  GLU281     -0.2931
    138  N       -152.1200  -22.2750   18.7340 N.3   283  PHE283     -0.1716
    139  CA      -151.7960  -21.5240   17.5370 C.3   283  PHE283      0.1416
    140  C       -152.3310  -20.4170   18.4200 C.3   283  PHE283      0.2758
    141  O       -153.0460  -20.6340   19.3800 O.3   283  PHE283     -0.1393
    142  CB      -152.9600  -21.5000   16.5650 C.3   283  PHE283      0.0494
    143  CG      -152.6160  -20.9090   15.2300 C.ar  283  PHE283     -0.0206
    144  CD1     -153.1130  -19.7010   14.8440 C.ar  283  PHE283     -0.0042
    145  CD2     -151.7910  -21.5660   14.3640 C.ar  283  PHE283     -0.0042
    146  CE1     -152.7920  -19.1760   13.6400 C.ar  283  PHE283     -0.0003
    147  CE2     -151.4820  -21.0330   13.1640 C.ar  283  PHE283     -0.0003
    148  CZ      -151.9750  -19.8410   12.8100 C.ar  283  PHE283     -0.0000
    149  N       -151.9460  -19.2100   18.0630 N.3   284  GLY284     -0.1662
    150  CA      -152.2250  -18.0120   18.8510 C.3   284  GLY284      0.1790
    151  C       -152.3680  -17.1700   17.5990 C.2   284  GLY284      0.2596
    152  O       -151.3900  -16.9350   16.8760 O.2   284  GLY284     -0.2718
    153  N       -153.5930  -16.7170   17.3480 N.am  285  LEU285     -0.1966
    154  CA      -153.9230  -15.9330   16.1570 C.3   285  LEU285      0.1728
    155  C       -153.3720  -14.5150   16.2690 C.2   285  LEU285      0.2616
    156  O       -153.0800  -13.8700   15.2640 O.2   285  LEU285     -0.2715
    157  CB      -155.4380  -15.9070   15.9630 C.3   285  LEU285      0.0311
    158  CG      -156.0820  -15.2640   14.7370 C.3   285  LEU285      0.0022
    159  CD1     -155.3090  -15.5040   13.4510 C.3   285  LEU285      0.0001
    160  CD2     -157.4830  -15.8140   14.6210 C.3   285  LEU285      0.0001
    161  N       -153.2330  -14.0480   17.5050 N.am  286  VAL286     -0.1977
    162  CA      -152.6800  -12.7310   17.8110 C.3   286  VAL286      0.1596
    163  C       -151.3130  -12.4740   17.1490 C.2   286  VAL286      0.2287
    164  O       -151.0200  -11.3430   16.7570 O.2   286  VAL286     -0.2864
    165  CB      -152.6050  -12.5060   19.3440 C.3   286  VAL286      0.0276
    166  CG1     -153.9970  -12.3520   19.9190 C.3   286  VAL286      0.0022
    167  CG2     -151.8920  -13.6600   20.0360 C.3   286  VAL286      0.0022
    168  N       -151.7490  -11.7740   13.6180 N.3   289  GLU289     -0.1245
    169  CA      -152.1850  -10.3900   13.5120 C.3   289  GLU289      0.1567
    170  C       -151.0610   -9.3510   13.5730 C.2   289  GLU289      0.2260
    171  O       -150.9190   -8.5360   12.6620 O.2   289  GLU289     -0.2867
    172  CB      -153.1670  -10.0500   14.6290 C.3   289  GLU289      0.0388
    173  CG      -154.5900  -10.5270   14.3910 C.3   289  GLU289      0.1160
    174  CD      -155.5110  -10.2050   15.5600 C.2   289  GLU289      0.3649
    175  OE1     -155.2030  -10.6270   16.7010 O.co2 289  GLU289     -0.2457
    176  OE2     -156.5450   -9.5360   15.3350 O.co2 289  GLU289     -0.2457
@<TRIPOS>BOND
     1    45    44    2
     2    44    43    1
     3    42    43    1
     4    43    46    1
     5    48    46    1
     6    46    47    1
     7    47    49    1
     8    31    30    2
     9   171   170    2
    10   148   147   ar
    11   148   146   ar
    12   147   145   ar
    13   159   158    1
    14    30    29    1
    15   169   170    1
    16   169   168    1
    17   169   172    1
    18   146   144   ar
    19   145   143   ar
    20   173   172    1
    21   173   174    1
    22   160   158    1
    23   121   119   am
    24   158   157    1
    25    29    32    1
    26    29    28    1
    27   144   143   ar
    28    34    32    1
    29    32    33    1
    30   143   142    1
    31   156   155    2
    32   176   174   ar
    33   120   119    2
    34   174   175   ar
    35   119   118    1
    36    25    24    2
    37   157   154    1
    38    21    20    2
    39   154   155    1
    40   154   153    1
    41   155   161   am
    42   142   139    1
    43     6     5    1
    44   164   163    2
    45    24    23    1
    46   152   151    2
    47   118   115    1
    48   163   162    1
    49   124   125    2
    50   124   123    1
    51   153   151   am
    52    20    22   am
    53    20    19    1
    54    23    22    1
    55    23    26    1
    56   161   162    1
    57   139   140    1
    58   139   138    1
    59   151   150    1
    60   162   165    1
    61     5     2    1
    62   149   140    1
    63   149   150    1
    64   115   116    1
    65   115   114    1
    66   122   116   am
    67   122   123    1
    68   127   126    1
    69     2     1    1
    70     2     3    1
    71    19    18    1
    72    17    16    2
    73   116   117    2
    74   123   126    1
    75     4     3    2
    76   140   138    1
    77   140   141    1
    78    26    27    1
    79     3     7   am
    80   126   128    1
    81   109   108    2
    82    16    18   am
    83    16    15    1
    84   114   108   am
    85   165   166    1
    86   165   167    1
    87   141   137    1
    88   108   107    1
    89     7     8    1
    90   112   111   ar
    91    14    15    1
    92    14     9   am
    93   111   113   ar
    94   111   110    1
    95     9     8    1
    96     9    10    2
    97     8    11    1
    98   137   135    1
    99   110   107    1
   100   107   106    1
   101   132   131    2
   102    56    54    1
   103   134   135    1
   104   134   133    1
   105   135   136    2
   106   131   130    1
   107   104   103    2
   108   106    99   am
   109   100    99    2
   110    11    13    1
   111    11    12    1
   112    55    54    1
   113    55    57    1
   114   102   103    1
   115   102   101    1
   116    35    36    1
   117    54    51    1
   118    99    98    1
   119   133   130    1
   120    53    52    2
   121   103   105   am
   122   130   129    1
   123    40    39    1
   124   101    98    1
   125    52    51    1
   126    52    58   am
   127    50    51    1
   128    36    37    1
   129    36    39    1
   130    37    38    2
   131    98    97    1
   132    86    85    1
   133    87    85    1
   134    80    79    1
   135    39    41    1
   136    85    82    1
   137    58    59    1
   138    59    62    1
   139    59    60    1
   140    97    90   am
   141    62    63    1
   142    91    90    2
   143    90    89    1
   144    79    78    1
   145    60    61    2
   146    60    64   am
   147    70    69    2
   148    84    83    2
   149    82    83    1
   150    82    81    1
   151    78    77    1
   152    64    65    1
   153    89    92    1
   154    89    88    1
   155    71    69   am
   156    69    68    1
   157    92    93    1
   158    95    94    1
   159    95    96    1
   160    65    68    1
   161    65    66    1
   162    77    76    1
   163    94    93    1
   164    76    73    1
   165    67    66    2
   166    73    72    1
   167    73    74    1
   168    75    74    2
