@<TRIPOS>MOLECULE
tmp/3mbvA01.pdb
 121 114 0 0 0
SMALL
GASTEIGER

@<TRIPOS>ATOM
      1  N         19.4950   22.6810   55.8560 N.3    17  GLY17      -0.1225
      2  CA        20.5470   23.6540   55.5510 C.3    17  GLY17       0.1811
      3  C         21.4480   23.2000   54.4100 C.2    17  GLY17       0.2280
      4  O         21.5430   23.8690   53.4140 O.2    17  GLY17      -0.2866
      5  N         19.5020   23.0090   51.0910 N.3    20  THR20      -0.1203
      6  CA        19.3030   24.3650   50.5430 C.3    20  THR20       0.1994
      7  C         20.5430   24.8620   49.8180 C.2    20  THR20       0.2617
      8  O         20.4650   25.3310   48.6700 O.2    20  THR20      -0.2717
      9  CB        18.9810   25.4120   51.6470 C.3    20  THR20       0.1784
     10  OG1       17.7730   25.0410   52.3130 O.3    20  THR20      -0.2211
     11  CG2       18.8490   26.8490   51.0200 C.3    20  THR20       0.0376
     12  N         21.6910   24.7260   50.4820 N.am   21  LEU21      -0.1979
     13  CA        22.9730   25.1270   49.8500 C.3    21  LEU21       0.1596
     14  C         23.2540   24.3140   48.6140 C.2    21  LEU21       0.2287
     15  O         23.7540   24.8670   47.6460 O.2    21  LEU21      -0.2864
     16  CB        24.1700   25.0690   50.8090 C.3    21  LEU21       0.0297
     17  CG        24.0270   25.9470   52.0690 C.3    21  LEU21       0.0022
     18  CD1       25.0390   25.5990   53.0760 C.3    21  LEU21       0.0001
     19  CD2       24.0680   27.4820   51.7740 C.3    21  LEU21       0.0001
     20  N         21.0430   22.8130   46.4950 N.3    23  PHE23      -0.1227
     21  CA        20.1420   23.2980   45.4550 C.3    23  PHE23       0.1736
     22  C         20.5260   24.6640   44.9150 C.2    23  PHE23       0.2595
     23  O         20.4880   24.8790   43.6880 O.2    23  PHE23      -0.2718
     24  CB        18.6670   23.2810   45.9260 C.3    23  PHE23       0.0547
     25  CG        18.1240   21.8920   46.2460 C.ar   23  PHE23      -0.0202
     26  CD1       18.5970   20.7500   45.6020 C.ar   23  PHE23      -0.0042
     27  CD2       17.1120   21.7340   47.1900 C.ar   23  PHE23      -0.0042
     28  CE1       18.0970   19.4740   45.9220 C.ar   23  PHE23      -0.0003
     29  CE2       16.6080   20.4750   47.4950 C.ar   23  PHE23      -0.0003
     30  CZ        17.1080   19.3450   46.8530 C.ar   23  PHE23      -0.0000
     31  N         20.9620   25.5430   45.8160 N.am   24  LEU24      -0.1980
     32  CA        21.3420   26.9060   45.4930 C.3    24  LEU24       0.1596
     33  C         22.5270   26.8940   44.5460 C.2    24  LEU24       0.2287
     34  O         22.4660   27.4860   43.4800 O.2    24  LEU24      -0.2864
     35  CB        21.6720   27.6740   46.7780 C.3    24  LEU24       0.0297
     36  CG        21.7760   29.1820   46.7070 C.3    24  LEU24       0.0022
     37  CD1       20.3790   29.7480   46.3800 C.3    24  LEU24       0.0001
     38  CD2       22.3310   29.7210   48.0940 C.3    24  LEU24       0.0001
     39  N         21.4990   25.3480   41.0370 N.3    27  GLY27      -0.1210
     40  CA        20.7080   26.2230   40.1760 C.3    27  GLY27       0.1956
     41  C         21.4090   27.5000   39.7410 C.2    27  GLY27       0.2611
     42  O         20.7790   28.3510   39.1120 O.2    27  GLY27      -0.2717
     43  N         22.6890   27.6550   40.1020 N.am   28  MET28      -0.1979
     44  CA        23.5150   28.7180   39.5270 C.3    28  MET28       0.1605
     45  C         23.8190   28.3490   38.0990 C.2    28  MET28       0.2287
     46  O         24.1560   27.1810   37.7940 O.2    28  MET28      -0.2864
     47  CB        24.8600   28.8380   40.2260 C.3    28  MET28       0.0413
     48  CG        24.7930   29.1350   41.6880 C.3    28  MET28       0.0598
     49  SD        26.4940   29.2310   42.1930 S.3    28  MET28      -0.1393
     50  CE        26.8880   30.9040   41.6710 C.3    28  MET28       0.0692
     51  N         21.5680   28.6750   35.6830 N.3    30  VAL30      -0.1245
     52  CA        20.3510   28.2540   34.9730 C.3    30  VAL30       0.1561
     53  C         19.7440   29.4760   34.2910 C.2    30  VAL30       0.2260
     54  O         19.4510   30.4940   34.9430 O.2    30  VAL30      -0.2867
     55  CB        19.2770   27.5460   35.8830 C.3    30  VAL30       0.0252
     56  CG1       18.0810   27.0780   35.0280 C.3    30  VAL30       0.0019
     57  CG2       19.8700   26.3460   36.6420 C.3    30  VAL30       0.0019
     58  N         14.4450   27.8850   36.0790 N.3    36  LYS36      -0.1245
     59  CA        14.5330   28.8320   37.2090 C.3    36  LYS36       0.1561
     60  C         13.3360   28.6940   38.1510 C.2    36  LYS36       0.2260
     61  O         13.4760   28.8120   39.3850 O.2    36  LYS36      -0.2867
     62  CB        14.5770   30.2740   36.7130 C.3    36  LYS36       0.0271
     63  CG        15.8370   30.6920   35.9570 C.3    36  LYS36       0.0035
     64  CD        15.6440   32.1100   35.4440 C.3    36  LYS36       0.0206
     65  CE        16.9490   32.7960   35.1330 C.3    36  LYS36       0.1093
     66  NZ        16.6700   34.0390   34.3630 N.3    36  LYS36      -0.1314
     67  N         13.6970   25.5260   40.3220 N.3    39  TYR39      -0.1227
     68  CA        14.7720   25.7080   41.3240 C.3    39  TYR39       0.1736
     69  C         14.4050   26.6900   42.4270 C.2    39  TYR39       0.2595
     70  O         14.7560   26.4760   43.6060 O.2    39  TYR39      -0.2718
     71  CB        16.0900   26.1760   40.6910 C.3    39  TYR39       0.0548
     72  CG        16.9380   25.0470   40.1520 C.ar   39  TYR39      -0.0200
     73  CD1       16.8800   24.6610   38.7950 C.ar   39  TYR39      -0.0009
     74  CD2       17.8100   24.3620   40.9980 C.ar   39  TYR39      -0.0009
     75  CE1       17.6850   23.6000   38.3130 C.ar   39  TYR39       0.0417
     76  CE2       18.5980   23.3180   40.5400 C.ar   39  TYR39       0.0417
     77  CZ        18.5480   22.9410   39.2040 C.ar   39  TYR39       0.1957
     78  OH        19.3480   21.8670   38.8040 O.3    39  TYR39      -0.2866
     79  N         13.7330   27.7710   42.0530 N.am   40  ALA40      -0.1980
     80  CA        13.3630   28.8050   43.0070 C.3    40  ALA40       0.1597
     81  C         12.4270   28.2010   44.0410 C.2    40  ALA40       0.2287
     82  O         12.6520   28.3330   45.2590 O.2    40  ALA40      -0.2864
     83  CB        12.7150   29.9800   42.3040 C.3    40  ALA40       0.0319
     84  N         14.2270   25.0910   46.1450 N.3    43  THR43      -0.1203
     85  CA        15.2810   25.5940   47.0600 C.3    43  THR43       0.1994
     86  C         14.6780   26.4020   48.2470 C.2    43  THR43       0.2617
     87  O         15.1500   26.3510   49.4260 O.2    43  THR43      -0.2717
     88  CB        16.2340   26.4990   46.2520 C.3    43  THR43       0.1784
     89  OG1       16.8750   25.7400   45.1960 O.3    43  THR43      -0.2211
     90  CG2       17.2920   27.1210   47.1320 C.3    43  THR43       0.0376
     91  N         13.6290   27.1640   47.9420 N.am   44  LEU44      -0.1979
     92  CA        12.9210   27.9210   48.9800 C.3    44  LEU44       0.1596
     93  C         12.3470   26.9430   50.0480 C.2    44  LEU44       0.2287
     94  O         12.3870   27.2160   51.2570 O.2    44  LEU44      -0.2864
     95  CB        11.8400   28.8040   48.3430 C.3    44  LEU44       0.0297
     96  CG        11.2180   29.8700   49.2340 C.3    44  LEU44       0.0022
     97  CD1       12.2370   30.9680   49.6420 C.3    44  LEU44       0.0001
     98  CD2        9.9560   30.4780   48.5930 C.3    44  LEU44       0.0001
     99  N         14.8700   25.9300   52.5190 N.3    47  ALA47      -0.1245
    100  CA        15.3400   27.1730   53.1570 C.3    47  ALA47       0.1562
    101  C         14.4390   27.5220   54.3670 C.2    47  ALA47       0.2260
    102  O         14.9210   27.7330   55.4640 O.2    47  ALA47      -0.2867
    103  CB        15.3540   28.3000   52.1640 C.3    47  ALA47       0.0290
    104  N         14.6560   24.8400   57.1040 N.3    50  PHE50      -0.1227
    105  CA        15.8880   25.0970   57.9010 C.3    50  PHE50       0.1736
    106  C         15.6320   26.0820   59.0380 C.2    50  PHE50       0.2596
    107  O         16.0310   25.8650   60.2110 O.2    50  PHE50      -0.2718
    108  CB        17.0360   25.5850   56.9630 C.3    50  PHE50       0.0547
    109  CG        18.1710   26.3030   57.6800 C.ar   50  PHE50      -0.0202
    110  CD1       19.1490   25.5910   58.3410 C.ar   50  PHE50      -0.0042
    111  CD2       18.2390   27.6940   57.6870 C.ar   50  PHE50      -0.0042
    112  CE1       20.1850   26.2490   59.0490 C.ar   50  PHE50      -0.0003
    113  CE2       19.2660   28.3700   58.3850 C.ar   50  PHE50      -0.0003
    114  CZ        20.2260   27.6370   59.0780 C.ar   50  PHE50      -0.0000
    115  N         14.9240   27.1580   58.7090 N.am   51  THR51      -0.1953
    116  CA        14.6940   28.2030   59.6740 C.3    51  THR51       0.1897
    117  C         13.7930   27.7010   60.7930 C.2    51  THR51       0.2313
    118  O         14.0030   28.0200   61.9590 O.2    51  THR51      -0.2863
    119  CB        14.1190   29.4950   59.0260 C.3    51  THR51       0.1794
    120  OG1       12.7490   29.2780   58.6650 O.3    51  THR51      -0.2208
    121  CG2       14.9230   29.9050   57.8160 C.3    51  THR51       0.0378
@<TRIPOS>BOND
     1    53    54    2
     2    53    52    1
     3    66    65    1
     4    52    51    1
     5    52    55    1
     6    56    55    1
     7    65    64    1
     8    64    63    1
     9    55    57    1
    10    63    62    1
    11    58    59    1
    12    62    59    1
    13    59    60    1
    14    46    45    2
    15    45    44    1
    16    60    61    2
    17    75    73   ar
    18    75    77   ar
    19    73    72   ar
    20    78    77    1
    21    42    41    2
    22    77    76   ar
    23    44    43    1
    24    44    47    1
    25    41    43   am
    26    41    40    1
    27    72    71    1
    28    72    74   ar
    29    40    39    1
    30    47    48    1
    31    67    68    1
    32    76    74   ar
    33    71    68    1
    34    68    69    1
    35    50    49    1
    36    48    49    1
    37    79    69   am
    38    79    80    1
    39    83    80    1
    40    69    70    2
    41    80    81    1
    42    34    33    2
    43    23    22    2
    44    81    82    2
    45    33    32    1
    46    22    21    1
    47    22    31   am
    48    89    88    1
    49    21    24    1
    50    21    20    1
    51    32    31    1
    52    32    35    1
    53    26    28   ar
    54    26    25   ar
    55    28    30   ar
    56    24    25    1
    57    84    85    1
    58    25    27   ar
    59    88    85    1
    60    88    90    1
    61    37    36    1
    62    36    35    1
    63    36    38    1
    64    30    29   ar
    65    85    86    1
    66    27    29   ar
    67    15    14    2
    68    91    86   am
    69    91    92    1
    70    86    87    2
    71    95    92    1
    72    95    96    1
    73    98    96    1
    74    14    13    1
    75     8     7    2
    76    92    93    1
    77    96    97    1
    78     7    12   am
    79     7     6    1
    80    13    12    1
    81    13    16    1
    82    93    94    2
    83     6     5    1
    84     6     9    1
    85    16    17    1
    86    11     9    1
    87     9    10    1
    88    19    17    1
    89    17    18    1
    90   103   100    1
    91    99   100    1
    92   100   101    1
    93     4     3    2
    94   101   102    2
    95     3     2    1
    96     2     1    1
    97   108   109    1
    98   108   105    1
    99   104   105    1
   100   109   111   ar
   101   109   110   ar
   102   111   113   ar
   103   121   119    1
   104   105   106    1
   105   110   112   ar
   106   113   114   ar
   107   120   119    1
   108   115   106   am
   109   115   116    1
   110   119   116    1
   111   106   107    2
   112   112   114   ar
   113   116   117    1
   114   117   118    2
