@<TRIPOS>MOLECULE
tmp/3mbwB00.pdb
 92 92 0 0 0
SMALL
GASTEIGER

@<TRIPOS>ATOM
      1  N        -33.5010   22.7850    3.8990 N.3     6  PHE6       -0.1241
      2  CA       -34.1240   21.6530    3.2060 C.3     6  PHE6        0.1605
      3  C        -33.6820   21.7140    1.7610 C.2     6  PHE6        0.2264
      4  O        -34.2170   22.5080    0.9830 O.2     6  PHE6       -0.2867
      5  CB       -35.6600   21.6840    3.2970 C.3     6  PHE6        0.0534
      6  CG       -36.2510   21.6400    4.6860 C.ar    6  PHE6       -0.0203
      7  CD1      -36.4400   22.8120    5.4170 C.ar    6  PHE6       -0.0042
      8  CD2      -36.6650   20.4350    5.2460 C.ar    6  PHE6       -0.0042
      9  CE1      -36.9990   22.7740    6.6940 C.ar    6  PHE6       -0.0003
     10  CE2      -37.2280   20.4000    6.5290 C.ar    6  PHE6       -0.0003
     11  CZ       -37.3890   21.5680    7.2430 C.ar    6  PHE6       -0.0000
     12  N        -33.8280   20.7830   -1.6040 N.3     8  ASN8       -0.1240
     13  CA       -34.7200   20.2350   -2.6100 C.3     8  ASN8        0.1653
     14  C        -35.2180   21.3190   -3.5540 C.2     8  ASN8        0.2266
     15  O        -35.2980   22.4890   -3.1580 O.2     8  ASN8       -0.2867
     16  CB       -35.8690   19.4080   -1.9860 C.3     8  ASN8        0.1155
     17  CG       -36.9720   20.1380   -1.2490 C.2     8  ASN8        0.2627
     18  OD1      -37.4340   21.2210   -1.6290 O.2     8  ASN8       -0.2716
     19  ND2      -37.4700   19.4980   -0.2040 N.am    8  ASN8       -0.0877
     20  N        -38.1330   21.9120   -4.5800 N.3    10  SER10      -0.1202
     21  CA       -39.3920   22.4680   -4.0940 C.3    10  SER10       0.2020
     22  C        -39.1800   23.6060   -3.0980 C.2    10  SER10       0.2619
     23  O        -40.1370   24.2930   -2.7510 O.2    10  SER10      -0.2717
     24  CB       -40.2720   21.3710   -3.5080 C.3    10  SER10       0.2103
     25  OG       -40.7920   20.5750   -4.5580 O.3    10  SER10      -0.2182
     26  N        -37.9350   23.8200   -2.6440 N.am   11  ASN11      -0.1960
     27  CA       -37.6240   24.9280   -1.7510 C.3    11  ASN11       0.1804
     28  C        -37.5270   26.2020   -2.6180 C.2    11  ASN11       0.2463
     29  O        -36.7150   26.2610   -3.5530 O.2    11  ASN11      -0.2730
     30  CB       -36.3340   24.6730   -0.9540 C.3    11  ASN11       0.1195
     31  CG       -36.2010   25.4610    0.3300 C.2    11  ASN11       0.2630
     32  OD1      -37.0580   26.2700    0.7100 O.2    11  ASN11      -0.2716
     33  ND2      -35.1290   25.2050    1.0590 N.am   11  ASN11      -0.0877
     34  N        -38.3960   27.2050   -2.3600 N.am   12  PRO12      -0.2727
     35  CA       -38.3710   28.4280   -3.1900 C.3    12  PRO12       0.1402
     36  C        -37.1260   29.3100   -3.0000 C.2    12  PRO12       0.2269
     37  O        -36.8380   30.1570   -3.8540 O.2    12  PRO12      -0.2865
     38  CB       -39.6570   29.1460   -2.7800 C.3    12  PRO12       0.0296
     39  CG       -39.8770   28.7030   -1.3540 C.3    12  PRO12       0.0237
     40  CD       -39.4330   27.2810   -1.3070 C.3    12  PRO12       0.0939
     41  N        -30.9510   19.3110    5.2360 N.3    32  ILE32      -0.1231
     42  CA       -31.8970   18.2000    5.2100 C.3    32  ILE32       0.1692
     43  C        -32.1310   17.7020    3.8080 C.2    32  ILE32       0.2592
     44  O        -32.6360   18.4350    2.9570 O.2    32  ILE32      -0.2718
     45  CB       -33.1640   18.4990    6.0440 C.3    32  ILE32       0.0266
     46  CG1      -32.8150   18.4370    7.5410 C.3    32  ILE32       0.0019
     47  CG2      -34.2520   17.5040    5.7710 C.3    32  ILE32       0.0020
     48  CD1      -32.6940   19.7050    8.1900 C.3    32  ILE32       0.0001
     49  N        -31.7140   16.4660    3.5540 N.am   33  CYS33      -0.1957
     50  CA       -31.8690   15.8640    2.2380 C.3    33  CYS33       0.1828
     51  C        -33.3390   15.6870    1.8810 C.2    33  CYS33       0.2467
     52  O        -34.1560   15.6210    2.7970 O.2    33  CYS33      -0.2730
     53  CB       -31.1400   14.5260    2.1870 C.3    33  CYS33       0.0996
     54  SG       -29.3510   14.6510    2.3330 S.3    33  CYS33      -0.0797
     55  N        -33.7150   15.5010    0.5940 N.am   34  PRO34      -0.2715
     56  CA       -35.1230   15.1830    0.3030 C.3    34  PRO34       0.1536
     57  C        -35.5210   13.8590    0.9930 C.2    34  PRO34       0.2599
     58  O        -34.6890   12.9520    1.1460 O.2    34  PRO34      -0.2715
     59  CB       -35.1620   15.0730   -1.2380 C.3    34  PRO34       0.0310
     60  CG       -33.9360   15.7700   -1.7130 C.3    34  PRO34       0.0237
     61  CD       -32.9120   15.5190   -0.6460 C.3    34  PRO34       0.0939
     62  N        -36.7680   13.7880    1.4820 N.am   35  HIS35      -0.1960
     63  CA       -37.2860   12.6050    2.1460 C.3    35  HIS35       0.1787
     64  C        -38.7240   12.3310    1.7560 C.2    35  HIS35       0.2620
     65  O        -39.5290   13.2550    1.6680 O.2    35  HIS35      -0.2715
     66  CB       -37.1220   12.6840    3.6610 C.3    35  HIS35       0.0785
     67  CG       -37.3030   11.3610    4.3260 C.ar   35  HIS35       0.0821
     68  ND1      -38.4870   11.0290    4.9510 N.ar   35  HIS35      -0.2267
     69  CD2      -36.4650   10.3000    4.3810 C.ar   35  HIS35       0.1154
     70  CE1      -38.3230    9.7920    5.3880 C.ar   35  HIS35       0.1986
     71  NE2      -37.1240    9.3130    5.0660 N.ar   35  HIS35      -0.2212
     72  N        -39.0420   11.0470    1.5250 N.am   36  TYR36      -0.1974
     73  CA       -40.3450   10.5970    1.0490 C.3    36  TYR36       0.1639
     74  C        -40.9430    9.4300    1.8630 C.2    36  TYR36       0.2290
     75  O        -40.2220    8.7730    2.6280 O.2    36  TYR36      -0.2864
     76  CB       -40.2170   10.1900   -0.4350 C.3    36  TYR36       0.0560
     77  CG       -39.5650   11.2340   -1.3150 C.ar   36  TYR36      -0.0198
     78  CD1      -40.3310   12.1220   -2.0590 C.ar   36  TYR36      -0.0009
     79  CD2      -38.1810   11.3560   -1.3790 C.ar   36  TYR36      -0.0009
     80  CE1      -39.7380   13.1090   -2.8420 C.ar   36  TYR36       0.0417
     81  CE2      -37.5760   12.3460   -2.1470 C.ar   36  TYR36       0.0417
     82  CZ       -38.3580   13.2070   -2.8960 C.ar   36  TYR36       0.1957
     83  OH       -37.7590   14.1690   -3.6770 O.3    36  TYR36      -0.2866
     84  N        -35.7720   12.8490   -5.4500 N.3    44  GLU44      -0.1245
     85  CA       -34.5680   13.6650   -5.6100 C.3    44  GLU44       0.1567
     86  C        -33.4730   13.1540   -4.7040 C.2    44  GLU44       0.2260
     87  O        -33.7030   12.8610   -3.5260 O.2    44  GLU44      -0.2867
     88  CB       -34.8220   15.1290   -5.2710 C.3    44  GLU44       0.0388
     89  CG       -35.6770   15.9020   -6.2420 C.3    44  GLU44       0.1160
     90  CD       -36.1720   17.2080   -5.6510 C.2    44  GLU44       0.3649
     91  OE1      -35.3990   17.8580   -4.9100 O.co2  44  GLU44      -0.2457
     92  OE2      -37.3400   17.5730   -5.9160 O.co2  44  GLU44      -0.2457
@<TRIPOS>BOND
     1    89    90    1
     2    89    88    1
     3    92    90   ar
     4    90    91   ar
     5    85    84    1
     6    85    88    1
     7    85    86    1
     8    86    87    2
     9    20    21    1
    10    25    24    1
    11    21    24    1
    12    21    22    1
    13    37    36    2
    14    83    82    1
    15    14    15    2
    16    14    13    1
    17    29    28    2
    18    35    36    1
    19    35    38    1
    20    35    34    1
    21    22    23    2
    22    22    26   am
    23    82    80   ar
    24    82    81   ar
    25    80    78   ar
    26    38    39    1
    27    26    27    1
    28    28    34   am
    29    28    27    1
    30    13    16    1
    31    13    12    1
    32    34    40    1
    33    81    79   ar
    34    78    77   ar
    35    16    17    1
    36    27    30    1
    37    60    59    1
    38    60    61    1
    39    18    17    2
    40    79    77   ar
    41    39    40    1
    42    77    76    1
    43    17    19   am
    44    59    56    1
    45    30    31    1
    46    61    55    1
    47    76    73    1
    48    56    55    1
    49    56    57    1
    50    31    32    2
    51    31    33   am
    52    55    51   am
    53     4     3    2
    54    57    58    2
    55    57    62   am
    56    73    72    1
    57    73    74    1
    58    62    63    1
    59    72    64   am
    60    65    64    2
    61    64    63    1
    62     3     2    1
    63    74    75    2
    64    51    50    1
    65    51    52    2
    66    63    66    1
    67    53    50    1
    68    53    54    1
    69    50    49    1
    70    44    43    2
    71     2     5    1
    72     2     1    1
    73     5     6    1
    74    49    43   am
    75    66    67    1
    76    43    42    1
    77    67    69   ar
    78    67    68   ar
    79    69    71   ar
    80     6     8   ar
    81     6     7   ar
    82    68    70   ar
    83    71    70   ar
    84    42    41    1
    85    42    45    1
    86     8    10   ar
    87     7     9   ar
    88    47    45    1
    89    45    46    1
    90    10    11   ar
    91     9    11   ar
    92    46    48    1
