@<TRIPOS>MOLECULE
tmp/3mcfA00.pdb
 98 91 0 0 0
SMALL
GASTEIGER

@<TRIPOS>ATOM
      1  N         -5.8770   76.5510   24.5620 N.3     4  ARG4       -0.1245
      2  CA        -4.5920   77.0580   24.1110 C.3     4  ARG4        0.1563
      3  C         -4.1090   76.2680   22.9010 C.2     4  ARG4        0.2260
      4  O         -4.4920   75.1170   22.7110 O.2     4  ARG4       -0.2867
      5  CB        -3.5550   76.9360   25.2300 C.3     4  ARG4        0.0307
      6  CG        -3.8310   77.8140   26.4370 C.3     4  ARG4        0.0489
      7  CD        -2.7180   77.6860   27.4610 C.3     4  ARG4        0.2205
      8  NE        -1.4100   77.9890   26.8860 N.pl3   4  ARG4       -0.0865
      9  CZ        -0.8390   79.1880   26.9200 C.cat   4  ARG4        0.5346
     10  NH1       -1.4590   80.2050   27.5060 N.pl3   4  ARG4        0.1354
     11  NH2        0.3530   79.3710   26.3700 N.pl3   4  ARG4        0.1354
     12  N         10.7680   82.2290   27.5320 N.3    23  SER23      -0.1202
     13  CA         9.5840   82.5320   28.3150 C.3    23  SER23       0.2020
     14  C          9.5160   84.0290   28.5790 C.2    23  SER23       0.2619
     15  O         10.5460   84.6840   28.7750 O.2    23  SER23      -0.2717
     16  CB         9.6360   81.7690   29.6380 C.3    23  SER23       0.2103
     17  OG         8.7820   82.3580   30.6080 O.3    23  SER23      -0.2182
     18  N          8.3050   84.5760   28.5900 N.am   24  SER24      -0.1937
     19  CA         8.1410   86.0090   28.8260 C.3    24  SER24       0.2055
     20  C          8.2990   86.3100   30.3100 C.2    24  SER24       0.2643
     21  O          8.7520   87.3990   30.6810 O.2    24  SER24      -0.2714
     22  CB         6.7770   86.5040   28.3370 C.3    24  SER24       0.2130
     23  OG         5.7290   85.9440   29.1100 O.3    24  SER24      -0.2179
     24  N          7.9220   85.3420   31.1470 N.am   25  ARG25      -0.1963
     25  CA         8.0440   85.4760   32.6000 C.3    25  ARG25       0.1729
     26  C          9.4280   85.1070   33.1080 C.2    25  ARG25       0.2616
     27  O          9.9190   85.7020   34.0700 O.2    25  ARG25      -0.2715
     28  CB         7.0010   84.6260   33.3300 C.3    25  ARG25       0.0348
     29  CG         5.5980   85.2110   33.3150 C.3    25  ARG25       0.0492
     30  CD         4.6290   84.3360   34.0960 C.3    25  ARG25       0.2205
     31  NE         5.0350   84.1810   35.4910 N.pl3  25  ARG25      -0.0865
     32  CZ         4.4230   83.3840   36.3620 C.cat  25  ARG25       0.5346
     33  NH1        3.3750   82.6660   35.9810 N.pl3  25  ARG25       0.1354
     34  NH2        4.8580   83.3030   37.6130 N.pl3  25  ARG25       0.1354
     35  N         10.0460   84.1140   32.4760 N.am   26  TYR26      -0.1974
     36  CA        11.3820   83.6600   32.8700 C.3    26  TYR26       0.1639
     37  C         12.2970   83.7340   31.6610 C.2    26  TYR26       0.2290
     38  O         12.4790   82.7380   30.9470 O.2    26  TYR26      -0.2864
     39  CB        11.3410   82.2250   33.4020 C.3    26  TYR26       0.0560
     40  CG        10.2680   81.9900   34.4320 C.ar   26  TYR26      -0.0198
     41  CD1       10.4670   82.3380   35.7600 C.ar   26  TYR26      -0.0009
     42  CD2        9.0510   81.4250   34.0770 C.ar   26  TYR26      -0.0009
     43  CE1        9.4840   82.1300   36.7070 C.ar   26  TYR26       0.0417
     44  CE2        8.0640   81.2080   35.0190 C.ar   26  TYR26       0.0417
     45  CZ         8.2880   81.5630   36.3320 C.ar   26  TYR26       0.1957
     46  OH         7.3160   81.3570   37.2790 O.3    26  TYR26      -0.2866
     47  N         14.6810   81.0350   30.3310 N.3    29  ARG29      -0.1245
     48  CA        14.1440   79.6860   30.1530 C.3    29  ARG29       0.1563
     49  C         13.5300   79.5150   28.7660 C.2    29  ARG29       0.2260
     50  O         13.1180   80.4870   28.1350 O.2    29  ARG29      -0.2867
     51  CB        13.0770   79.3710   31.2050 C.3    29  ARG29       0.0307
     52  CG        13.5920   79.3150   32.6340 C.3    29  ARG29       0.0489
     53  CD        12.4850   78.8560   33.5620 C.3    29  ARG29       0.2205
     54  NE        12.7960   79.0970   34.9670 N.pl3  29  ARG29      -0.0865
     55  CZ        11.9310   78.9170   35.9600 C.cat  29  ARG29       0.5346
     56  NH1       10.7000   78.4920   35.7030 N.pl3  29  ARG29       0.1354
     57  NH2       12.2950   79.1620   37.2100 N.pl3  29  ARG29       0.1354
     58  N         10.6930   77.5790   26.1080 N.3    31  ILE31      -0.1245
     59  CA         9.3740   76.9650   26.0360 C.3    31  ILE31       0.1561
     60  C          9.0020   76.6880   24.5810 C.2    31  ILE31       0.2260
     61  O          9.6250   77.2090   23.6560 O.2    31  ILE31      -0.2867
     62  CB         8.2660   77.8800   26.6030 C.3    31  ILE31       0.0252
     63  CG1        8.1550   79.1600   25.7600 C.3    31  ILE31       0.0019
     64  CG2        8.4920   78.1800   28.0940 C.3    31  ILE31       0.0019
     65  CD1        6.9110   80.0040   26.0850 C.3    31  ILE31       0.0001
     66  N          3.3710   79.1650   21.7150 N.3    34  GLY34      -0.1225
     67  CA         1.9440   78.8970   21.7100 C.3    34  GLY34       0.1811
     68  C          1.2730   80.0240   22.4590 C.2    34  GLY34       0.2280
     69  O          1.9160   81.0240   22.7650 O.2    34  GLY34      -0.2866
     70  N          5.4650   85.2110   18.2470 N.3    54  GLU54      -0.1245
     71  CA         6.4640   84.8650   19.2570 C.3    54  GLU54       0.1567
     72  C          7.8360   84.5440   18.6770 C.2    54  GLU54       0.2260
     73  O          8.8580   84.8470   19.2900 O.2    54  GLU54      -0.2867
     74  CB         5.9830   83.6790   20.0940 C.3    54  GLU54       0.0388
     75  CG         4.6920   83.9230   20.8350 C.3    54  GLU54       0.1160
     76  CD         4.4710   82.8880   21.9220 C.2    54  GLU54       0.3649
     77  OE1        4.9740   81.7560   21.7750 O.co2  54  GLU54      -0.2457
     78  OE2        3.8090   83.2040   22.9290 O.co2  54  GLU54      -0.2457
     79  N         12.0900   88.6890   23.1660 N.3    94  ARG94      -0.1245
     80  CA        11.9410   87.2390   23.1750 C.3    94  ARG94       0.1563
     81  C         12.9330   86.6340   22.1910 C.2    94  ARG94       0.2260
     82  O         13.0940   87.1310   21.0730 O.2    94  ARG94      -0.2867
     83  CB        10.5040   86.8030   22.8400 C.3    94  ARG94       0.0307
     84  CG        10.2130   85.3780   23.2890 C.3    94  ARG94       0.0489
     85  CD         8.9500   84.7920   22.6800 C.3    94  ARG94       0.2205
     86  NE         7.7170   85.4590   23.0950 N.pl3  94  ARG94      -0.0865
     87  CZ         6.9850   85.1080   24.1510 C.cat  94  ARG94       0.5346
     88  NH1        7.3700   84.1170   24.9440 N.pl3  94  ARG94       0.1354
     89  NH2        5.8680   85.7640   24.4270 N.pl3  94  ARG94       0.1354
     90  N          9.2800   73.2030   32.4360 N.3   112  LYS112     -0.1245
     91  CA         8.1290   73.0580   31.5470 C.3   112  LYS112      0.1561
     92  C          7.8860   71.6030   31.1700 C.2   112  LYS112      0.2260
     93  O          7.8290   71.2820   29.9860 O.2   112  LYS112     -0.2867
     94  CB         8.3200   73.8800   30.2650 C.3   112  LYS112      0.0271
     95  CG         7.8250   75.3070   30.3490 C.3   112  LYS112      0.0035
     96  CD         6.3320   75.3550   30.5800 C.3   112  LYS112      0.0206
     97  CE         5.7480   76.6870   30.1410 C.3   112  LYS112      0.1093
     98  NZ         4.4430   76.9800   30.7990 N.3   112  LYS112     -0.1314
@<TRIPOS>BOND
     1    70    71    1
     2    72    71    1
     3    72    73    2
     4    71    74    1
     5    74    75    1
     6    75    76    1
     7    82    81    2
     8    67    66    1
     9    67    68    1
    10    77    76   ar
    11    76    78   ar
    12    81    80    1
    13    68    69    2
    14    85    86    1
    15    85    84    1
    16     4     3    2
    17    83    80    1
    18    83    84    1
    19     3     2    1
    20    86    87    2
    21    79    80    1
    22    61    60    2
    23     2     1    1
    24     2     5    1
    25    87    89    1
    26    87    88    1
    27    60    59    1
    28     5     6    1
    29    63    65    1
    30    63    62    1
    31    59    58    1
    32    59    62    1
    33    11     9    1
    34     6     7    1
    35    62    64    1
    36     8     9    2
    37     8     7    1
    38     9    10    1
    39    12    13    1
    40    50    49    2
    41    13    14    1
    42    13    16    1
    43    22    19    1
    44    22    23    1
    45    14    18   am
    46    14    15    2
    47    18    19    1
    48    49    48    1
    49    19    20    1
    50    16    17    1
    51    93    92    2
    52    97    96    1
    53    97    98    1
    54    48    47    1
    55    48    51    1
    56    94    95    1
    57    94    91    1
    58    20    21    2
    59    20    24   am
    60    95    96    1
    61    38    37    2
    62    24    25    1
    63    92    91    1
    64    51    52    1
    65    91    90    1
    66    37    36    1
    67    35    36    1
    68    35    26   am
    69    25    26    1
    70    25    28    1
    71    52    53    1
    72    36    39    1
    73    26    27    2
    74    29    28    1
    75    29    30    1
    76    39    40    1
    77    53    54    1
    78    42    40   ar
    79    42    44   ar
    80    30    31    1
    81    40    41   ar
    82    54    55    2
    83    44    45   ar
    84    31    32    2
    85    56    55    1
    86    41    43   ar
    87    55    57    1
    88    33    32    1
    89    45    43   ar
    90    45    46    1
    91    32    34    1
