@<TRIPOS>MOLECULE
tmp/3mcfB00.pdb
 94 88 0 0 0
SMALL
GASTEIGER

@<TRIPOS>ATOM
      1  N         22.0220  106.5420   47.2650 N.3     4  ARG4       -0.1245
      2  CA        21.2080  105.9000   46.2390 C.3     4  ARG4        0.1563
      3  C         21.7240  104.5030   45.9360 C.2     4  ARG4        0.2260
      4  O         22.8900  104.1860   46.1840 O.2     4  ARG4       -0.2867
      5  CB        21.2070  106.7200   44.9450 C.3     4  ARG4        0.0307
      6  CG        20.6960  108.1400   45.0900 C.3     4  ARG4        0.0489
      7  CD        20.6980  108.8510   43.7400 C.3     4  ARG4        0.2205
      8  NE        19.7530  108.2510   42.7990 N.pl3   4  ARG4       -0.0865
      9  CZ        20.0900  107.4640   41.7800 C.cat   4  ARG4        0.5346
     10  NH1       21.3670  107.1700   41.5480 N.pl3   4  ARG4        0.1354
     11  NH2       19.1400  106.9740   40.9910 N.pl3   4  ARG4        0.1354
     12  N         13.3360  106.6240   31.0300 N.3    23  SER23      -0.1202
     13  CA        13.3160  107.7680   31.9270 C.3    23  SER23       0.2020
     14  C         11.8780  108.2310   32.1000 C.2    23  SER23       0.2619
     15  O         11.1030  108.1900   31.1550 O.2    23  SER23      -0.2717
     16  CB        14.1470  108.9110   31.3370 C.3    23  SER23       0.2103
     17  OG        13.7440  110.1530   31.8850 O.3    23  SER23      -0.2182
     18  N         11.5180  108.6740   33.3000 N.am   24  SER24      -0.1937
     19  CA        10.1730  109.1900   33.5220 C.3    24  SER24       0.2055
     20  C         10.0540  110.6200   32.9980 C.2    24  SER24       0.2643
     21  O          8.9610  111.0850   32.6950 O.2    24  SER24      -0.2714
     22  CB         9.8150  109.1520   35.0070 C.3    24  SER24       0.2130
     23  OG        10.6670  110.0160   35.7390 O.3    24  SER24      -0.2179
     24  N         11.1820  111.3170   32.8900 N.am   25  ARG25      -0.1963
     25  CA        11.1930  112.6930   32.3970 C.3    25  ARG25       0.1729
     26  C         11.1710  112.7330   30.8710 C.2    25  ARG25       0.2616
     27  O         10.3970  113.4770   30.2620 O.2    25  ARG25      -0.2715
     28  CB        12.4360  113.4360   32.9020 C.3    25  ARG25       0.0348
     29  CG        12.5130  113.6280   34.4090 C.3    25  ARG25       0.0492
     30  CD        13.9440  113.9730   34.8240 C.3    25  ARG25       0.2205
     31  NE        14.4410  115.1600   34.1330 N.pl3  25  ARG25      -0.0865
     32  CZ        15.7180  115.3690   33.8280 C.cat  25  ARG25       0.5346
     33  NH1       16.6340  114.4610   34.1360 N.pl3  25  ARG25       0.1354
     34  NH2       16.0780  116.4800   33.2020 N.pl3  25  ARG25       0.1354
     35  N         12.0420  111.9330   30.2630 N.am   26  TYR26      -0.1974
     36  CA        12.1930  111.8830   28.8130 C.3    26  TYR26       0.1639
     37  C         12.0330  110.4440   28.3510 C.2    26  TYR26       0.2290
     38  O         12.9930  109.6760   28.3560 O.2    26  TYR26      -0.2864
     39  CB        13.5730  112.4160   28.4070 C.3    26  TYR26       0.0560
     40  CG        13.7810  113.8760   28.7550 C.ar   26  TYR26      -0.0198
     41  CD1       13.3370  114.8830   27.9050 C.ar   26  TYR26      -0.0009
     42  CD2       14.4120  114.2470   29.9390 C.ar   26  TYR26      -0.0009
     43  CE1       13.5190  116.2230   28.2250 C.ar   26  TYR26       0.0417
     44  CE2       14.6000  115.5810   30.2660 C.ar   26  TYR26       0.0417
     45  CZ        14.1510  116.5640   29.4030 C.ar   26  TYR26       0.1957
     46  OH        14.3330  117.8870   29.7250 O.3    26  TYR26      -0.2866
     47  N         14.5370  108.2100   26.4750 N.3    29  ARG29      -0.1245
     48  CA        15.8590  107.9430   27.0350 C.3    29  ARG29       0.1563
     49  C         15.8340  106.6840   27.8880 C.2    29  ARG29       0.2260
     50  O         14.8040  106.3590   28.4840 O.2    29  ARG29      -0.2867
     51  CB        16.3350  109.1330   27.8610 C.3    29  ARG29       0.0307
     52  CG        16.5670  110.3850   27.0220 C.3    29  ARG29       0.0489
     53  CD        17.0650  111.5210   27.8810 C.3    29  ARG29       0.2205
     54  NE        17.0080  112.7920   27.1690 N.pl3  29  ARG29      -0.0865
     55  CZ        17.3710  113.9520   27.7010 C.cat  29  ARG29       0.5346
     56  NH1       17.8230  114.0000   28.9500 N.pl3  29  ARG29       0.1354
     57  NH2       17.2840  115.0620   26.9830 N.pl3  29  ARG29       0.1354
     58  N         17.7330  104.3720   31.0700 N.3    31  ILE31      -0.1245
     59  CA        18.5340  104.5510   32.2810 C.3    31  ILE31       0.1561
     60  C         18.6820  103.2190   33.0040 C.2    31  ILE31       0.2260
     61  O         17.9570  102.2580   32.7260 O.2    31  ILE31      -0.2867
     62  CB        17.8880  105.5570   33.2730 C.3    31  ILE31       0.0252
     63  CG1       16.5980  104.9770   33.8520 C.3    31  ILE31       0.0019
     64  CG2       17.5950  106.8980   32.6010 C.3    31  ILE31       0.0019
     65  CD1       15.8780  105.9220   34.8070 C.3    31  ILE31       0.0001
     66  N         10.5460   99.5650   39.6260 N.3    54  GLU54      -0.1245
     67  CA        10.7810  100.2800   38.3770 C.3    54  GLU54       0.1567
     68  C         10.7530   99.3820   37.1440 C.2    54  GLU54       0.2260
     69  O         10.4000   99.8340   36.0560 O.2    54  GLU54      -0.2867
     70  CB        12.1120  101.0390   38.4380 C.3    54  GLU54       0.0388
     71  CG        12.1280  102.1430   39.4920 C.3    54  GLU54       0.1160
     72  CD        13.2230  103.1670   39.2620 C.2    54  GLU54       0.3649
     73  OE1       14.1840  102.8650   38.5230 O.co2  54  GLU54      -0.2457
     74  OE2       13.1260  104.2710   39.8350 O.co2  54  GLU54      -0.2457
     75  N          6.2740  103.4650   32.5300 N.3    94  ARG94      -0.1245
     76  CA         7.6920  103.1840   32.3400 C.3    94  ARG94       0.1563
     77  C          7.8660  101.8770   31.5710 C.2    94  ARG94       0.2260
     78  O          7.1240  100.9130   31.7770 O.2    94  ARG94      -0.2867
     79  CB         8.4280  103.0980   33.6840 C.3    94  ARG94       0.0307
     80  CG         9.9370  103.3450   33.5510 C.3    94  ARG94       0.0489
     81  CD        10.7050  102.9810   34.8200 C.3    94  ARG94       0.2205
     82  NE        10.4320  103.8690   35.9520 N.pl3  94  ARG94      -0.0865
     83  CZ        11.0370  105.0330   36.1810 C.cat  94  ARG94       0.5346
     84  NH1       11.9380  105.5170   35.3340 N.pl3  94  ARG94       0.1354
     85  NH2       10.7200  105.7330   37.2600 N.pl3  94  ARG94       0.1354
     86  N         23.4050  109.7960   30.5080 N.3   112  LYS112     -0.1245
     87  CA        23.7410  109.1170   31.7620 C.3   112  LYS112      0.1561
     88  C         25.1410  108.5240   31.7410 C.2   112  LYS112      0.2260
     89  O         25.3100  107.3220   31.9460 O.2   112  LYS112     -0.2867
     90  CB        22.7360  108.0020   32.0630 C.3   112  LYS112      0.0271
     91  CG        21.3440  108.4960   32.3800 C.3   112  LYS112      0.0035
     92  CD        21.3020  109.2160   33.7100 C.3   112  LYS112      0.0206
     93  CE        19.9270  109.8360   33.9380 C.3   112  LYS112      0.1093
     94  NZ        19.8020  110.4500   35.2890 N.3   112  LYS112     -0.1314
@<TRIPOS>BOND
     1    47    48    1
     2    57    55    1
     3    52    51    1
     4    52    53    1
     5    48    51    1
     6    48    49    1
     7    54    55    2
     8    54    53    1
     9    55    56    1
    10    49    50    2
    11    41    43   ar
    12    41    40   ar
    13    43    45   ar
    14    37    38    2
    15    37    36    1
    16    39    40    1
    17    39    36    1
    18    40    42   ar
    19    36    35    1
    20    45    46    1
    21    45    44   ar
    22    42    44   ar
    23    27    26    2
    24    35    26   am
    25    86    87    1
    26    26    25    1
    27    12    13    1
    28    58    59    1
    29    15    14    2
    30    16    17    1
    31    16    13    1
    32    77    78    2
    33    77    76    1
    34    88    87    1
    35    88    89    2
    36    87    90    1
    37    13    14    1
    38    90    91    1
    39    14    18   am
    40    59    60    1
    41    59    62    1
    42    76    75    1
    43    76    79    1
    44    91    92    1
    45    25    24    1
    46    25    28    1
    47    64    62    1
    48    21    20    2
    49    61    60    2
    50    24    20   am
    51    28    29    1
    52    20    19    1
    53    34    32    1
    54    62    63    1
    55    18    19    1
    56    19    22    1
    57    80    79    1
    58    80    81    1
    59    92    93    1
    60    32    31    2
    61    32    33    1
    62    63    65    1
    63    93    94    1
    64    31    30    1
    65    29    30    1
    66    81    82    1
    67    22    23    1
    68    84    83    1
    69    82    83    2
    70    69    68    2
    71    83    85    1
    72    68    67    1
    73    67    70    1
    74    67    66    1
    75    70    71    1
    76    73    72   ar
    77    72    71    1
    78    72    74   ar
    79    11     9    1
    80    10     9    1
    81     9     8    2
    82     8     7    1
    83     7     6    1
    84     5     6    1
    85     5     2    1
    86     3     4    2
    87     3     2    1
    88     2     1    1
