@<TRIPOS>MOLECULE
tmp/3mcnB00.pdb
 111 100 0 0 0
SMALL
GASTEIGER

@<TRIPOS>ATOM
      1  N         22.6220  -35.1930   24.4080 N.3   198  THR198     -0.1218
      2  CA        21.4640  -35.1680   23.5340 C.3   198  THR198      0.1862
      3  C         21.8560  -35.6700   22.1540 C.2   198  THR198      0.2287
      4  O         20.9980  -35.9690   21.3280 O.2   198  THR198     -0.2866
      5  CB        20.9030  -33.7360   23.4010 C.3   198  THR198      0.1770
      6  OG1       21.7380  -32.9690   22.5220 O.3   198  THR198     -0.2211
      7  CG2       20.8460  -33.0560   24.7570 C.3   198  THR198      0.0375
      8  N         15.9660  -34.5440   34.6520 N.3   236  ASP236     -0.1239
      9  CA        15.8950  -35.1130   33.3150 C.3   236  ASP236      0.1674
     10  C         16.7320  -36.3980   33.2220 C.2   236  ASP236      0.2266
     11  O         17.9300  -36.3440   32.9640 O.2   236  ASP236     -0.2867
     12  CB        16.3760  -34.0840   32.2950 C.3   236  ASP236      0.1410
     13  CG        16.3360  -34.6000   30.8720 C.2   236  ASP236      0.3668
     14  OD1       16.6160  -33.7950   29.9730 O.co2 236  ASP236     -0.2456
     15  OD2       16.0490  -35.8000   30.6440 O.co2 236  ASP236     -0.2456
     16  N         11.4190  -35.8210   34.5630 N.3   258  ASN258     -0.1240
     17  CA        11.2160  -35.6700   33.1380 C.3   258  ASN258      0.1653
     18  C         11.9350  -36.8190   32.4030 C.2   258  ASN258      0.2266
     19  O         13.1470  -36.7660   32.2160 O.2   258  ASN258     -0.2867
     20  CB        11.7730  -34.3080   32.7100 C.3   258  ASN258      0.1155
     21  CG        11.7500  -34.1180   31.1960 C.2   258  ASN258      0.2627
     22  OD1       10.8700  -34.6290   30.5330 O.2   258  ASN258     -0.2716
     23  ND2       12.7260  -33.3900   30.6550 N.am  258  ASN258     -0.0877
     24  N         12.5470  -39.1350   29.0900 N.3   260  VAL260     -0.1245
     25  CA        12.3930  -39.2720   27.6340 C.3   260  VAL260      0.1561
     26  C         12.1540  -40.7100   27.1460 C.2   260  VAL260      0.2260
     27  O         11.8700  -40.9200   25.9670 O.2   260  VAL260     -0.2867
     28  CB        13.6010  -38.6880   26.8580 C.3   260  VAL260      0.0252
     29  CG1       13.7100  -37.1800   27.0670 C.3   260  VAL260      0.0019
     30  CG2       14.8920  -39.3900   27.2660 C.3   260  VAL260      0.0019
     31  N          6.4480  -36.5650   33.1810 N.3   280  VAL280     -0.1245
     32  CA         6.1810  -36.1830   31.7920 C.3   280  VAL280      0.1561
     33  C          6.1830  -37.3900   30.8700 C.2   280  VAL280      0.2260
     34  O          7.1510  -38.1330   30.8240 O.2   280  VAL280     -0.2867
     35  CB         7.2420  -35.2160   31.2480 C.3   280  VAL280      0.0252
     36  CG1        6.9610  -34.8990   29.7890 C.3   280  VAL280      0.0019
     37  CG2        7.2960  -33.9330   32.0820 C.3   280  VAL280      0.0019
     38  N          6.5700  -38.4880   27.2650 N.3   282  ILE282     -0.1245
     39  CA         7.0300  -37.9840   25.9770 C.3   282  ILE282      0.1561
     40  C          6.7320  -38.9960   24.8910 C.2   282  ILE282      0.2260
     41  O          6.7730  -40.2000   25.1250 O.2   282  ILE282     -0.2867
     42  CB         8.5550  -37.6740   25.9520 C.3   282  ILE282      0.0252
     43  CG1        8.9210  -36.5910   26.9710 C.3   282  ILE282      0.0019
     44  CG2        8.9790  -37.2040   24.5730 C.3   282  ILE282      0.0019
     45  CD1        9.1590  -37.0990   28.3870 C.3   282  ILE282      0.0001
     46  N          4.3870  -34.5250   26.3040 N.3   312  ASP312     -0.1239
     47  CA         5.3010  -33.8330   25.4140 C.3   312  ASP312      0.1674
     48  C          5.2470  -34.5190   24.0410 C.2   312  ASP312      0.2266
     49  O          5.5170  -35.7110   23.9230 O.2   312  ASP312     -0.2867
     50  CB         6.7160  -33.8600   26.0070 C.3   312  ASP312      0.1410
     51  CG         7.6840  -32.9370   25.2830 C.2   312  ASP312      0.3668
     52  OD1        8.7150  -32.5650   25.8820 O.co2 312  ASP312     -0.2456
     53  OD2        7.4280  -32.5910   24.1190 O.co2 312  ASP312     -0.2456
     54  N          7.2270  -34.4240   21.8310 N.3   314  GLY314     -0.1210
     55  CA         8.5410  -35.0050   21.6310 C.3   314  GLY314      0.1956
     56  C          9.1280  -34.5390   20.3180 C.2   314  GLY314      0.2611
     57  O          9.1660  -35.2850   19.3370 O.2   314  GLY314     -0.2717
     58  N          9.5800  -33.2910   20.2860 N.am  315  PHE315     -0.1976
     59  CA        10.2010  -32.7670   19.0800 C.3   315  PHE315      0.1639
     60  C         11.6650  -33.2010   19.0200 C.2   315  PHE315      0.2290
     61  O         12.4230  -32.9980   19.9700 O.2   315  PHE315     -0.2864
     62  CB        10.0370  -31.2490   19.0000 C.3   315  PHE315      0.0560
     63  CG         8.6050  -30.8140   18.8830 C.ar  315  PHE315     -0.0200
     64  CD1        7.9350  -30.2820   19.9680 C.ar  315  PHE315     -0.0042
     65  CD2        7.9130  -30.9790   17.6920 C.ar  315  PHE315     -0.0042
     66  CE1        6.6070  -29.8980   19.8630 C.ar  315  PHE315     -0.0003
     67  CE2        6.5890  -30.5960   17.5800 C.ar  315  PHE315     -0.0003
     68  CZ         5.9350  -30.0560   18.6680 C.ar  315  PHE315     -0.0000
     69  N         12.3770  -36.4910   18.0170 N.3   317  PHE317     -0.1241
     70  CA        12.3710  -37.9380   18.1370 C.3   317  PHE317      0.1605
     71  C         11.5500  -38.5770   17.0220 C.2   317  PHE317      0.2264
     72  O         10.3510  -38.8160   17.1680 O.2   317  PHE317     -0.2867
     73  CB        11.8700  -38.3570   19.5220 C.3   317  PHE317      0.0534
     74  CG        12.6540  -37.7430   20.6560 C.ar  317  PHE317     -0.0203
     75  CD1       12.1000  -36.7510   21.4440 C.ar  317  PHE317     -0.0042
     76  CD2       13.9560  -38.1400   20.9130 C.ar  317  PHE317     -0.0042
     77  CE1       12.8220  -36.1740   22.4750 C.ar  317  PHE317     -0.0003
     78  CE2       14.6840  -37.5690   21.9450 C.ar  317  PHE317     -0.0003
     79  CZ        14.1130  -36.5850   22.7290 C.ar  317  PHE317     -0.0000
     80  N          3.6840  -29.9360   28.0560 N.3   342  LEU342     -0.1245
     81  CA         5.0780  -29.4830   28.1090 C.3   342  LEU342      0.1561
     82  C          5.6700  -29.5060   26.7030 C.2   342  LEU342      0.2260
     83  O          5.5940  -30.5290   26.0200 O.2   342  LEU342     -0.2867
     84  CB         5.9260  -30.3780   29.0430 C.3   342  LEU342      0.0270
     85  CG         7.3440  -29.8540   29.3530 C.3   342  LEU342      0.0019
     86  CD1        8.0410  -30.6330   30.4570 C.3   342  LEU342      0.0001
     87  CD2        8.2380  -29.8290   28.1140 C.3   342  LEU342      0.0001
     88  N          9.1700  -29.0670   24.3870 N.3   344  GLY344     -0.1225
     89  CA        10.5980  -28.8910   24.1990 C.3   344  GLY344      0.1811
     90  C         10.9730  -28.5500   22.7580 C.2   344  GLY344      0.2280
     91  O         11.1960  -29.4360   21.9410 O.2   344  GLY344     -0.2866
     92  N         15.6200  -26.8370   18.3310 N.3   348  LYS348     -0.1245
     93  CA        15.2130  -27.9430   17.4560 C.3   348  LYS348      0.1561
     94  C         14.8070  -27.4030   16.0860 C.2   348  LYS348      0.2260
     95  O         13.6840  -26.9190   15.9290 O.2   348  LYS348     -0.2867
     96  CB        13.9980  -28.6680   18.0350 C.3   348  LYS348      0.0271
     97  CG        14.1670  -29.2190   19.4250 C.3   348  LYS348      0.0035
     98  CD        15.0460  -30.4420   19.4370 C.3   348  LYS348      0.0206
     99  CE        15.1100  -31.0140   20.8450 C.3   348  LYS348      0.1093
    100  NZ        13.7430  -31.0800   21.4580 N.3   348  LYS348     -0.1314
    101  N         10.3210  -25.7200   27.5080 N.3   381  ARG381     -0.1245
    102  CA        11.6590  -26.1220   27.9070 C.3   381  ARG381      0.1563
    103  C         12.7010  -25.4890   26.9890 C.2   381  ARG381      0.2260
    104  O         12.8940  -25.9340   25.8670 O.2   381  ARG381     -0.2867
    105  CB        11.7450  -27.6440   27.8870 C.3   381  ARG381      0.0307
    106  CG        13.0270  -28.2450   28.4380 C.3   381  ARG381      0.0489
    107  CD        12.9650  -29.7560   28.2810 C.3   381  ARG381      0.2205
    108  NE        14.1370  -30.3740   28.8630 N.pl3 381  ARG381     -0.0865
    109  CZ        15.2490  -30.6340   28.1950 C.cat 381  ARG381      0.5346
    110  NH1       15.3380  -30.3500   26.8970 N.pl3 381  ARG381      0.1354
    111  NH2       16.2750  -31.1880   28.8320 N.pl3 381  ARG381      0.1354
@<TRIPOS>BOND
     1    95    94    2
     2    94    93    1
     3    71    72    2
     4    71    70    1
     5    93    96    1
     6    93    92    1
     7    67    65   ar
     8    67    68   ar
     9    65    63   ar
    10    69    70    1
    11    96    97    1
    12    70    73    1
    13    68    66   ar
    14    63    62    1
    15    63    64   ar
    16    62    59    1
    17    60    59    1
    18    60    61    2
    19    59    58    1
    20    57    56    2
    21    97    98    1
    22    98    99    1
    23    73    74    1
    24    66    64   ar
    25    58    56   am
    26    56    55    1
    27    74    76   ar
    28    74    75   ar
    29    99   100    1
    30    76    78   ar
    31     4     3    2
    32    75    77   ar
    33    55    54    1
    34    91    90    2
    35    78    79   ar
    36     3     2    1
    37    77    79   ar
    38     6     5    1
    39    90    89    1
    40     5     2    1
    41     5     7    1
    42     2     1    1
    43    49    48    2
    44    48    47    1
    45    53    51   ar
    46    89    88    1
    47    44    42    1
    48    40    41    2
    49    40    39    1
    50    51    52   ar
    51    51    50    1
    52    47    50    1
    53    47    46    1
    54   104   103    2
    55    42    39    1
    56    42    43    1
    57    27    26    2
    58    39    38    1
    59    83    82    2
    60    82    81    1
    61    28    29    1
    62    28    30    1
    63    28    25    1
    64   110   109    1
    65    43    45    1
    66   103   102    1
    67    26    25    1
    68   101   102    1
    69    25    24    1
    70   105   102    1
    71   105   106    1
    72    80    81    1
    73    81    84    1
    74    87    85    1
    75   109   111    1
    76   109   108    2
    77   107   106    1
    78   107   108    1
    79    84    85    1
    80    85    86    1
    81    36    35    1
    82    14    13   ar
    83    22    21    2
    84    15    13   ar
    85    23    21   am
    86    34    33    2
    87    33    32    1
    88    13    12    1
    89    21    20    1
    90    35    32    1
    91    35    37    1
    92    32    31    1
    93    19    18    2
    94    12     9    1
    95    18    17    1
    96    20    17    1
    97    11    10    2
    98    17    16    1
    99    10     9    1
   100     9     8    1
