@<TRIPOS>MOLECULE
tmp/3mcoB01.pdb
 100 90 0 0 0
SMALL
GASTEIGER

@<TRIPOS>ATOM
      1  N        -22.5550  -35.3590  -24.6040 N.3   196  THR196     -0.1218
      2  CA       -21.4840  -35.1570  -23.6290 C.3   196  THR196      0.1862
      3  C        -21.7830  -35.8480  -22.2990 C.2   196  THR196      0.2287
      4  O        -20.8700  -36.3060  -21.6010 O.2   196  THR196     -0.2866
      5  CB       -21.2610  -33.6510  -23.3700 C.3   196  THR196      0.1770
      6  OG1      -20.5430  -33.0790  -24.4700 O.3   196  THR196     -0.2211
      7  CG2      -20.4700  -33.4320  -22.0820 C.3   196  THR196      0.0375
      8  N        -15.7650  -34.7910  -34.7220 N.3   235  ASP235     -0.1239
      9  CA       -15.7280  -35.3010  -33.3620 C.3   235  ASP235      0.1674
     10  C        -16.5910  -36.5510  -33.2710 C.2   235  ASP235      0.2266
     11  O        -17.7870  -36.4520  -33.1280 O.2   235  ASP235     -0.2867
     12  CB       -16.2690  -34.2320  -32.3980 C.3   235  ASP235      0.1410
     13  CG       -16.0190  -34.5680  -30.9390 C.2   235  ASP235      0.3668
     14  OD1      -16.0370  -33.6330  -30.1090 O.co2 235  ASP235     -0.2456
     15  OD2      -15.7940  -35.7490  -30.6110 O.co2 235  ASP235     -0.2456
     16  N        -11.2790  -35.7760  -34.3360 N.3   257  ASN257     -0.1240
     17  CA       -11.0850  -35.7800  -32.8960 C.3   257  ASN257      0.1653
     18  C        -11.9050  -36.8860  -32.2760 C.2   257  ASN257      0.2266
     19  O        -13.1320  -36.7880  -32.1290 O.2   257  ASN257     -0.2867
     20  CB       -11.4750  -34.4380  -32.2980 C.3   257  ASN257      0.1155
     21  CG       -11.3940  -34.4260  -30.7920 C.2   257  ASN257      0.2627
     22  OD1      -10.3960  -34.8440  -30.1980 O.2   257  ASN257     -0.2716
     23  ND2      -12.4560  -33.9530  -30.1560 N.am  257  ASN257     -0.0877
     24  N        -12.6520  -39.0110  -29.1300 N.3   259  VAL259     -0.1245
     25  CA       -12.5810  -38.9920  -27.6810 C.3   259  VAL259      0.1561
     26  C        -12.1690  -40.3440  -27.0760 C.2   259  VAL259      0.2260
     27  O        -11.2060  -40.4210  -26.3140 O.2   259  VAL259     -0.2867
     28  CB       -13.9180  -38.5600  -27.0770 C.3   259  VAL259      0.0252
     29  CG1      -13.9560  -38.9160  -25.6300 C.3   259  VAL259      0.0019
     30  CG2      -14.1170  -37.0730  -27.2400 C.3   259  VAL259      0.0019
     31  N         -6.5100  -38.6420  -27.1920 N.3   281  ILE281     -0.1245
     32  CA        -7.0020  -38.1860  -25.8940 C.3   281  ILE281      0.1561
     33  C         -6.6300  -39.2170  -24.8480 C.2   281  ILE281      0.2260
     34  O         -6.5760  -40.4070  -25.1450 O.2   281  ILE281     -0.2867
     35  CB        -8.5570  -38.0080  -25.8660 C.3   281  ILE281      0.0252
     36  CG1       -9.0940  -37.5970  -27.2380 C.3   281  ILE281      0.0019
     37  CG2       -8.9700  -36.9640  -24.8240 C.3   281  ILE281      0.0019
     38  CD1       -8.8820  -36.1220  -27.5590 C.3   281  ILE281      0.0001
     39  N         -4.1560  -34.5070  -26.4970 N.3   313  ASP313     -0.1239
     40  CA        -5.0380  -33.7930  -25.6000 C.3   313  ASP313      0.1674
     41  C         -4.9990  -34.4740  -24.2230 C.2   313  ASP313      0.2266
     42  O         -5.3190  -35.6570  -24.1020 O.2   313  ASP313     -0.2867
     43  CB        -6.4530  -33.7990  -26.1880 C.3   313  ASP313      0.1410
     44  CG        -7.4400  -33.0140  -25.3540 C.2   313  ASP313      0.3668
     45  OD1       -8.3920  -32.4720  -25.9410 O.co2 313  ASP313     -0.2456
     46  OD2       -7.2730  -32.9370  -24.1150 O.co2 313  ASP313     -0.2456
     47  N         -8.9290  -33.2780  -20.0890 N.3   316  PHE316     -0.1241
     48  CA        -9.6860  -32.7100  -18.9880 C.3   316  PHE316      0.1605
     49  C        -11.1790  -33.0380  -19.1370 C.2   316  PHE316      0.2264
     50  O        -11.7520  -32.9140  -20.2250 O.2   316  PHE316     -0.2867
     51  CB        -9.4570  -31.2110  -18.9290 C.3   316  PHE316      0.0534
     52  CG        -8.0120  -30.8360  -18.9390 C.ar  316  PHE316     -0.0203
     53  CD1       -7.4450  -30.2180  -20.0440 C.ar  316  PHE316     -0.0042
     54  CD2       -7.2050  -31.1270  -17.8540 C.ar  316  PHE316     -0.0042
     55  CE1       -6.0940  -29.8740  -20.0510 C.ar  316  PHE316     -0.0003
     56  CE2       -5.8570  -30.7920  -17.8520 C.ar  316  PHE316     -0.0003
     57  CZ        -5.2980  -30.1660  -18.9500 C.ar  316  PHE316     -0.0000
     58  N        -12.1620  -36.1200  -18.2650 N.3   318  PHE318     -0.1241
     59  CA       -12.1780  -37.5680  -18.4300 C.3   318  PHE318      0.1605
     60  C        -11.3640  -38.2500  -17.3300 C.2   318  PHE318      0.2264
     61  O        -10.1580  -38.4650  -17.4720 O.2   318  PHE318     -0.2867
     62  CB       -11.6770  -37.9620  -19.8320 C.3   318  PHE318      0.0534
     63  CG       -12.3510  -37.2050  -20.9570 C.ar  318  PHE318     -0.0203
     64  CD1      -12.0610  -35.8670  -21.1880 C.ar  318  PHE318     -0.0042
     65  CD2      -13.2730  -37.8250  -21.7780 C.ar  318  PHE318     -0.0042
     66  CE1      -12.6840  -35.1610  -22.2100 C.ar  318  PHE318     -0.0003
     67  CE2      -13.8930  -37.1230  -22.8090 C.ar  318  PHE318     -0.0003
     68  CZ       -13.5930  -35.7940  -23.0240 C.ar  318  PHE318     -0.0000
     69  N         -3.5100  -29.9070  -27.9090 N.3   344  LEU344     -0.1245
     70  CA        -4.9030  -29.4960  -28.0160 C.3   344  LEU344      0.1561
     71  C         -5.4540  -29.4450  -26.6030 C.2   344  LEU344      0.2260
     72  O         -5.2360  -30.3570  -25.8330 O.2   344  LEU344     -0.2867
     73  CB        -5.6980  -30.5190  -28.8380 C.3   344  LEU344      0.0270
     74  CG        -7.0770  -30.1440  -29.3800 C.3   344  LEU344      0.0019
     75  CD1       -7.6990  -31.3770  -29.9600 C.3   344  LEU344      0.0001
     76  CD2       -7.9920  -29.6000  -28.3170 C.3   344  LEU344      0.0001
     77  N         -9.0780  -28.7360  -24.3550 N.3   346  GLY346     -0.1225
     78  CA       -10.5170  -28.5270  -24.2790 C.3   346  GLY346      0.1811
     79  C        -10.9930  -28.2320  -22.8660 C.2   346  GLY346      0.2280
     80  O        -11.7100  -29.0160  -22.2510 O.2   346  GLY346     -0.2866
     81  N        -15.0810  -26.8360  -17.9770 N.3   350  LYS350     -0.1245
     82  CA       -14.7610  -27.9630  -17.1000 C.3   350  LYS350      0.1561
     83  C        -14.3640  -27.4390  -15.7170 C.2   350  LYS350      0.2260
     84  O        -13.2430  -26.9510  -15.5470 O.2   350  LYS350     -0.2867
     85  CB       -13.6020  -28.7910  -17.6660 C.3   350  LYS350      0.0271
     86  CG       -13.9940  -30.0280  -18.4600 C.3   350  LYS350      0.0035
     87  CD       -13.9510  -29.7570  -19.9500 C.3   350  LYS350      0.0206
     88  CE       -13.7470  -31.0490  -20.7070 C.3   350  LYS350      0.1093
     89  NZ       -13.8970  -30.8860  -22.1790 N.3   350  LYS350     -0.1314
     90  N        -10.0650  -25.7090  -27.6520 N.3   382  ARG382     -0.1245
     91  CA       -11.4320  -26.0600  -27.9900 C.3   382  ARG382      0.1563
     92  C        -12.3710  -25.3980  -26.9920 C.2   382  ARG382      0.2260
     93  O        -12.2830  -25.6790  -25.7980 O.2   382  ARG382     -0.2867
     94  CB       -11.5680  -27.5720  -27.9010 C.3   382  ARG382      0.0307
     95  CG       -12.9620  -28.0930  -28.0600 C.3   382  ARG382      0.0489
     96  CD       -12.9330  -29.6110  -28.2020 C.3   382  ARG382      0.2205
     97  NE       -14.1200  -30.0960  -28.8990 N.pl3 382  ARG382     -0.0865
     98  CZ       -15.3060  -30.2650  -28.3250 C.cat 382  ARG382      0.5346
     99  NH1      -15.4590  -29.9960  -27.0310 N.pl3 382  ARG382      0.1354
    100  NH2      -16.3310  -30.7190  -29.0410 N.pl3 382  ARG382      0.1354
@<TRIPOS>BOND
     1     8     9    1
     2    16    17    1
     3     9    10    1
     4     9    12    1
     5    10    11    2
     6    17    20    1
     7    17    18    1
     8    12    13    1
     9    20    21    1
    10    18    19    2
    11    13    15   ar
    12    13    14   ar
    13    21    22    2
    14    21    23   am
    15    75    74    1
    16    74    73    1
    17    74    76    1
    18    24    25    1
    19   100    98    1
    20    97    98    2
    21    97    96    1
    22    73    70    1
    23    98    99    1
    24    96    95    1
    25    95    94    1
    26    70    69    1
    27    70    71    1
    28    91    94    1
    29    91    90    1
    30    91    92    1
    31    25    28    1
    32    25    26    1
    33    38    36    1
    34    30    28    1
    35    36    35    1
    36    31    32    1
    37    28    29    1
    38    26    27    2
    39    92    93    2
    40    71    72    2
    41    39    40    1
    42    43    40    1
    43    43    44    1
    44    45    44   ar
    45    32    35    1
    46    32    33    1
    47    35    37    1
    48    40    41    1
    49    44    46   ar
    50    34    33    2
    51     1     2    1
    52     6     5    1
    53    77    78    1
    54    78    79    1
    55    41    42    2
    56     2     5    1
    57     2     3    1
    58     5     7    1
    59    68    67   ar
    60    68    66   ar
    61    79    80    2
    62    67    65   ar
    63     3     4    2
    64    66    64   ar
    65    89    88    1
    66    65    63   ar
    67    64    63   ar
    68    63    62    1
    69    88    87    1
    70    50    49    2
    71    47    48    1
    72    55    53   ar
    73    55    57   ar
    74    53    52   ar
    75    87    86    1
    76    62    59    1
    77    49    48    1
    78    48    51    1
    79    57    56   ar
    80    52    51    1
    81    52    54   ar
    82    86    85    1
    83    59    58    1
    84    59    60    1
    85    81    82    1
    86    54    56   ar
    87    85    82    1
    88    61    60    2
    89    82    83    1
    90    83    84    2
