@<TRIPOS>MOLECULE
tmp/3mcoB00.pdb
 99 92 0 0 0
SMALL
GASTEIGER

@<TRIPOS>ATOM
      1  N         -2.8810  -14.0930  -50.9100 N.3    10  GLY10      -0.1225
      2  CA        -4.2720  -14.3840  -51.2100 C.3    10  GLY10       0.1811
      3  C         -4.5680  -15.8530  -51.4660 C.2    10  GLY10       0.2280
      4  O         -3.7820  -16.5910  -52.0540 O.2    10  GLY10      -0.2866
      5  N        -12.9540  -10.9910  -48.8190 N.3    44  SER44      -0.1202
      6  CA       -13.5210  -10.2350  -49.9170 C.3    44  SER44       0.2020
      7  C        -14.0340  -11.1420  -51.0160 C.2    44  SER44       0.2619
      8  O        -13.3870  -12.1290  -51.3450 O.2    44  SER44      -0.2717
      9  CB       -12.4700   -9.2720  -50.4830 C.3    44  SER44       0.2103
     10  OG       -11.2840   -9.9700  -50.8400 O.3    44  SER44      -0.2182
     11  N        -15.2000  -10.8090  -51.5760 N.am   45  LYS45      -0.1965
     12  CA       -15.6570  -11.4680  -52.8000 C.3    45  LYS45       0.1728
     13  C        -14.5570  -11.3320  -53.8400 C.2    45  LYS45       0.2616
     14  O        -13.9530  -10.2700  -53.9770 O.2    45  LYS45      -0.2715
     15  CB       -16.9600  -10.8450  -53.3310 C.3    45  LYS45       0.0311
     16  CG       -18.2260  -11.1180  -52.4790 C.3    45  LYS45       0.0038
     17  CD       -18.9640   -9.8010  -52.0990 C.3    45  LYS45       0.0206
     18  CE       -19.7500   -9.9190  -50.7820 C.3    45  LYS45       0.1093
     19  NZ       -20.8810  -10.9000  -50.8600 N.3    45  LYS45      -0.1314
     20  N        -14.2860  -12.4100  -54.5630 N.am   46  ALA46      -0.1963
     21  CA       -13.3150  -12.3620  -55.6420 C.3    46  ALA46       0.1728
     22  C        -13.5750  -11.1740  -56.5650 C.2    46  ALA46       0.2616
     23  O        -14.7220  -10.7620  -56.7370 O.2    46  ALA46      -0.2715
     24  CB       -13.3650  -13.6500  -56.4260 C.3    46  ALA46       0.0334
     25  N        -12.5150  -10.6180  -57.1530 N.am   47  VAL47      -0.1977
     26  CA       -12.6620   -9.5260  -58.1270 C.3    47  VAL47       0.1596
     27  C        -11.8090   -9.7270  -59.3840 C.2    47  VAL47       0.2287
     28  O        -12.3200  -10.1270  -60.4320 O.2    47  VAL47      -0.2864
     29  CB       -12.3490   -8.1450  -57.5100 C.3    47  VAL47       0.0276
     30  CG1      -11.2120   -8.2420  -56.5660 C.3    47  VAL47       0.0022
     31  CG2      -12.0150   -7.1530  -58.5860 C.3    47  VAL47       0.0022
     32  N        -12.3470  -14.8110  -50.8850 N.3    50  PHE50      -0.1241
     33  CA       -10.9110  -14.7180  -50.7330 C.3    50  PHE50       0.1605
     34  C        -10.5590  -14.4690  -49.2860 C.2    50  PHE50       0.2264
     35  O        -11.2980  -13.8360  -48.5460 O.2    50  PHE50      -0.2867
     36  CB       -10.3300  -13.6020  -51.6000 C.3    50  PHE50       0.0534
     37  CG        -9.6530  -14.1040  -52.8450 C.ar   50  PHE50      -0.0203
     38  CD1      -10.3690  -14.2440  -54.0350 C.ar   50  PHE50      -0.0042
     39  CD2       -8.3200  -14.4660  -52.8230 C.ar   50  PHE50      -0.0042
     40  CE1       -9.7500  -14.7150  -55.1890 C.ar   50  PHE50      -0.0003
     41  CE2       -7.7010  -14.9630  -53.9620 C.ar   50  PHE50      -0.0003
     42  CZ        -8.4220  -15.0890  -55.1460 C.ar   50  PHE50      -0.0000
     43  N         -7.3310  -12.6660  -47.5340 N.3    52  ASN52      -0.1240
     44  CA        -6.1230  -11.9100  -47.8190 C.3    52  ASN52       0.1653
     45  C         -5.4760  -11.4390  -46.5410 C.2    52  ASN52       0.2266
     46  O         -6.1330  -11.2580  -45.5070 O.2    52  ASN52      -0.2867
     47  CB        -6.4120  -10.6980  -48.7010 C.3    52  ASN52       0.1155
     48  CG        -6.6820  -11.0770  -50.1690 C.2    52  ASN52       0.2627
     49  OD1       -7.8230  -11.2310  -50.5780 O.2    52  ASN52      -0.2716
     50  ND2       -5.6130  -11.2280  -50.9550 N.am   52  ASN52      -0.0877
     51  N         -6.1850  -22.0620  -57.6100 N.3    78  ARG78      -0.1245
     52  CA        -5.7830  -20.8570  -56.8870 C.3    78  ARG78       0.1563
     53  C         -5.3460  -21.1510  -55.4580 C.2    78  ARG78       0.2260
     54  O         -5.8850  -20.5710  -54.5050 O.2    78  ARG78      -0.2867
     55  CB        -6.9220  -19.8300  -56.8610 C.3    78  ARG78       0.0307
     56  CG        -6.4570  -18.4040  -57.1480 C.3    78  ARG78       0.0489
     57  CD        -5.1250  -18.0820  -56.4750 C.3    78  ARG78       0.2205
     58  NE        -4.1790  -17.5270  -57.4440 N.pl3  78  ARG78      -0.0865
     59  CZ        -4.1160  -16.2380  -57.7900 C.cat  78  ARG78       0.5346
     60  NH1       -4.9400  -15.3510  -57.2310 N.pl3  78  ARG78       0.1354
     61  NH2       -3.2180  -15.8380  -58.6890 N.pl3  78  ARG78       0.1354
     62  N         -1.4990  -16.8490  -53.8890 N.3    81  ASP81      -0.1239
     63  CA        -0.8780  -15.7810  -54.6660 C.3    81  ASP81       0.1674
     64  C         -0.0260  -14.9270  -53.7100 C.2    81  ASP81       0.2266
     65  O         -0.5520  -14.3120  -52.7700 O.2    81  ASP81      -0.2867
     66  CB        -1.9540  -14.9020  -55.3230 C.3    81  ASP81       0.1410
     67  CG        -1.3800  -13.9650  -56.3640 C.2    81  ASP81       0.3668
     68  OD1       -0.2240  -14.2010  -56.7520 O.co2  81  ASP81      -0.2456
     69  OD2       -2.0540  -13.0000  -56.8060 O.co2  81  ASP81      -0.2456
     70  N          2.1770  -11.6480  -53.6910 N.3    83  ASP83      -0.1239
     71  CA         2.5080  -10.4640  -54.4630 C.3    83  ASP83       0.1674
     72  C          3.3560   -9.4450  -53.7240 C.2    83  ASP83       0.2266
     73  O          3.1260   -9.1350  -52.5350 O.2    83  ASP83      -0.2867
     74  CB         1.2300   -9.8150  -54.9800 C.3    83  ASP83       0.1410
     75  CG         0.4920  -10.7200  -55.9360 C.2    83  ASP83       0.3668
     76  OD1        1.0760  -11.7560  -56.3030 O.co2  83  ASP83      -0.2456
     77  OD2       -0.6580  -10.4280  -56.2790 O.co2  83  ASP83      -0.2456
     78  N         -7.3300   -2.0360  -54.8950 N.3   107  ARG107     -0.1245
     79  CA        -7.7620   -3.2610  -54.2550 C.3   107  ARG107      0.1563
     80  C         -7.7010   -3.0770  -52.7430 C.2   107  ARG107      0.2260
     81  O         -6.6180   -3.0890  -52.1540 O.2   107  ARG107     -0.2867
     82  CB        -6.8550   -4.4250  -54.6860 C.3   107  ARG107      0.0307
     83  CG        -6.8950   -4.8070  -56.1770 C.3   107  ARG107      0.0489
     84  CD        -5.6810   -5.6930  -56.5230 C.3   107  ARG107      0.2205
     85  NE        -5.7610   -6.3050  -57.8500 N.pl3 107  ARG107     -0.0865
     86  CZ        -4.9340   -7.2530  -58.2970 C.cat 107  ARG107      0.5346
     87  NH1       -3.9800   -7.7380  -57.5170 N.pl3 107  ARG107      0.1354
     88  NH2       -5.0900   -7.7560  -59.5200 N.pl3 107  ARG107      0.1354
     89  N         -8.3880   -5.1040  -50.5800 N.3   109  PHE109     -0.1241
     90  CA        -7.8330   -6.3090  -50.0220 C.3   109  PHE109      0.1605
     91  C         -6.3080   -6.3130  -50.0730 C.2   109  PHE109      0.2264
     92  O         -5.6730   -7.1200  -49.4110 O.2   109  PHE109     -0.2867
     93  CB        -8.4300   -7.5520  -50.6920 C.3   109  PHE109      0.0534
     94  CG        -8.0830   -7.7060  -52.1580 C.ar  109  PHE109     -0.0203
     95  CD1       -6.8020   -8.0420  -52.5550 C.ar  109  PHE109     -0.0042
     96  CD2       -9.0650   -7.5830  -53.1250 C.ar  109  PHE109     -0.0042
     97  CE1       -6.5020   -8.2250  -53.9120 C.ar  109  PHE109     -0.0003
     98  CE2       -8.7780   -7.7640  -54.4710 C.ar  109  PHE109     -0.0003
     99  CZ        -7.4970   -8.0780  -54.8630 C.ar  109  PHE109     -0.0000
@<TRIPOS>BOND
     1    28    27    2
     2    88    86    1
     3    27    26    1
     4    61    59    1
     5    31    29    1
     6    86    85    2
     7    86    87    1
     8    26    29    1
     9    26    25    1
    10    85    84    1
    11    59    58    2
    12    59    60    1
    13    51    52    1
    14    29    30    1
    15    58    57    1
    16    25    22   am
    17    56    55    1
    18    56    57    1
    19    52    55    1
    20    52    53    1
    21    69    67   ar
    22    68    67   ar
    23    23    22    2
    24    22    21    1
    25    84    83    1
    26    24    21    1
    27    67    66    1
    28    76    75   ar
    29    77    75   ar
    30    83    82    1
    31    75    74    1
    32    21    20    1
    33    53    54    2
    34    66    63    1
    35    40    42   ar
    36    40    38   ar
    37    42    41   ar
    38    74    71    1
    39    78    79    1
    40    99    98   ar
    41    99    97   ar
    42    82    79    1
    43    63    62    1
    44    63    64    1
    45    20    13   am
    46    98    96   ar
    47    71    72    1
    48    71    70    1
    49    79    80    1
    50    38    37   ar
    51    14    13    2
    52    41    39   ar
    53    97    95   ar
    54    13    12    1
    55    72    73    2
    56    64    65    2
    57    15    12    1
    58    15    16    1
    59    96    94   ar
    60    37    39   ar
    61    37    36    1
    62    12    11    1
    63    80    81    2
    64    95    94   ar
    65    16    17    1
    66    94    93    1
    67    17    18    1
    68     4     3    2
    69    36    33    1
    70    11     7   am
    71     3     2    1
    72     8     7    2
    73     2     1    1
    74     7     6    1
    75    50    48   am
    76    32    33    1
    77    19    18    1
    78    10     9    1
    79    33    34    1
    80    93    90    1
    81    89    90    1
    82    49    48    2
    83     9     6    1
    84    48    47    1
    85    91    90    1
    86    91    92    2
    87     6     5    1
    88    34    35    2
    89    47    44    1
    90    44    43    1
    91    44    45    1
    92    45    46    2
