@<TRIPOS>MOLECULE
tmp/3mcoB02.pdb
 148 141 0 0 0
SMALL
GASTEIGER

@<TRIPOS>ATOM
      1  N         11.0450  -12.0510  -56.2890 N.3    67  LEU67      -0.1245
      2  CA        10.0240  -12.6330  -57.1510 C.3    67  LEU67       0.1561
      3  C         10.2870  -14.1200  -57.4050 C.2    67  LEU67       0.2260
      4  O          9.4080  -14.9500  -57.1920 O.2    67  LEU67      -0.2867
      5  CB         9.8990  -11.8730  -58.4730 C.3    67  LEU67       0.0270
      6  CG         8.8640  -12.4210  -59.4710 C.3    67  LEU67       0.0019
      7  CD1        7.4660  -12.4040  -58.8920 C.3    67  LEU67       0.0001
      8  CD2        8.9280  -11.6390  -60.7670 C.3    67  LEU67       0.0001
      9  N          7.6170  -17.1310  -56.4710 N.3    71  LYS71      -0.1245
     10  CA         7.0650  -18.0650  -57.4410 C.3    71  LYS71       0.1561
     11  C          7.3220  -19.5130  -57.0350 C.2    71  LYS71       0.2260
     12  O          6.4230  -20.3550  -57.1430 O.2    71  LYS71      -0.2867
     13  CB         7.5660  -17.7640  -58.8520 C.3    71  LYS71       0.0271
     14  CG         6.9610  -16.4800  -59.3950 C.3    71  LYS71       0.0035
     15  CD         5.4820  -16.3820  -59.0150 C.3    71  LYS71       0.0206
     16  CE         4.8050  -15.1860  -59.6630 C.3    71  LYS71       0.1093
     17  NZ         3.3160  -15.3160  -59.6580 N.3    71  LYS71      -0.1314
     18  N          4.9060  -20.3180  -54.2280 N.3    74  GLU74      -0.1245
     19  CA         3.6020  -20.5830  -54.8320 C.3    74  GLU74       0.1567
     20  C          3.4940  -22.0010  -55.3950 C.2    74  GLU74       0.2260
     21  O          2.4260  -22.6240  -55.3200 O.2    74  GLU74      -0.2867
     22  CB         3.2910  -19.5790  -55.9360 C.3    74  GLU74       0.0388
     23  CG         2.9210  -18.1780  -55.4460 C.3    74  GLU74       0.1160
     24  CD         2.7560  -17.2160  -56.5950 C.2    74  GLU74       0.3649
     25  OE1        2.2050  -16.1080  -56.3930 O.co2  74  GLU74      -0.2457
     26  OE2        3.1770  -17.5770  -57.7140 O.co2  74  GLU74      -0.2457
     27  N         -6.1850  -22.0620  -57.6100 N.3    78  ARG78      -0.1245
     28  CA        -5.7830  -20.8570  -56.8870 C.3    78  ARG78       0.1563
     29  C         -5.3460  -21.1510  -55.4580 C.2    78  ARG78       0.2260
     30  O         -5.8850  -20.5710  -54.5050 O.2    78  ARG78      -0.2867
     31  CB        -6.9220  -19.8300  -56.8610 C.3    78  ARG78       0.0307
     32  CG        -6.4570  -18.4040  -57.1480 C.3    78  ARG78       0.0489
     33  CD        -5.1250  -18.0820  -56.4750 C.3    78  ARG78       0.2205
     34  NE        -4.1790  -17.5270  -57.4440 N.pl3  78  ARG78      -0.0865
     35  CZ        -4.1160  -16.2380  -57.7900 C.cat  78  ARG78       0.5346
     36  NH1       -4.9400  -15.3510  -57.2310 N.pl3  78  ARG78       0.1354
     37  NH2       -3.2180  -15.8380  -58.6890 N.pl3  78  ARG78       0.1354
     38  N         -1.4990  -16.8490  -53.8890 N.3    81  ASP81      -0.1225
     39  CA        -0.8780  -15.7810  -54.6660 C.3    81  ASP81       0.1805
     40  C         -0.0260  -14.9270  -53.7100 C.2    81  ASP81       0.2598
     41  O         -0.5520  -14.3120  -52.7700 O.2    81  ASP81      -0.2718
     42  CB        -1.9540  -14.9020  -55.3230 C.3    81  ASP81       0.1424
     43  CG        -1.3800  -13.9650  -56.3640 C.2    81  ASP81       0.3668
     44  OD1       -0.2240  -14.2010  -56.7520 O.co2  81  ASP81      -0.2456
     45  OD2       -2.0540  -13.0000  -56.8060 O.co2  81  ASP81      -0.2456
     46  N          1.2850  -14.9130  -53.9270 N.am   82  LEU82      -0.1966
     47  CA         2.1570  -14.0030  -53.1810 C.3    82  LEU82       0.1728
     48  C          2.6100  -12.8490  -54.0640 C.2    82  LEU82       0.2616
     49  O          3.3370  -13.0320  -55.0450 O.2    82  LEU82      -0.2715
     50  CB         3.3730  -14.7280  -52.6000 C.3    82  LEU82       0.0311
     51  CG         3.0580  -16.0090  -51.8210 C.3    82  LEU82       0.0022
     52  CD1        4.2990  -16.8130  -51.5390 C.3    82  LEU82       0.0001
     53  CD2        2.3700  -15.6570  -50.5600 C.3    82  LEU82       0.0001
     54  N          2.1770  -11.6480  -53.6910 N.am   83  ASP83      -0.1957
     55  CA         2.5080  -10.4640  -54.4630 C.3    83  ASP83       0.1840
     56  C          3.3560   -9.4450  -53.7240 C.2    83  ASP83       0.2621
     57  O          3.1260   -9.1350  -52.5350 O.2    83  ASP83      -0.2715
     58  CB         1.2300   -9.8150  -54.9800 C.3    83  ASP83       0.1450
     59  CG         0.4920  -10.7200  -55.9360 C.2    83  ASP83       0.3671
     60  OD1        1.0760  -11.7560  -56.3030 O.co2  83  ASP83      -0.2456
     61  OD2       -0.6580  -10.4280  -56.2790 O.co2  83  ASP83      -0.2456
     62  N          4.3240   -8.9020  -54.4490 N.am   84  ILE84      -0.1977
     63  CA         5.1540   -7.8610  -53.9060 C.3    84  ILE84       0.1596
     64  C          4.3820   -6.5690  -54.0190 C.2    84  ILE84       0.2287
     65  O          4.3560   -5.9230  -55.0710 O.2    84  ILE84      -0.2864
     66  CB         6.4990   -7.7440  -54.6340 C.3    84  ILE84       0.0276
     67  CG1        7.1640   -9.1200  -54.7200 C.3    84  ILE84       0.0022
     68  CG2        7.3900   -6.6900  -53.9200 C.3    84  ILE84       0.0022
     69  CD1        8.5570   -9.1140  -55.3600 C.3    84  ILE84       0.0001
     70  N          9.3800   -5.1660  -67.0620 N.3    95  ASP95      -0.1225
     71  CA         8.5680   -6.1120  -67.7930 C.3    95  ASP95       0.1805
     72  C          7.8890   -7.0950  -66.8470 C.2    95  ASP95       0.2598
     73  O          6.6560   -7.2210  -66.8200 O.2    95  ASP95      -0.2718
     74  CB         9.4710   -6.8510  -68.7730 C.3    95  ASP95       0.1424
     75  CG         8.7840   -7.1430  -70.0630 C.2    95  ASP95       0.3668
     76  OD1        7.5350   -7.2590  -70.0310 O.co2  95  ASP95      -0.2456
     77  OD2        9.4880   -7.2530  -71.0980 O.co2  95  ASP95      -0.2456
     78  N          8.6910   -7.7800  -66.0530 N.am   96  LYS96      -0.1966
     79  CA         8.1570   -8.8240  -65.1910 C.3    96  LYS96       0.1728
     80  C          7.9470   -8.3610  -63.7500 C.2    96  LYS96       0.2616
     81  O          7.7940   -9.1790  -62.8510 O.2    96  LYS96      -0.2715
     82  CB         9.0570  -10.0670  -65.2330 C.3    96  LYS96       0.0311
     83  CG        10.5460   -9.7760  -65.0760 C.3    96  LYS96       0.0038
     84  CD        11.3520  -11.0190  -64.6910 C.3    96  LYS96       0.0206
     85  CE        12.8590  -10.7280  -64.6740 C.3    96  LYS96       0.1093
     86  NZ        13.6730  -11.9150  -64.2220 N.3    96  LYS96      -0.1314
     87  N          7.9260   -7.0560  -63.5150 N.am   97  LEU97      -0.1963
     88  CA         7.8620   -6.6110  -62.1280 C.3    97  LEU97       0.1728
     89  C          7.5830   -5.1120  -62.1160 C.2    97  LEU97       0.2617
     90  O          8.3830   -4.3320  -62.6330 O.2    97  LEU97      -0.2715
     91  CB         9.1260   -7.0560  -61.3900 C.3    97  LEU97       0.0311
     92  CG         9.0580   -7.0460  -59.8650 C.3    97  LEU97       0.0022
     93  CD1        7.7730   -7.6750  -59.3670 C.3    97  LEU97       0.0001
     94  CD2       10.2560   -7.7600  -59.2740 C.3    97  LEU97       0.0001
     95  N          6.4450   -4.7120  -61.5480 N.am   98  THR98      -0.1937
     96  CA         6.2440   -3.3240  -61.1300 C.3    98  THR98       0.2028
     97  C          5.9930   -3.1990  -59.6290 C.2    98  THR98       0.2642
     98  O          5.1670   -3.8990  -59.0670 O.2    98  THR98      -0.2714
     99  CB         5.1920   -2.5360  -61.9580 C.3    98  THR98       0.1808
    100  OG1        3.8870   -2.6520  -61.3760 O.3    98  THR98      -0.2208
    101  CG2        5.1810   -2.9960  -63.4270 C.3    98  THR98       0.0379
    102  N          6.7730   -2.3300  -58.9930 N.am   99  ILE99      -0.1977
    103  CA         6.6610   -2.0510  -57.5640 C.3    99  ILE99       0.1596
    104  C          6.5680   -0.5550  -57.3650 C.2    99  ILE99       0.2287
    105  O          7.3830    0.1930  -57.9010 O.2    99  ILE99      -0.2864
    106  CB         7.8810   -2.5750  -56.7810 C.3    99  ILE99       0.0276
    107  CG1        8.0300   -4.0820  -56.9980 C.3    99  ILE99       0.0022
    108  CG2        7.7350   -2.2670  -55.2990 C.3    99  ILE99       0.0022
    109  CD1        9.2420   -4.6970  -56.3460 C.3    99  ILE99       0.0001
    110  N          2.9380   -2.6880  -56.4550 N.3   101  HIS101     -0.1226
    111  CA         2.0760   -3.4440  -57.3470 C.3   101  HIS101      0.1752
    112  C          1.0860   -2.5310  -58.0810 C.2   101  HIS101      0.2596
    113  O          0.4260   -1.6980  -57.4690 O.2   101  HIS101     -0.2718
    114  CB         1.3380   -4.5350  -56.5880 C.3   101  HIS101      0.0759
    115  CG         0.6120   -5.4760  -57.4850 C.ar  101  HIS101      0.0818
    116  ND1       -0.5840   -5.1490  -58.0800 N.ar  101  HIS101     -0.2268
    117  CD2        0.9340   -6.7140  -57.9330 C.ar  101  HIS101      0.1154
    118  CE1       -0.9850   -6.1570  -58.8340 C.ar  101  HIS101      0.1986
    119  NE2       -0.0770   -7.1150  -58.7680 N.ar  101  HIS101     -0.2212
    120  N          0.9540   -2.7190  -59.3920 N.am  102  LYS102     -0.1966
    121  CA         0.2220   -1.7590  -60.2070 C.3   102  LYS102      0.1728
    122  C         -1.2560   -1.6420  -59.8550 C.2   102  LYS102      0.2616
    123  O         -1.8920   -0.6330  -60.1600 O.2   102  LYS102     -0.2715
    124  CB         0.4230   -2.0360  -61.6990 C.3   102  LYS102      0.0311
    125  CG        -0.1680   -3.3280  -62.2120 C.3   102  LYS102      0.0038
    126  CD        -0.1200   -3.3770  -63.7550 C.3   102  LYS102      0.0206
    127  CE         1.3180   -3.3520  -64.2990 C.3   102  LYS102      0.1093
    128  NZ         1.3930   -3.2280  -65.8040 N.3   102  LYS102     -0.1314
    129  N         -1.8010   -2.6630  -59.2040 N.am  103  GLU103     -0.1977
    130  CA        -3.2020   -2.6510  -58.8040 C.3   103  GLU103      0.1602
    131  C         -3.4240   -2.2850  -57.3270 C.2   103  GLU103      0.2287
    132  O         -4.5580   -2.1960  -56.8710 O.2   103  GLU103     -0.2864
    133  CB        -3.8370   -4.0090  -59.0960 C.3   103  GLU103      0.0415
    134  CG        -4.0220   -4.2820  -60.5750 C.3   103  GLU103      0.1163
    135  CD        -4.7020   -3.1250  -61.2670 C.2   103  GLU103      0.3649
    136  OE1       -4.1610   -2.6360  -62.2880 O.co2 103  GLU103     -0.2457
    137  OE2       -5.7570   -2.6800  -60.7640 O.co2 103  GLU103     -0.2457
    138  N         -7.3300   -2.0360  -54.8950 N.3   107  ARG107     -0.1245
    139  CA        -7.7620   -3.2610  -54.2550 C.3   107  ARG107      0.1563
    140  C         -7.7010   -3.0770  -52.7430 C.2   107  ARG107      0.2260
    141  O         -6.6180   -3.0890  -52.1540 O.2   107  ARG107     -0.2867
    142  CB        -6.8550   -4.4250  -54.6860 C.3   107  ARG107      0.0307
    143  CG        -6.8950   -4.8070  -56.1770 C.3   107  ARG107      0.0489
    144  CD        -5.6810   -5.6930  -56.5230 C.3   107  ARG107      0.2205
    145  NE        -5.7610   -6.3050  -57.8500 N.pl3 107  ARG107     -0.0865
    146  CZ        -4.9340   -7.2530  -58.2970 C.cat 107  ARG107      0.5346
    147  NH1       -3.9800   -7.7380  -57.5170 N.pl3 107  ARG107      0.1354
    148  NH2       -5.0900   -7.7560  -59.5200 N.pl3 107  ARG107      0.1354
@<TRIPOS>BOND
     1    77    75   ar
     2    75    76   ar
     3    75    74    1
     4    74    71    1
     5    71    70    1
     6    71    72    1
     7    72    73    2
     8    72    78   am
     9    78    79    1
    10   128   127    1
    11    82    79    1
    12    82    83    1
    13    79    80    1
    14    83    84    1
    15    84    85    1
    16    85    86    1
    17   127   126    1
    18   126   125    1
    19    80    87   am
    20    80    81    2
    21    87    88    1
    22   101    99    1
    23    90    89    2
    24   136   135   ar
    25   125   124    1
    26    88    89    1
    27    88    91    1
    28    89    95   am
    29    99   100    1
    30    99    96    1
    31   124   121    1
    32    95    96    1
    33    91    92    1
    34   135   137   ar
    35   135   134    1
    36    96    97    1
    37     8     6    1
    38   134   133    1
    39   121   122    1
    40   121   120    1
    41   123   122    2
    42    92    93    1
    43    92    94    1
    44   122   129   am
    45    16    17    1
    46    16    15    1
    47    97    98    2
    48    97   102   am
    49   148   146    1
    50     6     7    1
    51     6     5    1
    52    14    15    1
    53    14    13    1
    54   120   112   am
    55   129   130    1
    56   133   130    1
    57   102   103    1
    58    13    10    1
    59   118   119   ar
    60   118   116   ar
    61   130   131    1
    62   119   117   ar
    63    37    35    1
    64     5     2    1
    65   146   145    2
    66   146   147    1
    67   112   113    2
    68   112   111    1
    69   116   115   ar
    70   117   115   ar
    71   105   104    2
    72   145   144    1
    73    35    34    2
    74    35    36    1
    75    26    24   ar
    76    27    28    1
    77   103   104    1
    78   103   106    1
    79   115   114    1
    80    34    33    1
    81    10    11    1
    82    10     9    1
    83     3     4    2
    84     3     2    1
    85   111   114    1
    86   111   110    1
    87   131   132    2
    88     2     1    1
    89    32    31    1
    90    32    33    1
    91    12    11    2
    92   107   106    1
    93   107   109    1
    94    28    31    1
    95    28    29    1
    96    45    43   ar
    97   106   108    1
    98    44    43   ar
    99    24    25   ar
   100    24    23    1
   101   144   143    1
   102    43    42    1
   103    60    59   ar
   104    61    59   ar
   105   143   142    1
   106    59    58    1
   107    22    23    1
   108    22    19    1
   109    29    30    2
   110    20    21    2
   111    20    19    1
   112    69    67    1
   113    42    39    1
   114    65    64    2
   115    49    48    2
   116    58    55    1
   117   138   139    1
   118    19    18    1
   119    67    66    1
   120   142   139    1
   121    39    38    1
   122    39    40    1
   123    66    68    1
   124    66    63    1
   125    55    56    1
   126    55    54    1
   127    62    63    1
   128    62    56   am
   129   139   140    1
   130    48    54   am
   131    48    47    1
   132    64    63    1
   133    46    40   am
   134    46    47    1
   135    56    57    2
   136    40    41    2
   137    47    50    1
   138   140   141    2
   139    50    51    1
   140    51    52    1
   141    51    53    1
