@<TRIPOS>MOLECULE
tmp/3mcqA04.pdb
 107 100 0 0 0
SMALL
GASTEIGER

@<TRIPOS>ATOM
      1  N         19.3860    4.6440   49.2060 N.3    37  LEU37      -0.1245
      2  CA        18.3730    5.1650   48.3300 C.3    37  LEU37       0.1561
      3  C         17.0440    4.4730   48.6740 C.2    37  LEU37       0.2260
      4  O         16.9630    3.2280   48.6300 O.2    37  LEU37      -0.2867
      5  CB        18.7670    4.8990   46.8730 C.3    37  LEU37       0.0270
      6  CG        20.0510    5.5990   46.3910 C.3    37  LEU37       0.0019
      7  CD1       20.6320    4.9350   45.1050 C.3    37  LEU37       0.0001
      8  CD2       19.7710    7.1010   46.2070 C.3    37  LEU37       0.0001
      9  N          9.7430    4.3640   40.9980 N.3    45  PRO45      -0.2116
     10  CA        10.6050    4.0560   39.8550 C.3    45  PRO45       0.1372
     11  C         10.1300    2.8520   39.0090 C.2    45  PRO45       0.2244
     12  O         10.8060    1.8300   38.9500 O.2    45  PRO45      -0.2868
     13  CB        11.9740    3.8090   40.5010 C.3    45  PRO45       0.0268
     14  CG        11.6770    3.4000   41.8950 C.3    45  PRO45       0.0207
     15  CD        10.4640    4.1880   42.2850 C.3    45  PRO45       0.0892
     16  N         10.4040    2.0500   35.9650 N.3    47  ILE47      -0.1245
     17  CA        11.2580    2.3890   34.8330 C.3    47  ILE47       0.1561
     18  C         12.2100    1.2360   34.6640 C.2    47  ILE47       0.2260
     19  O         12.1920    0.3140   35.4780 O.2    47  ILE47      -0.2867
     20  CB        12.0530    3.6990   35.0450 C.3    47  ILE47       0.0252
     21  CG1       13.0660    3.5450   36.1970 C.3    47  ILE47       0.0019
     22  CG2       11.0870    4.8610   35.2930 C.3    47  ILE47       0.0019
     23  CD1       13.6550    4.8260   36.6770 C.3    47  ILE47       0.0001
     24  N         18.6370    1.0320   34.2020 N.3    51  LEU51      -0.1231
     25  CA        18.9720    2.4360   34.5230 C.3    51  LEU51       0.1693
     26  C         19.0360    2.7020   36.0360 C.2    51  LEU51       0.2591
     27  O         19.8570    3.4910   36.5090 O.2    51  LEU51      -0.2718
     28  CB        17.9610    3.3870   33.8750 C.3    51  LEU51       0.0284
     29  CG        17.9770    3.4630   32.3590 C.3    51  LEU51       0.0019
     30  CD1       16.7460    4.2720   31.8100 C.3    51  LEU51       0.0001
     31  CD2       19.3250    4.0310   31.8810 C.3    51  LEU51       0.0001
     32  N         18.1740    2.0280   36.7960 N.am   52  ILE52      -0.1980
     33  CA        18.1780    2.1300   38.2520 C.3    52  ILE52       0.1595
     34  C         19.5260    1.6080   38.7800 C.2    52  ILE52       0.2287
     35  O         20.1800    2.2470   39.6040 O.2    52  ILE52      -0.2864
     36  CB        17.0020    1.3540   38.9100 C.3    52  ILE52       0.0276
     37  CG1       15.6360    1.8750   38.4040 C.3    52  ILE52       0.0022
     38  CG2       17.0990    1.4050   40.4780 C.3    52  ILE52       0.0022
     39  CD1       14.4250    1.0540   38.9210 C.3    52  ILE52       0.0001
     40  N         22.5690    4.0840   37.5500 N.3    55  LYS55      -0.1231
     41  CA        22.6070    5.3860   38.2470 C.3    55  LYS55       0.1693
     42  C         22.8080    5.2150   39.7700 C.2    55  LYS55       0.2592
     43  O         23.4450    6.0570   40.3850 O.2    55  LYS55      -0.2718
     44  CB        21.3480    6.2130   37.9290 C.3    55  LYS55       0.0285
     45  CG        21.2850    7.5460   38.6380 C.3    55  LYS55       0.0035
     46  CD        20.2600    8.5210   38.0490 C.3    55  LYS55       0.0206
     47  CE        20.1180    9.7720   38.9600 C.3    55  LYS55       0.1093
     48  NZ        19.0720   10.7010   38.3540 N.3    55  LYS55      -0.1314
     49  N         22.3240    4.1170   40.3520 N.am   56  SER56      -0.1952
     50  CA        22.5820    3.8380   41.7670 C.3    56  SER56       0.1924
     51  C         24.0760    3.8230   42.0800 C.2    56  SER56       0.2314
     52  O         24.4680    4.3580   43.0970 O.2    56  SER56      -0.2863
     53  CB        21.9430    2.5030   42.2150 C.3    56  SER56       0.2116
     54  OG        20.5280    2.6270   42.1550 O.3    56  SER56      -0.2180
     55  N         25.9060    7.6490   41.2020 N.3    59  VAL59      -0.1245
     56  CA        25.7830    8.7660   42.1820 C.3    59  VAL59       0.1561
     57  C         26.7470    8.5740   43.3640 C.2    59  VAL59       0.2260
     58  O         27.2180    9.5400   43.9420 O.2    59  VAL59      -0.2867
     59  CB        24.3460    9.0040   42.6690 C.3    59  VAL59       0.0252
     60  CG1       23.4210    9.2950   41.4490 C.3    59  VAL59       0.0019
     61  CG2       23.8170    7.8610   43.5620 C.3    59  VAL59       0.0019
     62  N         18.1400    0.6340   48.4350 N.3   116  ILE116     -0.1245
     63  CA        19.4220    0.2460   47.8160 C.3   116  ILE116      0.1561
     64  C         20.5560    0.9240   48.5750 C.2   116  ILE116      0.2260
     65  O         20.5470    2.1420   48.6690 O.2   116  ILE116     -0.2867
     66  CB        19.4660    0.7070   46.3170 C.3   116  ILE116      0.0252
     67  CG1       18.2950    0.1100   45.5020 C.3   116  ILE116      0.0019
     68  CG2       20.8580    0.4190   45.6200 C.3   116  ILE116      0.0019
     69  CD1       17.9520    1.0020   44.2080 C.3   116  ILE116      0.0001
     70  N         19.5230   13.0960   33.1970 N.3   174  LEU174     -0.1231
     71  CA        18.6940   12.4650   34.2490 C.3   174  LEU174      0.1693
     72  C         19.0390   11.0030   34.4690 C.2   174  LEU174      0.2592
     73  O         19.2700   10.5740   35.5810 O.2   174  LEU174     -0.2718
     74  CB        17.1970   12.5620   33.9080 C.3   174  LEU174      0.0284
     75  CG        16.1740   12.0580   34.9290 C.3   174  LEU174      0.0019
     76  CD1       16.3360   12.7230   36.2920 C.3   174  LEU174      0.0001
     77  CD2       14.7770   12.3110   34.3870 C.3   174  LEU174      0.0001
     78  N         19.0640   10.2450   33.3870 N.am  175  HIS175     -0.1976
     79  CA        19.1740    8.8130   33.4830 C.3   175  HIS175      0.1656
     80  C         20.6180    8.3150   33.6380 C.2   175  HIS175      0.2291
     81  O         20.8220    7.2930   34.3220 O.2   175  HIS175     -0.2864
     82  CB        18.4550    8.1630   32.2920 C.3   175  HIS175      0.0771
     83  CG        16.9890    8.4970   32.2340 C.ar  175  HIS175      0.0820
     84  ND1       16.1550    8.4040   33.3400 N.ar  175  HIS175     -0.2267
     85  CD2       16.2070    8.9180   31.2090 C.ar  175  HIS175      0.1154
     86  CE1       14.9300    8.7690   32.9980 C.ar  175  HIS175      0.1986
     87  NE2       14.9340    9.0810   31.7120 N.ar  175  HIS175     -0.2212
     88  N         20.0540   16.4360   41.0600 N.3   246  ASP246     -0.1239
     89  CA        20.5670   15.3440   40.2340 C.3   246  ASP246      0.1674
     90  C         21.4900   15.7490   39.0560 C.2   246  ASP246      0.2266
     91  O         21.6190   15.0160   38.0940 O.2   246  ASP246     -0.2867
     92  CB        19.4020   14.4340   39.7470 C.3   246  ASP246      0.1410
     93  CG        19.0410   13.3630   40.7340 C.2   246  ASP246      0.3668
     94  OD1       19.1270   13.5810   41.9720 O.co2 246  ASP246     -0.2456
     95  OD2       18.6310   12.2960   40.2660 O.co2 246  ASP246     -0.2456
     96  N         24.9840   16.1360   39.3330 N.3   248  TYR248     -0.1241
     97  CA        26.1990   15.3080   39.5150 C.3   248  TYR248      0.1605
     98  C         27.4270   15.8710   38.7700 C.2   248  TYR248      0.2264
     99  O         28.3160   15.1350   38.3690 O.2   248  TYR248     -0.2867
    100  CB        25.9100   13.7810   39.2710 C.3   248  TYR248      0.0534
    101  CG        24.9630   13.2610   40.3340 C.ar  248  TYR248     -0.0201
    102  CD1       25.4320   13.0050   41.6060 C.ar  248  TYR248     -0.0009
    103  CD2       23.5930   13.0960   40.1040 C.ar  248  TYR248     -0.0009
    104  CE1       24.6040   12.6170   42.5990 C.ar  248  TYR248      0.0417
    105  CE2       22.7370   12.6770   41.1390 C.ar  248  TYR248      0.0417
    106  CZ        23.2480   12.4540   42.3630 C.ar  248  TYR248      0.1957
    107  OH        22.4950   12.0030   43.4350 O.3   248  TYR248     -0.2866
@<TRIPOS>BOND
     1    85    87   ar
     2    85    83   ar
     3    87    86   ar
     4    30    29    1
     5    31    29    1
     6    83    82    1
     7    83    84   ar
     8    82    79    1
     9    29    28    1
    10    86    84   ar
    11    70    71    1
    12    78    79    1
    13    78    72   am
    14    79    80    1
    15    80    81    2
    16    28    25    1
    17    74    71    1
    18    74    75    1
    19    24    25    1
    20    71    72    1
    21    77    75    1
    22    72    73    2
    23    25    26    1
    24    18    17    1
    25    18    19    2
    26    17    20    1
    27    17    16    1
    28    75    76    1
    29    20    22    1
    30    20    21    1
    31    26    27    2
    32    26    32   am
    33    21    23    1
    34    32    33    1
    35    40    41    1
    36    44    41    1
    37    44    45    1
    38    46    45    1
    39    46    47    1
    40    91    90    2
    41    41    42    1
    42    33    34    1
    43    33    36    1
    44    48    47    1
    45    99    98    2
    46    37    36    1
    47    37    39    1
    48    98    97    1
    49    34    35    2
    50    36    38    1
    51    12    11    2
    52    11    10    1
    53    90    89    1
    54   100    97    1
    55   100   101    1
    56    96    97    1
    57    92    89    1
    58    92    93    1
    59    42    49   am
    60    42    43    2
    61    10    13    1
    62    10     9    1
    63   103   101   ar
    64   103   105   ar
    65    89    88    1
    66    95    93   ar
    67   101   102   ar
    68    49    50    1
    69    13    14    1
    70    93    94   ar
    71     9    15    1
    72   105   106   ar
    73    55    56    1
    74    60    59    1
    75   102   104   ar
    76    50    51    1
    77    50    53    1
    78    14    15    1
    79    51    52    2
    80    54    53    1
    81    56    59    1
    82    56    57    1
    83   106   104   ar
    84   106   107    1
    85    59    61    1
    86    57    58    2
    87    69    67    1
    88     7     6    1
    89    67    66    1
    90    68    66    1
    91     8     6    1
    92    66    63    1
    93     6     5    1
    94     5     2    1
    95    63    62    1
    96    63    64    1
    97     2     3    1
    98     2     1    1
    99    64    65    2
   100     4     3    2
