@<TRIPOS>MOLECULE
tmp/3mcqA01.pdb
 81 74 0 0 0
SMALL
GASTEIGER

@<TRIPOS>ATOM
      1  N         24.2310   34.0230   38.0040 N.3   220  LEU220     -0.1245
      2  CA        23.4130   33.0860   37.2390 C.3   220  LEU220      0.1561
      3  C         23.8400   33.0640   35.7780 C.2   220  LEU220      0.2260
      4  O         23.8940   31.9830   35.1860 O.2   220  LEU220     -0.2867
      5  CB        21.9180   33.4420   37.3480 C.3   220  LEU220      0.0270
      6  CG        20.9110   32.6790   36.4580 C.3   220  LEU220      0.0019
      7  CD1       20.9790   31.1790   36.6950 C.3   220  LEU220      0.0001
      8  CD2       19.4920   33.1990   36.6790 C.3   220  LEU220      0.0001
      9  N         11.6420   32.0690   34.7850 N.3   236  VAL236     -0.1245
     10  CA        12.0170   31.9330   36.1930 C.3   236  VAL236      0.1561
     11  C         11.9820   30.4820   36.6450 C.2   236  VAL236      0.2260
     12  O         12.8410   30.0680   37.4280 O.2   236  VAL236     -0.2867
     13  CB        11.1880   32.8550   37.1650 C.3   236  VAL236      0.0252
     14  CG1        9.6870   32.7920   36.9030 C.3   236  VAL236      0.0019
     15  CG2       11.5010   32.5130   38.6260 C.3   236  VAL236      0.0019
     16  N         15.2590   29.1350   35.6810 N.3   239  GLN239     -0.1231
     17  CA        16.3240   29.6830   36.5580 C.3   239  GLN239      0.1698
     18  C         16.3620   28.9860   37.9430 C.2   239  GLN239      0.2592
     19  O         17.4400   28.7400   38.4910 O.2   239  GLN239     -0.2718
     20  CB        16.1850   31.2210   36.7120 C.3   239  GLN239      0.0381
     21  CG        16.2960   31.9950   35.3750 C.3   239  GLN239      0.0905
     22  CD        16.1380   33.4810   35.5470 C.2   239  GLN239      0.2608
     23  OE1       16.0680   33.9750   36.6590 O.2   239  GLN239     -0.2717
     24  NE2       16.1320   34.1990   34.4600 N.am  239  GLN239     -0.0878
     25  N         15.1860   28.6490   38.4800 N.am  240  LYS240     -0.1980
     26  CA        15.0820   27.8200   39.6960 C.3   240  LYS240      0.1596
     27  C         15.7200   26.4510   39.5190 C.2   240  LYS240      0.2287
     28  O         16.3890   25.9680   40.4180 O.2   240  LYS240     -0.2864
     29  CB        13.6260   27.6180   40.1160 C.3   240  LYS240      0.0298
     30  CG        12.9390   28.8960   40.6500 C.3   240  LYS240      0.0038
     31  CD        11.4910   28.6070   40.9940 C.3   240  LYS240      0.0206
     32  CE        10.7400   29.8610   41.3370 C.3   240  LYS240      0.1093
     33  NZ         9.6200   29.5300   42.2360 N.3   240  LYS240     -0.1314
     34  N         19.6750   26.8070   39.4270 N.3   242  LEU242     -0.1245
     35  CA        20.2180   27.1020   40.7530 C.3   242  LEU242      0.1561
     36  C         19.9650   26.0150   41.7950 C.2   242  LEU242      0.2260
     37  O         20.7980   25.8480   42.6560 O.2   242  LEU242     -0.2867
     38  CB        19.6900   28.4520   41.2640 C.3   242  LEU242      0.0270
     39  CG        20.1380   29.6650   40.4480 C.3   242  LEU242      0.0019
     40  CD1       19.4170   30.9260   40.9110 C.3   242  LEU242      0.0001
     41  CD2       21.6540   29.8720   40.5260 C.3   242  LEU242      0.0001
     42  N         22.9380   35.9200   45.1980 N.3   286  ILE286     -0.1245
     43  CA        22.7590   35.3970   43.8420 C.3   286  ILE286      0.1561
     44  C         22.3190   36.5170   42.8990 C.2   286  ILE286      0.2260
     45  O         21.2020   37.0510   43.0100 O.2   286  ILE286     -0.2867
     46  CB        21.6970   34.2960   43.7620 C.3   286  ILE286      0.0252
     47  CG1       21.9970   33.1390   44.6950 C.3   286  ILE286      0.0019
     48  CG2       21.5960   33.7580   42.3220 C.3   286  ILE286      0.0019
     49  CD1       20.7630   32.3410   44.9540 C.3   286  ILE286      0.0001
     50  N         20.8740   37.5510   39.5060 N.3   288  GLY288     -0.1225
     51  CA        20.0750   37.0710   38.3730 C.3   288  GLY288      0.1811
     52  C         20.5990   37.6020   37.0470 C.2   288  GLY288      0.2280
     53  O         21.6690   38.2260   36.9950 O.2   288  GLY288     -0.2866
     54  N         19.6820   40.0490   34.9880 N.3   290  ASP290     -0.1239
     55  CA        19.9020   41.5220   35.0440 C.3   290  ASP290      0.1674
     56  C         20.9470   42.0140   36.0950 C.2   290  ASP290      0.2266
     57  O         21.0050   43.2150   36.3770 O.2   290  ASP290     -0.2867
     58  CB        18.5590   42.2490   35.2710 C.3   290  ASP290      0.1410
     59  CG        18.0390   42.1140   36.7060 C.2   290  ASP290      0.3668
     60  OD1       17.9710   40.9740   37.2180 O.co2 290  ASP290     -0.2456
     61  OD2       17.7040   43.1440   37.3240 O.co2 290  ASP290     -0.2456
     62  N         20.9340   41.8590   39.2810 N.3   292  ALA292     -0.1231
     63  CA        20.3290   42.3280   40.5360 C.3   292  ALA292      0.1679
     64  C         20.4090   41.2250   41.6110 C.2   292  ALA292      0.2434
     65  O         19.9960   40.0930   41.3500 O.2   292  ALA292     -0.2733
     66  CB        18.8810   42.7470   40.3100 C.3   292  ALA292      0.0304
     67  N         20.9230   41.5480   42.8210 N.am  293  PRO293     -0.2718
     68  CA        21.1490   40.5020   43.8310 C.3   293  PRO293      0.1535
     69  C         19.9060   40.1280   44.6480 C.2   293  PRO293      0.2598
     70  O         18.9600   40.9150   44.7310 O.2   293  PRO293     -0.2715
     71  CB        22.1830   41.1480   44.7510 C.3   293  PRO293      0.0310
     72  CG        21.8330   42.5910   44.7140 C.3   293  PRO293      0.0237
     73  CD        21.3240   42.8760   43.3350 C.3   293  PRO293      0.0939
     74  N         19.9280   38.9290   45.2300 N.am  294  LEU294     -0.1978
     75  CA        18.9830   38.4990   46.2750 C.3   294  LEU294      0.1596
     76  C         19.7800   37.6400   47.2320 C.2   294  LEU294      0.2287
     77  O         20.7300   36.9970   46.7870 O.2   294  LEU294     -0.2864
     78  CB        17.8200   37.6910   45.6810 C.3   294  LEU294      0.0297
     79  CG        16.6560   37.2630   46.5960 C.3   294  LEU294      0.0022
     80  CD1       15.7490   38.4550   46.9300 C.3   294  LEU294      0.0001
     81  CD2       15.8500   36.1320   45.9570 C.3   294  LEU294      0.0001
@<TRIPOS>BOND
     1    24    22   am
     2     9    10    1
     3    54    55    1
     4    55    58    1
     5    55    56    1
     6     4     3    2
     7    58    59    1
     8    21    22    1
     9    21    20    1
    10    22    23    2
    11    16    17    1
    12     3     2    1
    13    56    57    2
    14    10    11    1
    15    10    13    1
    16     6     8    1
    17     6     7    1
    18     6     5    1
    19    17    20    1
    20    17    18    1
    21    11    12    2
    22    59    60   ar
    23    59    61   ar
    24    14    13    1
    25    53    52    2
    26    52    51    1
    27    13    15    1
    28     2     5    1
    29     2     1    1
    30    18    25   am
    31    18    19    2
    32    51    50    1
    33    25    26    1
    34    62    63    1
    35    34    35    1
    36    27    26    1
    37    27    28    2
    38    26    29    1
    39    29    30    1
    40    66    63    1
    41    39    41    1
    42    39    40    1
    43    39    38    1
    44    63    64    1
    45    30    31    1
    46    35    38    1
    47    35    36    1
    48    31    32    1
    49    32    33    1
    50    65    64    2
    51    64    67   am
    52    36    37    2
    53    48    46    1
    54    67    73    1
    55    67    68    1
    56    44    45    2
    57    44    43    1
    58    73    72    1
    59    46    43    1
    60    46    47    1
    61    68    69    1
    62    68    71    1
    63    43    42    1
    64    69    70    2
    65    69    74   am
    66    47    49    1
    67    72    71    1
    68    74    75    1
    69    78    75    1
    70    78    79    1
    71    81    79    1
    72    75    76    1
    73    79    80    1
    74    77    76    2
