@<TRIPOS>MOLECULE
tmp/3mctA01.pdb
 97 94 0 0 0
SMALL
GASTEIGER

@<TRIPOS>ATOM
      1  N         23.4950   19.4030   20.8380 N.3    22  TYR22      -0.1241
      2  CA        22.7860   18.4590   21.6790 C.3    22  TYR22       0.1605
      3  C         23.7310   17.5100   22.4210 C.2    22  TYR22       0.2264
      4  O         24.6000   16.8860   21.8170 O.2    22  TYR22      -0.2867
      5  CB        21.8110   17.6490   20.8280 C.3    22  TYR22       0.0534
      6  CG        21.1410   16.5440   21.5850 C.ar   22  TYR22      -0.0201
      7  CD1       20.1160   16.8200   22.4880 C.ar   22  TYR22      -0.0009
      8  CD2       21.5450   15.2290   21.4260 C.ar   22  TYR22      -0.0009
      9  CE1       19.5170   15.8130   23.2150 C.ar   22  TYR22       0.0417
     10  CE2       20.9520   14.2080   22.1500 C.ar   22  TYR22       0.0417
     11  CZ        19.9360   14.5110   23.0470 C.ar   22  TYR22       0.1957
     12  OH        19.3600   13.5150   23.7970 O.3    22  TYR22      -0.2866
     13  N         19.4680   12.9970   28.0780 N.3    27  ALA27      -0.1245
     14  CA        18.3980   12.0030   28.0110 C.3    27  ALA27       0.1562
     15  C         18.2670   11.2170   29.3080 C.2    27  ALA27       0.2260
     16  O         17.2370   10.5950   29.5630 O.2    27  ALA27      -0.2867
     17  CB        18.6360   11.0570   26.8570 C.3    27  ALA27       0.0290
     18  N         15.0950   12.8530   14.7370 N.3   174  PHE174     -0.1241
     19  CA        16.4460   13.2980   15.0570 C.3   174  PHE174      0.1605
     20  C         17.3600   13.0970   13.8530 C.2   174  PHE174      0.2264
     21  O         17.3060   12.0580   13.2020 O.2   174  PHE174     -0.2867
     22  CB        16.9430   12.5680   16.2980 C.3   174  PHE174      0.0534
     23  CG        16.0290   12.7370   17.4710 C.ar  174  PHE174     -0.0203
     24  CD1       15.5560   14.0120   17.8070 C.ar  174  PHE174     -0.0042
     25  CD2       15.5780   11.6370   18.1910 C.ar  174  PHE174     -0.0042
     26  CE1       14.6570   14.1960   18.8340 C.ar  174  PHE174     -0.0003
     27  CE2       14.6700   11.8020   19.2330 C.ar  174  PHE174     -0.0003
     28  CZ        14.2060   13.0910   19.5530 C.ar  174  PHE174     -0.0000
     29  N         20.4860   12.2130   13.2660 N.3   176  ASP176     -0.1225
     30  CA        21.2370   10.9670   13.1540 C.3   176  ASP176      0.1805
     31  C         20.3520    9.7530   12.8690 C.2   176  ASP176      0.2597
     32  O         20.8400    8.6350   12.7080 O.2   176  ASP176     -0.2718
     33  CB        22.1300   10.7430   14.3900 C.3   176  ASP176      0.1424
     34  CG        21.3610   10.8110   15.7210 C.2   176  ASP176      0.3668
     35  OD1       20.1860   11.2630   15.7530 O.co2 176  ASP176     -0.2456
     36  OD2       21.9640   10.4190   16.7540 O.co2 176  ASP176     -0.2456
     37  N         19.0490    9.9890   12.7860 N.am  177  GLN177     -0.1979
     38  CA        18.0850    8.9400   12.5070 C.3   177  GLN177      0.1601
     39  C         17.2090    9.3730   11.3450 C.2   177  GLN177      0.2287
     40  O         16.0160    9.0650   11.3050 O.2   177  GLN177     -0.2864
     41  CB        17.1980    8.7010   13.7190 C.3   177  GLN177      0.0394
     42  CG        17.8140    7.8950   14.8150 C.3   177  GLN177      0.0908
     43  CD        16.9280    7.8780   16.0380 C.2   177  GLN177      0.2608
     44  OE1       17.3410    8.3000   17.1170 O.2   177  GLN177     -0.2717
     45  NE2       15.6900    7.4240   15.8730 N.am  177  GLN177     -0.0878
     46  N         13.6620   17.6350   28.2890 N.3   198  TYR198     -0.1227
     47  CA        14.4180   17.7260   27.0440 C.3   198  TYR198      0.1736
     48  C         13.6260   17.3770   25.7910 C.2   198  TYR198      0.2596
     49  O         14.2010   17.0330   24.7550 O.2   198  TYR198     -0.2718
     50  CB        15.6760   16.8620   27.1530 C.3   198  TYR198      0.0548
     51  CG        16.6420   17.5090   28.0760 C.ar  198  TYR198     -0.0200
     52  CD1       17.3400   18.6470   27.6740 C.ar  198  TYR198     -0.0009
     53  CD2       16.7570   17.0790   29.3910 C.ar  198  TYR198     -0.0009
     54  CE1       18.1100   19.3470   28.5530 C.ar  198  TYR198      0.0417
     55  CE2       17.5330   17.7720   30.2920 C.ar  198  TYR198      0.0417
     56  CZ        18.2040   18.9070   29.8730 C.ar  198  TYR198      0.1957
     57  OH        18.9600   19.6180   30.7730 O.3   198  TYR198     -0.2866
     58  N         12.3150   17.5420   25.8710 N.am  199  SER199     -0.1938
     59  CA        11.4460   17.2320   24.7530 C.3   199  SER199      0.2055
     60  C         11.5820   18.2450   23.6170 C.2   199  SER199      0.2642
     61  O         11.6900   19.4550   23.8580 O.2   199  SER199     -0.2714
     62  CB         9.9970   17.1910   25.2120 C.3   199  SER199      0.2130
     63  OG         9.1440   16.7980   24.1590 O.3   199  SER199     -0.2179
     64  N         11.5930   17.7320   22.3820 N.am  200  ALA200     -0.1977
     65  CA        11.6710   18.5660   21.1760 C.3   200  ALA200      0.1597
     66  C         10.3040   18.6630   20.5070 C.2   200  ALA200      0.2287
     67  O         10.1800   19.1750   19.3960 O.2   200  ALA200     -0.2864
     68  CB        12.6800   17.9820   20.2160 C.3   200  ALA200      0.0319
     69  N         16.8170   20.2110   16.5080 N.3   227  GLU227     -0.1245
     70  CA        17.5650   19.6290   17.6010 C.3   227  GLU227      0.1567
     71  C         18.3710   20.6480   18.4110 C.2   227  GLU227      0.2260
     72  O         18.3690   20.6050   19.6440 O.2   227  GLU227     -0.2867
     73  CB        18.4900   18.5480   17.0500 C.3   227  GLU227      0.0388
     74  CG        19.4440   17.9680   18.0590 C.3   227  GLU227      0.1160
     75  CD        20.4830   17.0710   17.4190 C.2   227  GLU227      0.3649
     76  OE1       21.4750   17.6130   16.8900 O.co2 227  GLU227     -0.2457
     77  OE2       20.3130   15.8310   17.4590 O.co2 227  GLU227     -0.2457
     78  N         15.8650   23.4580   19.9420 N.3   230  MET230     -0.1230
     79  CA        15.1270   22.8890   21.0630 C.3   230  MET230      0.1702
     80  C         16.0660   22.5510   22.2170 C.2   230  MET230      0.2592
     81  O         15.6770   22.6370   23.3710 O.2   230  MET230     -0.2718
     82  CB        14.3250   21.6440   20.6500 C.3   230  MET230      0.0401
     83  CG        13.1080   21.9150   19.7700 C.3   230  MET230      0.0596
     84  SD        11.9570   23.1840   20.3460 S.3   230  MET230     -0.1393
     85  CE        11.0040   22.2330   21.5500 C.3   230  MET230      0.0692
     86  N         17.3050   22.1710   21.9250 N.am  231  TYR231     -0.1976
     87  CA        18.2330   21.8380   22.9960 C.3   231  TYR231      0.1639
     88  C         18.6240   23.0960   23.7700 C.2   231  TYR231      0.2290
     89  O         18.8540   23.0480   24.9810 O.2   231  TYR231     -0.2864
     90  CB        19.4930   21.1390   22.4760 C.3   231  TYR231      0.0560
     91  CG        20.3150   20.5710   23.6170 C.ar  231  TYR231     -0.0198
     92  CD1       19.7640   19.6160   24.4760 C.ar  231  TYR231     -0.0009
     93  CD2       21.5960   21.0400   23.8960 C.ar  231  TYR231     -0.0009
     94  CE1       20.4560   19.1450   25.6000 C.ar  231  TYR231      0.0417
     95  CE2       22.3040   20.5700   25.0210 C.ar  231  TYR231      0.0417
     96  CZ        21.7180   19.6210   25.8640 C.ar  231  TYR231      0.1957
     97  OH        22.3770   19.1470   26.9770 O.3   231  TYR231     -0.2866
@<TRIPOS>BOND
     1    40    39    2
     2    39    38    1
     3    38    37    1
     4    38    41    1
     5    32    31    2
     6    37    31   am
     7    31    30    1
     8    30    29    1
     9    30    33    1
    10    21    20    2
    11    41    42    1
    12    20    19    1
    13    33    34    1
    14    18    19    1
    15    42    43    1
    16    19    22    1
    17    34    35   ar
    18    34    36   ar
    19    45    43   am
    20    43    44    2
    21    22    23    1
    22    69    70    1
    23    76    75   ar
    24    73    70    1
    25    73    74    1
    26    75    77   ar
    27    75    74    1
    28    23    24   ar
    29    23    25   ar
    30    70    71    1
    31    24    26   ar
    32    25    27   ar
    33    71    72    2
    34    26    28   ar
    35    27    28   ar
    36    67    66    2
    37    83    84    1
    38    83    82    1
    39    78    79    1
    40    68    65    1
    41    84    85    1
    42    66    65    1
    43    82    79    1
    44     5     6    1
    45     5     2    1
    46     1     2    1
    47    79    80    1
    48    65    64    1
    49     8     6   ar
    50     8    10   ar
    51     6     7   ar
    52     2     3    1
    53     4     3    2
    54    86    80   am
    55    86    87    1
    56    10    11   ar
    57    80    81    2
    58    64    60   am
    59    90    87    1
    60    90    91    1
    61     7     9   ar
    62    87    88    1
    63    11     9   ar
    64    11    12    1
    65    60    61    2
    66    60    59    1
    67    91    93   ar
    68    91    92   ar
    69    88    89    2
    70    93    95   ar
    71    63    62    1
    72    92    94   ar
    73    59    62    1
    74    59    58    1
    75    49    48    2
    76    95    96   ar
    77    94    96   ar
    78    48    58   am
    79    48    47    1
    80    96    97    1
    81    17    14    1
    82    47    50    1
    83    47    46    1
    84    50    51    1
    85    52    51   ar
    86    52    54   ar
    87    14    13    1
    88    14    15    1
    89    51    53   ar
    90    54    56   ar
    91    15    16    2
    92    53    55   ar
    93    56    55   ar
    94    56    57    1
