@<TRIPOS>MOLECULE
tmp/3mcvB01.pdb
 161 153 0 0 0
SMALL
GASTEIGER

@<TRIPOS>ATOM
      1  N        -16.9620   12.2090   -7.9180 N.3    13  ARG13      -0.1245
      2  CA       -16.0520   12.2890   -6.7760 C.3    13  ARG13       0.1563
      3  C        -15.2560   11.0080   -6.5570 C.2    13  ARG13       0.2260
      4  O        -14.6480   10.4930   -7.5090 O.2    13  ARG13      -0.2867
      5  CB       -16.8560   12.7670   -5.5540 C.3    13  ARG13       0.0307
      6  CG       -17.4100   14.2080   -5.7360 C.3    13  ARG13       0.0489
      7  CD       -18.5090   14.5720   -4.7440 C.3    13  ARG13       0.2205
      8  NE       -18.0920   14.3860   -3.3550 N.pl3  13  ARG13      -0.0865
      9  CZ       -17.4230   15.2810   -2.6200 C.cat  13  ARG13       0.5346
     10  NH1      -17.1280   14.9810   -1.3680 N.pl3  13  ARG13       0.1354
     11  NH2      -17.0880   16.4710   -3.1070 N.pl3  13  ARG13       0.1354
     12  N        -22.7370    6.6550   -0.0220 N.3    94  SER94      -0.1217
     13  CA       -22.8240    7.0680    1.3680 C.3    94  SER94       0.1889
     14  C        -23.5730    8.3760    1.5540 C.2    94  SER94       0.2288
     15  O        -23.1920    9.3930    0.9760 O.2    94  SER94      -0.2866
     16  CB       -21.4110    7.2720    1.9240 C.3    94  SER94       0.2089
     17  OG       -21.4350    7.7770    3.2530 O.3    94  SER94      -0.2183
     18  N        -24.4070   11.4320    4.1480 N.3    96  PHE96      -0.1241
     19  CA       -23.5410   12.1030    5.0980 C.3    96  PHE96       0.1605
     20  C        -24.1500   13.4520    5.4110 C.2    96  PHE96       0.2264
     21  O        -24.2110   14.3350    4.5490 O.2    96  PHE96      -0.2867
     22  CB       -22.1290   12.2770    4.5200 C.3    96  PHE96       0.0534
     23  CG       -21.2000   13.2030    5.3280 C.ar   96  PHE96      -0.0203
     24  CD1      -20.8870   14.4750    4.8580 C.ar   96  PHE96      -0.0042
     25  CD2      -20.5820   12.7610    6.4900 C.ar   96  PHE96      -0.0042
     26  CE1      -20.0050   15.2980    5.5600 C.ar   96  PHE96      -0.0003
     27  CE2      -19.6930   13.5560    7.1910 C.ar   96  PHE96      -0.0003
     28  CZ       -19.4160   14.8520    6.7330 C.ar   96  PHE96      -0.0000
     29  N        -13.8920    5.3770    7.1830 N.3   144  ASP144     -0.1239
     30  CA       -13.6500    6.7390    7.5870 C.3   144  ASP144      0.1674
     31  C        -12.5810    6.7050    8.6750 C.2   144  ASP144      0.2266
     32  O        -12.7740    6.1060    9.7240 O.2   144  ASP144     -0.2867
     33  CB       -14.9580    7.3900    8.0670 C.3   144  ASP144      0.1410
     34  CG       -14.8460    8.8720    8.3250 C.2   144  ASP144      0.3668
     35  OD1      -13.7470    9.3760    8.6360 O.co2 144  ASP144     -0.2456
     36  OD2      -15.8980    9.5580    8.2200 O.co2 144  ASP144     -0.2456
     37  N        -11.7430    8.9110   10.6630 N.3   146  MET146     -0.1245
     38  CA       -12.0780    9.7530   11.7990 C.3   146  MET146      0.1570
     39  C        -13.1710    9.1420   12.6820 C.2   146  MET146      0.2261
     40  O        -13.6900    9.8360   13.5490 O.2   146  MET146     -0.2867
     41  CB       -12.4530   11.1610   11.3170 C.3   146  MET146      0.0387
     42  CG       -11.2880   11.8650   10.5810 C.3   146  MET146      0.0595
     43  SD        -9.8070   12.0820   11.5910 S.3   146  MET146     -0.1393
     44  CE       -10.3320   13.4930   12.5750 C.3   146  MET146      0.0692
     45  N        -16.9950   13.9730   13.7840 N.3   151  CYS151     -0.1235
     46  CA       -17.5990   15.2950   13.7560 C.3   151  CYS151      0.1677
     47  C        -18.7590   15.3570   14.7230 C.2   151  CYS151      0.2270
     48  O        -19.5560   14.4380   14.8450 O.2   151  CYS151     -0.2867
     49  CB       -18.0900   15.6620   12.3640 C.3   151  CYS151      0.0956
     50  SG       -16.7020   15.8540   11.2150 S.3   151  CYS151     -0.0801
     51  N        -22.8370   14.0620   14.2720 N.3   154  PHE154     -0.1241
     52  CA       -22.9550   13.1100   13.1710 C.3   154  PHE154      0.1605
     53  C        -23.0590   11.6840   13.7200 C.2   154  PHE154      0.2264
     54  O        -22.4440   10.7510   13.1940 O.2   154  PHE154     -0.2867
     55  CB       -21.7530   13.1800   12.2490 C.3   154  PHE154      0.0534
     56  CG       -21.7870   14.3170   11.2880 C.ar  154  PHE154     -0.0203
     57  CD1      -21.5240   15.6060   11.7180 C.ar  154  PHE154     -0.0042
     58  CD2      -22.0750   14.1060    9.9460 C.ar  154  PHE154     -0.0042
     59  CE1      -21.5550   16.6590   10.8200 C.ar  154  PHE154     -0.0003
     60  CE2      -22.1090   15.1680    9.0540 C.ar  154  PHE154     -0.0003
     61  CZ       -21.8490   16.4430    9.4930 C.ar  154  PHE154     -0.0000
     62  N        -24.3940    8.8900   11.1000 N.3   157  TYR157     -0.1241
     63  CA       -23.3160    8.6770   10.1160 C.3   157  TYR157      0.1605
     64  C        -22.1790    7.8370   10.7560 C.2   157  TYR157      0.2264
     65  O        -21.7450    6.7960   10.2020 O.2   157  TYR157     -0.2867
     66  CB       -22.7670   10.0390    9.5940 C.3   157  TYR157      0.0534
     67  CG       -21.5100    9.8520    8.7870 C.ar  157  TYR157     -0.0201
     68  CD1      -21.5660    9.3620    7.4970 C.ar  157  TYR157     -0.0009
     69  CD2      -20.2600   10.1110    9.3360 C.ar  157  TYR157     -0.0009
     70  CE1      -20.3990    9.1410    6.7560 C.ar  157  TYR157      0.0417
     71  CE2      -19.0910    9.8950    8.6050 C.ar  157  TYR157      0.0417
     72  CZ       -19.1630    9.3910    7.3320 C.ar  157  TYR157      0.1957
     73  OH       -18.0090    9.1730    6.6130 O.3   157  TYR157     -0.2866
     74  N        -20.7080    4.1110    9.7760 N.3   161  LYS161     -0.1245
     75  CA       -19.3070    3.7960    9.4740 C.3   161  LYS161      0.1561
     76  C        -18.6520    2.8010   10.4530 C.2   161  LYS161      0.2260
     77  O        -17.8570    1.9580   10.0250 O.2   161  LYS161     -0.2867
     78  CB       -18.4760    5.0600    9.3900 C.3   161  LYS161      0.0271
     79  CG       -18.7770    5.9220    8.1630 C.3   161  LYS161      0.0035
     80  CD       -18.7140    5.1240    6.8340 C.3   161  LYS161      0.0206
     81  CE       -18.5450    6.0480    5.6340 C.3   161  LYS161      0.1093
     82  NZ       -18.7080    5.3750    4.2940 N.3   161  LYS161     -0.1314
     83  N         -9.4750   10.4290    5.4610 N.3   188  GLY188     -0.1210
     84  CA        -9.6740   11.3850    6.5590 C.3   188  GLY188      0.1956
     85  C        -10.4310   12.5410    5.9610 C.2   188  GLY188      0.2612
     86  O        -11.6560   12.5280    5.9490 O.2   188  GLY188     -0.2717
     87  N         -9.7150   13.5390    5.4630 N.am  189  VAL189     -0.1965
     88  CA       -10.3560   14.5540    4.6340 C.3   189  VAL189      0.1727
     89  C         -9.8780   14.3660    3.2040 C.2   189  VAL189      0.2617
     90  O         -8.6750   14.4280    2.8940 O.2   189  VAL189     -0.2715
     91  CB       -10.1480   15.9830    5.1590 C.3   189  VAL189      0.0290
     92  CG1       -8.6910   16.3670    5.1200 C.3   189  VAL189      0.0023
     93  CG2      -11.0230   16.9780    4.3800 C.3   189  VAL189      0.0023
     94  N        -10.8370   14.0610    2.3420 N.am  190  SER190     -0.1936
     95  CA       -10.6150   13.9850    0.9130 C.3   190  SER190      0.2055
     96  C        -11.4730   15.1030    0.3120 C.2   190  SER190      0.2643
     97  O        -11.5300   16.2140    0.8710 O.2   190  SER190     -0.2714
     98  CB       -10.9510   12.5840    0.3760 C.3   190  SER190      0.2130
     99  OG       -10.7770   12.4860   -1.0270 O.3   190  SER190     -0.2179
    100  N        -12.1650   14.8330   -0.7880 N.am  191  LEU191     -0.1963
    101  CA       -12.8780   15.8920   -1.4680 C.3   191  LEU191      0.1728
    102  C        -13.9190   16.5160   -0.5390 C.2   191  LEU191      0.2616
    103  O        -14.8060   15.8400   -0.0470 O.2   191  LEU191     -0.2715
    104  CB       -13.5490   15.3730   -2.7410 C.3   191  LEU191      0.0311
    105  CG       -12.6250   14.8890   -3.8440 C.3   191  LEU191      0.0022
    106  CD1      -13.4370   14.6290   -5.0930 C.3   191  LEU191      0.0001
    107  CD2      -11.4630   15.8860   -4.1330 C.3   191  LEU191      0.0001
    108  N        -13.8090   17.8200   -0.3230 N.am  192  LEU192     -0.1964
    109  CA       -14.7300   18.4990    0.5660 C.3   192  LEU192      0.1713
    110  C        -16.0580   18.7270   -0.1370 C.2   192  LEU192      0.2458
    111  O        -16.1000   18.7230   -1.3650 O.2   192  LEU192     -0.2730
    112  CB       -14.1260   19.8160    1.0390 C.3   192  LEU192      0.0310
    113  CG       -12.9690   19.4390    1.9830 C.3   192  LEU192      0.0022
    114  CD1      -11.7860   20.3640    1.9080 C.3   192  LEU192      0.0001
    115  CD2      -13.5180   19.2550    3.4020 C.3   192  LEU192      0.0001
    116  N        -17.1330   18.9470    0.6360 N.am  193  PRO193     -0.2727
    117  CA       -18.4210   19.1890    0.0040 C.3   193  PRO193      0.1402
    118  C        -18.3820   20.3540   -0.9800 C.2   193  PRO193      0.2269
    119  O        -17.6780   21.3770   -0.7970 O.2   193  PRO193     -0.2865
    120  CB       -19.3660   19.4500    1.1810 C.3   193  PRO193      0.0296
    121  CG       -18.7150   18.8020    2.3470 C.3   193  PRO193      0.0237
    122  CD       -17.2340   18.9750    2.1030 C.3   193  PRO193      0.0939
    123  N        -19.1400   23.9380    0.1760 N.3   196  MET196     -0.1245
    124  CA       -18.3870   24.4190    1.3140 C.3   196  MET196      0.1570
    125  C        -17.4830   25.5780    0.9200 C.2   196  MET196      0.2261
    126  O        -16.7250   25.4710   -0.0450 O.2   196  MET196     -0.2867
    127  CB       -17.5510   23.2800    1.9100 C.3   196  MET196      0.0387
    128  CG       -16.8080   23.6660    3.1870 C.3   196  MET196      0.0595
    129  SD       -15.8550   22.3400    3.9090 S.3   196  MET196     -0.1393
    130  CE       -17.1800   21.4910    4.8020 C.3   196  MET196      0.0692
    131  N        -13.7830   27.4910    5.0150 N.3   200  GLU200     -0.1245
    132  CA       -14.0760   26.3270    5.8490 C.3   200  GLU200      0.1567
    133  C        -13.2500   25.0930    5.3800 C.2   200  GLU200      0.2260
    134  O        -12.7430   24.3230    6.1910 O.2   200  GLU200     -0.2867
    135  CB       -15.5740   26.0310    5.8420 C.3   200  GLU200      0.0388
    136  CG       -15.9560   24.8310    6.7170 C.3   200  GLU200      0.1160
    137  CD       -17.4560   24.6390    6.8560 C.2   200  GLU200      0.3649
    138  OE1      -17.8700   23.7500    7.6430 O.co2 200  GLU200     -0.2457
    139  OE2      -18.2270   25.3470    6.1810 O.co2 200  GLU200     -0.2457
    140  N        -10.0240   22.6140    7.5620 N.3   204  TRP204     -0.1241
    141  CA        -9.7490   21.1690    7.5860 C.3   204  TRP204      0.1605
    142  C         -8.3950   20.8680    6.9730 C.2   204  TRP204      0.2264
    143  O         -7.6120   20.0990    7.5240 O.2   204  TRP204     -0.2867
    144  CB       -10.8520   20.3890    6.8800 C.3   204  TRP204      0.0550
    145  CG       -12.0800   20.3120    7.7070 C.ar  204  TRP204      0.0003
    146  CD1      -13.2050   21.0670    7.5750 C.ar  204  TRP204      0.0946
    147  CD2      -12.2930   19.4600    8.8490 C.ar  204  TRP204      0.0152
    148  NE1      -14.1180   20.7300    8.5580 N.ar  204  TRP204     -0.2442
    149  CE2      -13.5860   19.7430    9.3440 C.ar  204  TRP204      0.0810
    150  CE3      -11.5250   18.4770    9.4830 C.ar  204  TRP204      0.0012
    151  CZ2      -14.1240   19.0840   10.4510 C.ar  204  TRP204      0.0191
    152  CZ3      -12.0660   17.8070   10.5880 C.ar  204  TRP204      0.0001
    153  CH2      -13.3480   18.1160   11.0560 C.ar  204  TRP204      0.0015
    154  N         -4.0300   12.8520    9.6010 N.3   246  LEU246     -0.1245
    155  CA        -5.0410   13.6690   10.2790 C.3   246  LEU246      0.1561
    156  C         -5.5080   13.0660   11.5920 C.2   246  LEU246      0.2260
    157  O         -5.6710   13.7960   12.5710 O.2   246  LEU246     -0.2867
    158  CB        -6.2660   13.8980    9.3870 C.3   246  LEU246      0.0270
    159  CG        -7.3830   14.7970    9.9550 C.3   246  LEU246      0.0019
    160  CD1       -6.8800   16.2390   10.2830 C.3   246  LEU246      0.0001
    161  CD2       -8.5560   14.7520    8.9590 C.3   246  LEU246      0.0001
@<TRIPOS>BOND
     1     1     2    1
     2     4     3    2
     3     2     3    1
     4     2     5    1
     5     6     5    1
     6     6     7    1
     7   106   105    1
     8     7     8    1
     9   107   105    1
    10   105   104    1
    11     8     9    2
    12    11     9    1
    13   104   101    1
    14     9    10    1
    15   101   100    1
    16   101   102    1
    17   111   110    2
    18    99    98    1
    19   118   119    2
    20   118   117    1
    21   100    96   am
    22   102   108   am
    23   102   103    2
    24   108   109    1
    25   110   109    1
    26   110   116   am
    27   126   125    2
    28    12    13    1
    29   117   116    1
    30   117   120    1
    31   123   124    1
    32    96    97    2
    33    96    95    1
    34    98    95    1
    35   109   112    1
    36   116   122    1
    37    95    94    1
    38   125   124    1
    39    15    14    2
    40   112   113    1
    41   120   121    1
    42   124   127    1
    43    13    14    1
    44    13    16    1
    45   114   113    1
    46   127   128    1
    47    16    17    1
    48   113   115    1
    49   122   121    1
    50    94    89   am
    51    90    89    2
    52   128   129    1
    53    89    88    1
    54   129   130    1
    55    18    19    1
    56    82    81    1
    57    93    91    1
    58    22    19    1
    59    22    23    1
    60    21    20    2
    61    88    91    1
    62    88    87    1
    63    24    23   ar
    64    24    26   ar
    65   131   132    1
    66    19    20    1
    67    92    91    1
    68    23    25   ar
    69   133   132    1
    70   133   134    2
    71    83    84    1
    72    87    85   am
    73    26    28   ar
    74    81    80    1
    75   135   132    1
    76   135   136    1
    77    86    85    2
    78    85    84    1
    79   139   137   ar
    80    25    27   ar
    81    73    72    1
    82   136   137    1
    83    28    27   ar
    84    70    72   ar
    85    70    68   ar
    86    80    79    1
    87   137   138   ar
    88   144   141    1
    89   144   145    1
    90   142   143    2
    91   142   141    1
    92    29    30    1
    93    72    71   ar
    94    68    67   ar
    95   140   141    1
    96   146   145   ar
    97   146   148   ar
    98    30    33    1
    99    30    31    1
   100   145   147   ar
   101    33    34    1
   102    79    78    1
   103    36    34   ar
   104    34    35   ar
   105   148   149   ar
   106    71    69   ar
   107    31    32    2
   108    67    69   ar
   109    67    66    1
   110   147   149   ar
   111   147   150   ar
   112   161   159    1
   113    60    61   ar
   114    60    58   ar
   115   149   151   ar
   116   158   159    1
   117   158   155    1
   118    78    75    1
   119    75    74    1
   120    75    76    1
   121   150   152   ar
   122    61    59   ar
   123    66    63    1
   124   154   155    1
   125    58    56   ar
   126   159   160    1
   127    77    76    2
   128    63    64    1
   129    63    62    1
   130    65    64    2
   131   155   156    1
   132   151   153   ar
   133    42    41    1
   134    42    43    1
   135   152   153   ar
   136    37    38    1
   137    59    57   ar
   138    50    49    1
   139    56    57   ar
   140    56    55    1
   141    41    38    1
   142    43    44    1
   143   156   157    2
   144    38    39    1
   145    55    52    1
   146    49    46    1
   147    39    40    2
   148    52    53    1
   149    52    51    1
   150    54    53    2
   151    46    45    1
   152    46    47    1
   153    47    48    2
