@<TRIPOS>MOLECULE
tmp/3mcyB00.pdb
 139 131 0 0 0
SMALL
GASTEIGER

@<TRIPOS>ATOM
      1  N        -16.6860    0.2630  -29.4900 N.3     1  PHE1       -0.1241
      2  CA       -17.6540    0.3910  -28.3580 C.3     1  PHE1        0.1605
      3  C        -17.9180   -0.9750  -27.7050 C.2     1  PHE1        0.2264
      4  O        -18.0090   -1.9930  -28.3790 O.2     1  PHE1       -0.2867
      5  CB       -18.9590    1.0610  -28.8440 C.3     1  PHE1        0.0534
      6  CG       -20.0810    1.0600  -27.8290 C.ar    1  PHE1       -0.0203
      7  CD1      -20.7330   -0.1100  -27.5090 C.ar    1  PHE1       -0.0042
      8  CD2      -20.5080    2.2410  -27.2320 C.ar    1  PHE1       -0.0042
      9  CE1      -21.7730   -0.1160  -26.5980 C.ar    1  PHE1       -0.0003
     10  CE2      -21.5510    2.2370  -26.3130 C.ar    1  PHE1       -0.0003
     11  CZ       -22.1810    1.0560  -26.0030 C.ar    1  PHE1       -0.0000
     12  N        -17.1750   -6.2290  -28.3210 N.3    13  ILE13      -0.1245
     13  CA       -17.5890   -5.3680  -29.3880 C.3    13  ILE13       0.1561
     14  C        -18.6060   -6.1280  -30.1670 C.2    13  ILE13       0.2260
     15  O        -18.5960   -7.3440  -30.1790 O.2    13  ILE13      -0.2867
     16  CB       -16.4430   -5.0990  -30.3280 C.3    13  ILE13       0.0252
     17  CG1      -15.2650   -4.5080  -29.5810 C.3    13  ILE13       0.0019
     18  CG2      -16.8760   -4.1700  -31.3820 C.3    13  ILE13       0.0019
     19  CD1      -14.3640   -3.7340  -30.4510 C.3    13  ILE13       0.0001
     20  N        -16.6580    4.0230  -25.6630 N.3    46  ASN46      -0.1225
     21  CA       -16.3720    4.0760  -27.0620 C.3    46  ASN46       0.1785
     22  C        -14.9350    3.6730  -27.2800 C.2    46  ASN46       0.2597
     23  O        -14.1140    4.0250  -26.5210 O.2    46  ASN46      -0.2718
     24  CB       -16.6200    5.4870  -27.5330 C.3    46  ASN46       0.1169
     25  CG       -16.2100    5.7040  -28.9270 C.2    46  ASN46       0.2627
     26  OD1      -15.5780    4.8680  -29.5130 O.2    46  ASN46      -0.2716
     27  ND2      -16.5380    6.8350  -29.4620 N.am   46  ASN46      -0.0877
     28  N        -14.6190    2.8840  -28.2840 N.am   47  ASP47      -0.1960
     29  CA       -13.2760    2.3770  -28.4080 C.3    47  ASP47       0.1840
     30  C        -12.5230    3.1860  -29.3770 C.2    47  ASP47       0.2622
     31  O        -11.5130    2.7680  -29.8240 O.2    47  ASP47      -0.2715
     32  CB       -13.2170    0.9420  -28.8960 C.3    47  ASP47       0.1450
     33  CG       -13.6400   -0.0510  -27.8750 C.2    47  ASP47       0.3671
     34  OD1      -14.8330   -0.1830  -27.7130 O.co2  47  ASP47      -0.2456
     35  OD2      -12.8220   -0.7440  -27.2470 O.co2  47  ASP47      -0.2456
     36  N        -12.9880    4.3680  -29.7150 N.am   48  TYR48      -0.1974
     37  CA       -12.2780    5.1470  -30.6880 C.3    48  TYR48       0.1639
     38  C        -12.7960    6.5270  -30.8650 C.2    48  TYR48       0.2290
     39  O        -13.0910    6.9090  -31.9600 O.2    48  TYR48      -0.2864
     40  CB       -12.3920    4.4830  -32.0220 C.3    48  TYR48       0.0560
     41  CG       -11.5230    5.0590  -33.0770 C.ar   48  TYR48      -0.0198
     42  CD1      -11.7070    4.7390  -34.3520 C.ar   48  TYR48      -0.0009
     43  CD2      -10.5240    5.8980  -32.7920 C.ar   48  TYR48      -0.0009
     44  CE1      -10.9540    5.2420  -35.2920 C.ar   48  TYR48       0.0417
     45  CE2       -9.7500    6.3780  -33.7560 C.ar   48  TYR48       0.0417
     46  CZ        -9.9790    6.0500  -35.0000 C.ar   48  TYR48       0.1957
     47  OH        -9.2240    6.5150  -36.0030 O.3    48  TYR48      -0.2866
     48  N        -11.8010    9.4420  -31.1080 N.3    50  GLU50      -0.1245
     49  CA       -11.0740   10.4810  -31.7610 C.3    50  GLU50       0.1567
     50  C        -11.6020   10.7860  -33.1440 C.2    50  GLU50       0.2260
     51  O        -11.2180   11.7740  -33.7360 O.2    50  GLU50      -0.2867
     52  CB        -9.6360   10.0600  -31.8900 C.3    50  GLU50       0.0388
     53  CG        -8.9330    9.8430  -30.6060 C.3    50  GLU50       0.1160
     54  CD        -9.1760    8.5070  -30.0470 C.2    50  GLU50       0.3649
     55  OE1      -10.3260    8.1120  -29.9660 O.co2  50  GLU50      -0.2457
     56  OE2       -8.2290    7.8360  -29.6670 O.co2  50  GLU50      -0.2457
     57  N        -14.8760    8.4800  -34.2650 N.3    52  ILE52      -0.1245
     58  CA       -16.2000    7.8880  -34.1580 C.3    52  ILE52       0.1561
     59  C        -17.0220    8.4800  -33.0120 C.2    52  ILE52       0.2260
     60  O        -16.5240    8.6700  -31.9120 O.2    52  ILE52      -0.2867
     61  CB       -16.1020    6.3600  -33.9320 C.3    52  ILE52       0.0252
     62  CG1      -15.1710    5.7170  -34.9670 C.3    52  ILE52       0.0019
     63  CG2      -17.4890    5.7130  -33.9720 C.3    52  ILE52       0.0019
     64  CD1      -15.1260    4.1980  -34.8780 C.3    52  ILE52       0.0001
     65  N        -20.6210    7.6490  -30.9000 N.3    54  ASP54      -0.1239
     66  CA       -21.4350    6.4760  -30.6270 C.3    54  ASP54       0.1674
     67  C        -22.8220    6.8470  -30.1390 C.2    54  ASP54       0.2266
     68  O        -22.9950    7.6790  -29.2470 O.2    54  ASP54      -0.2867
     69  CB       -20.7380    5.5500  -29.6290 C.3    54  ASP54       0.1410
     70  CG       -19.7040    4.6520  -30.2910 C.2    54  ASP54       0.3668
     71  OD1      -19.5240    4.7340  -31.5260 O.co2  54  ASP54      -0.2456
     72  OD2      -19.0750    3.8580  -29.5740 O.co2  54  ASP54      -0.2456
     73  N        -13.5320    7.0500  -24.0500 N.3    98  ARG98      -0.1245
     74  CA       -13.0400    5.7140  -23.8620 C.3    98  ARG98       0.1563
     75  C        -13.0720    5.3130  -22.3990 C.2    98  ARG98       0.2260
     76  O        -12.5390    4.2780  -22.0120 O.2    98  ARG98      -0.2867
     77  CB       -11.6240    5.6590  -24.3690 C.3    98  ARG98       0.0307
     78  CG       -10.9480    4.3370  -24.1870 C.3    98  ARG98       0.0489
     79  CD       -10.0030    4.0800  -25.3180 C.3    98  ARG98       0.2205
     80  NE        -9.7540    5.2860  -26.0890 N.pl3  98  ARG98      -0.0865
     81  CZ        -9.0220    5.3220  -27.1850 C.cat  98  ARG98       0.5346
     82  NH1       -8.4600    4.2220  -27.6390 N.pl3  98  ARG98       0.1354
     83  NH2       -8.8540    6.4590  -27.8290 N.pl3  98  ARG98       0.1354
     84  N        -26.3690    0.0770  -30.2350 N.3   133  GLN133     -0.1245
     85  CA       -25.2340    0.8870  -30.6110 C.3   133  GLN133      0.1566
     86  C        -25.1900    1.1350  -32.1080 C.2   133  GLN133      0.2260
     87  O        -24.8870    0.2400  -32.8890 O.2   133  GLN133     -0.2867
     88  CB       -23.9370    0.2090  -30.1770 C.3   133  GLN133      0.0367
     89  CG       -22.7250    1.1130  -30.3230 C.3   133  GLN133      0.0905
     90  CD       -21.6290    0.5070  -31.1970 C.2   133  GLN133      0.2608
     91  OE1      -21.3140   -0.7000  -31.1070 O.2   133  GLN133     -0.2717
     92  NE2      -21.0400    1.3430  -32.0530 N.am  133  GLN133     -0.0878
     93  N        -23.2230    3.8970  -34.7540 N.3   135  ASN135     -0.1240
     94  CA       -22.0880    4.7450  -34.7860 C.3   135  ASN135      0.1653
     95  C        -22.2170    5.5530  -36.0650 C.2   135  ASN135      0.2266
     96  O        -22.9260    5.1410  -36.9920 O.2   135  ASN135     -0.2867
     97  CB       -20.8160    3.8890  -34.7510 C.3   135  ASN135      0.1155
     98  CG       -20.5680    3.1490  -36.0600 C.2   135  ASN135      0.2627
     99  OD1      -20.6510    3.7390  -37.1410 O.2   135  ASN135     -0.2716
    100  ND2      -20.2390    1.8530  -35.9650 N.am  135  ASN135     -0.0877
    101  N        -19.8970    6.0770  -37.9570 N.3   137  TYR137     -0.1227
    102  CA       -18.7310    5.5750  -38.6440 C.3   137  TYR137      0.1736
    103  C        -19.1100    4.7800  -39.8520 C.2   137  TYR137      0.2595
    104  O        -18.4880    4.8920  -40.9080 O.2   137  TYR137     -0.2718
    105  CB       -18.0330    4.6170  -37.6980 C.3   137  TYR137      0.0548
    106  CG       -16.6720    4.1670  -38.1100 C.ar  137  TYR137     -0.0200
    107  CD1      -15.7080    5.0770  -38.4970 C.ar  137  TYR137     -0.0009
    108  CD2      -16.3260    2.8240  -38.0550 C.ar  137  TYR137     -0.0009
    109  CE1      -14.4570    4.6640  -38.8420 C.ar  137  TYR137      0.0417
    110  CE2      -15.0800    2.4040  -38.3950 C.ar  137  TYR137      0.0417
    111  CZ       -14.1450    3.3180  -38.7880 C.ar  137  TYR137      0.1957
    112  OH       -12.8910    2.8800  -39.1250 O.3   137  TYR137     -0.2866
    113  N        -20.1360    3.9540  -39.6710 N.am  138  ASN138     -0.1974
    114  CA       -20.3850    2.8390  -40.5480 C.3   138  ASN138      0.1688
    115  C        -21.6640    2.0740  -40.1710 C.2   138  ASN138      0.2292
    116  O        -22.5090    2.5730  -39.4140 O.2   138  ASN138     -0.2864
    117  CB       -19.1820    1.8870  -40.5060 C.3   138  ASN138      0.1181
    118  CG       -19.1530    1.0440  -39.2560 C.2   138  ASN138      0.2629
    119  OD1      -20.1120    1.0240  -38.4870 O.2   138  ASN138     -0.2716
    120  ND2      -18.0530    0.3330  -39.0480 N.am  138  ASN138     -0.0877
    121  N        -22.3220   -0.6580  -38.3750 N.3   140  ASP140     -0.1239
    122  CA       -22.5990   -1.3570  -37.1500 C.3   140  ASP140      0.1674
    123  C        -23.8650   -0.8130  -36.5730 C.2   140  ASP140      0.2266
    124  O        -24.0290    0.3880  -36.3830 O.2   140  ASP140     -0.2867
    125  CB       -21.5060   -1.2350  -36.0930 C.3   140  ASP140      0.1410
    126  CG       -20.2470   -2.0010  -36.4330 C.2   140  ASP140      0.3668
    127  OD1      -20.2950   -2.8640  -37.3450 O.co2 140  ASP140     -0.2456
    128  OD2      -19.2190   -1.7700  -35.7660 O.co2 140  ASP140     -0.2456
    129  N        -25.7190   -2.6500  -33.2660 N.3   142  PHE142     -0.1241
    130  CA       -25.4460   -3.7450  -32.3780 C.3   142  PHE142      0.1605
    131  C        -26.3490   -3.6810  -31.1670 C.2   142  PHE142      0.2264
    132  O        -26.5640   -2.6130  -30.5850 O.2   142  PHE142     -0.2867
    133  CB       -24.0100   -3.6710  -31.9120 C.3   142  PHE142      0.0534
    134  CG       -23.0080   -4.0900  -32.9390 C.ar  142  PHE142     -0.0203
    135  CD1      -23.1990   -5.2430  -33.6870 C.ar  142  PHE142     -0.0042
    136  CD2      -21.8470   -3.3610  -33.1220 C.ar  142  PHE142     -0.0042
    137  CE1      -22.2520   -5.6510  -34.6190 C.ar  142  PHE142     -0.0003
    138  CE2      -20.9010   -3.7640  -34.0550 C.ar  142  PHE142     -0.0003
    139  CZ       -21.1050   -4.9080  -34.8030 C.ar  142  PHE142     -0.0000
@<TRIPOS>BOND
     1   104   103    2
     2   114   117    1
     3   114   115    1
     4   114   113    1
     5   117   118    1
     6   115   116    2
     7   103   113   am
     8   103   102    1
     9   118   120   am
    10   118   119    2
    11   112   111    1
    12   109   111   ar
    13   109   107   ar
    14   111   110   ar
    15   102   101    1
    16   102   105    1
    17   107   106   ar
    18   110   108   ar
    19   121   122    1
    20   106   108   ar
    21   106   105    1
    22   127   126   ar
    23   122   123    1
    24   122   125    1
    25    99    98    2
    26    96    95    2
    27   123   124    2
    28   126   125    1
    29   126   128   ar
    30    95    94    1
    31    98   100   am
    32    98    97    1
    33    47    46    1
    34    44    46   ar
    35    44    42   ar
    36    46    45   ar
    37    62    64    1
    38    62    61    1
    39   139   137   ar
    40   139   138   ar
    41    94    93    1
    42    94    97    1
    43   137   135   ar
    44    42    41   ar
    45    57    58    1
    46    58    61    1
    47    58    59    1
    48   138   136   ar
    49    63    61    1
    50    45    43   ar
    51    51    50    2
    52   135   134   ar
    53   129   130    1
    54    50    49    1
    55   136   134   ar
    56    41    43   ar
    57    41    40    1
    58    59    60    2
    59   134   133    1
    60    87    86    2
    61   130   133    1
    62   130   131    1
    63    86    85    1
    64    92    90   am
    65    40    37    1
    66    39    38    2
    67    52    49    1
    68    52    53    1
    69    49    48    1
    70    71    70   ar
    71    18    16    1
    72    90    91    2
    73    90    89    1
    74   131   132    2
    75    65    66    1
    76    38    37    1
    77    37    36    1
    78    66    67    1
    79    66    69    1
    80    85    84    1
    81    85    88    1
    82    53    54    1
    83    19    17    1
    84    16    17    1
    85    16    13    1
    86    89    88    1
    87    70    69    1
    88    70    72   ar
    89    15    14    2
    90    14    13    1
    91    67    68    2
    92    54    55   ar
    93    54    56   ar
    94    31    30    2
    95    36    30   am
    96    26    25    2
    97     1     2    1
    98    27    25   am
    99    13    12    1
   100    30    29    1
   101    25    24    1
   102    32    29    1
   103    32    33    1
   104     5     2    1
   105     5     6    1
   106    29    28    1
   107     4     3    2
   108     2     3    1
   109    28    22   am
   110    33    34   ar
   111    33    35   ar
   112    83    81    1
   113     6     7   ar
   114     6     8   ar
   115    82    81    1
   116    24    21    1
   117     7     9   ar
   118    22    21    1
   119    22    23    2
   120     8    10   ar
   121    81    80    2
   122    21    20    1
   123     9    11   ar
   124    10    11   ar
   125    80    79    1
   126    79    78    1
   127    77    78    1
   128    77    74    1
   129    73    74    1
   130    74    75    1
   131    75    76    2
