@<TRIPOS>MOLECULE
tmp/3mdbC00.pdb
 99 92 0 0 0
SMALL
GASTEIGER

@<TRIPOS>ATOM
      1  N        -27.4090   -7.9990  -10.2840 N.3   151  LYS151     -0.1245
      2  CA       -28.1200   -9.2070  -10.7030 C.3   151  LYS151      0.1561
      3  C        -27.7220  -10.3670   -9.8120 C.2   151  LYS151      0.2260
      4  O        -26.5550  -10.4930   -9.4340 O.2   151  LYS151     -0.2867
      5  CB       -27.7960   -9.5540  -12.1550 C.3   151  LYS151      0.0271
      6  CG       -28.0940  -10.9950  -12.4940 C.3   151  LYS151      0.0035
      7  CD       -27.8020  -11.3520  -13.9200 C.3   151  LYS151      0.0206
      8  CE       -27.8940  -12.8720  -14.1040 C.3   151  LYS151      0.1093
      9  NZ       -26.9140  -13.6340  -13.2560 N.3   151  LYS151     -0.1314
     10  N        -26.7850  -14.0380   -8.7830 N.3   153  GLY153     -0.1210
     11  CA       -26.1300  -15.1900   -9.3700 C.3   153  GLY153      0.1956
     12  C        -27.0920  -16.3570   -9.4620 C.2   153  GLY153      0.2612
     13  O        -28.0550  -16.4470   -8.6910 O.2   153  GLY153     -0.2717
     14  N        -26.8420  -17.2550  -10.4050 N.am  154  ARG154     -0.1965
     15  CA       -27.7940  -18.3160  -10.6800 C.3   154  ARG154      0.1729
     16  C        -27.9840  -19.2440   -9.4750 C.2   154  ARG154      0.2616
     17  O        -29.1330  -19.5630   -9.0970 O.2   154  ARG154     -0.2715
     18  CB       -27.3640  -19.1240  -11.9000 C.3   154  ARG154      0.0348
     19  CG       -28.3170  -20.2240  -12.2360 C.3   154  ARG154      0.0492
     20  CD       -27.7950  -21.1050  -13.3160 C.3   154  ARG154      0.2205
     21  NE       -28.5940  -22.3280  -13.3740 N.pl3 154  ARG154     -0.0865
     22  CZ       -28.8200  -23.0490  -14.4720 C.cat 154  ARG154      0.5346
     23  NH1      -28.3040  -22.6860  -15.6580 N.pl3 154  ARG154      0.1354
     24  NH2      -29.5800  -24.1440  -14.3820 N.pl3 154  ARG154      0.1354
     25  N        -26.8670  -19.6810   -8.8860 N.am  155  ASP155     -0.1957
     26  CA       -26.9150  -20.6100   -7.7520 C.3   155  ASP155      0.1840
     27  C        -26.2970  -20.0260   -6.4570 C.2   155  ASP155      0.2622
     28  O        -26.7460  -20.3580   -5.3600 O.2   155  ASP155     -0.2715
     29  CB       -26.2540  -21.9470   -8.1270 C.3   155  ASP155      0.1450
     30  CG       -26.7160  -22.4860   -9.5060 C.2   155  ASP155      0.3671
     31  OD1      -27.9080  -22.8770   -9.6630 O.co2 155  ASP155     -0.2456
     32  OD2      -25.8670  -22.5260  -10.4380 O.co2 155  ASP155     -0.2456
     33  N        -25.2990  -19.1430   -6.5750 N.am  156  ASN156     -0.1972
     34  CA       -24.5740  -18.6400   -5.3840 C.3   156  ASN156      0.1688
     35  C        -25.3500  -17.6250   -4.5510 C.2   156  ASN156      0.2292
     36  O        -24.9460  -17.2950   -3.4370 O.2   156  ASN156     -0.2864
     37  CB       -23.1930  -18.0740   -5.7650 C.3   156  ASN156      0.1181
     38  CG       -23.2620  -16.7190   -6.4440 C.2   156  ASN156      0.2629
     39  OD1      -24.2700  -16.0200   -6.3860 O.2   156  ASN156     -0.2716
     40  ND2      -22.1700  -16.3340   -7.0780 N.am  156  ASN156     -0.0877
     41  N        -24.4730   -9.1840   -8.0870 N.3   160  LEU160     -0.1245
     42  CA       -23.2840   -8.5690   -8.6190 C.3   160  LEU160      0.1561
     43  C        -23.5930   -7.6790   -9.8110 C.2   160  LEU160      0.2260
     44  O        -24.5070   -7.9560  -10.5890 O.2   160  LEU160     -0.2867
     45  CB       -22.2670   -9.6490   -8.9920 C.3   160  LEU160      0.0270
     46  CG       -21.6860  -10.4760   -7.8410 C.3   160  LEU160      0.0019
     47  CD1      -20.8990  -11.6560   -8.3970 C.3   160  LEU160      0.0001
     48  CD2      -20.8230   -9.6180   -6.9160 C.3   160  LEU160      0.0001
     49  N        -23.6660   -5.8020  -13.2380 N.3   162  ARG162     -0.1245
     50  CA       -23.5790   -6.3270  -14.6160 C.3   162  ARG162      0.1563
     51  C        -24.2600   -5.3760  -15.5930 C.2   162  ARG162      0.2260
     52  O        -25.4120   -5.0320  -15.3910 O.2   162  ARG162     -0.2867
     53  CB       -24.3140   -7.6790  -14.7260 C.3   162  ARG162      0.0307
     54  CG       -23.8820   -8.7680  -13.7570 C.3   162  ARG162      0.0489
     55  CD       -23.0290   -9.8090  -14.4760 C.3   162  ARG162      0.2205
     56  NE       -22.2740  -10.7360  -13.6160 N.pl3 162  ARG162     -0.0865
     57  CZ       -21.2840  -10.3850  -12.7960 C.cat 162  ARG162      0.5346
     58  NH1      -20.9240   -9.1110  -12.6470 N.pl3 162  ARG162      0.1354
     59  NH2      -20.6550  -11.3200  -12.0980 N.pl3 162  ARG162      0.1354
     60  N        -27.4570   -8.9840  -21.2940 N.3   175  TYR175     -0.1241
     61  CA       -26.4770   -8.5950  -20.2760 C.3   175  TYR175      0.1605
     62  C        -25.0860   -9.1800  -20.5510 C.2   175  TYR175      0.2264
     63  O        -24.9410  -10.1590  -21.2710 O.2   175  TYR175     -0.2867
     64  CB       -26.9730   -8.9170  -18.8460 C.3   175  TYR175      0.0534
     65  CG       -27.3260  -10.3680  -18.5590 C.ar  175  TYR175     -0.0201
     66  CD1      -26.3840  -11.2480  -18.0120 C.ar  175  TYR175     -0.0009
     67  CD2      -28.6080  -10.8550  -18.8010 C.ar  175  TYR175     -0.0009
     68  CE1      -26.7110  -12.5930  -17.7360 C.ar  175  TYR175      0.0417
     69  CE2      -28.9480  -12.1950  -18.5220 C.ar  175  TYR175      0.0417
     70  CZ       -27.9960  -13.0570  -17.9900 C.ar  175  TYR175      0.1957
     71  OH       -28.3350  -14.3790  -17.7320 O.3   175  TYR175     -0.2866
     72  N        -21.2580  -10.0380  -18.5220 N.3   177  ASN177     -0.1240
     73  CA       -20.3950  -10.1220  -17.3130 C.3   177  ASN177      0.1653
     74  C        -18.8960  -10.0080  -17.6330 C.2   177  ASN177      0.2266
     75  O        -18.0830   -9.7120  -16.7540 O.2   177  ASN177     -0.2867
     76  CB       -20.6730  -11.4020  -16.5150 C.3   177  ASN177      0.1155
     77  CG       -20.5150  -12.6660  -17.3480 C.2   177  ASN177      0.2627
     78  OD1      -20.2270  -12.5970  -18.5440 O.2   177  ASN177     -0.2716
     79  ND2      -20.7090  -13.8340  -16.7150 N.am  177  ASN177     -0.0877
     80  N        -23.3350  -12.1400  -22.2860 N.3   182  LYS182     -0.1245
     81  CA       -23.5050  -13.3920  -21.5360 C.3   182  LYS182      0.1561
     82  C        -24.8610  -14.0400  -21.8020 C.2   182  LYS182      0.2260
     83  O        -25.0110  -15.2390  -21.6540 O.2   182  LYS182     -0.2867
     84  CB       -23.2620  -13.1370  -20.0190 C.3   182  LYS182      0.0271
     85  CG       -23.8060  -14.1870  -19.0060 C.3   182  LYS182      0.0035
     86  CD       -23.0750  -15.5480  -19.0130 C.3   182  LYS182      0.0206
     87  CE       -24.1000  -16.7240  -18.8870 C.3   182  LYS182      0.1093
     88  NZ       -23.5160  -18.0640  -18.6330 N.3   182  LYS182     -0.1314
     89  N        -36.3990  -19.1990  -17.2890 N.3   216  ARG216     -0.1245
     90  CA       -35.3170  -18.7510  -16.4350 C.3   216  ARG216      0.1563
     91  C        -35.7910  -17.5570  -15.6380 C.2   216  ARG216      0.2260
     92  O        -36.4310  -16.6710  -16.1820 O.2   216  ARG216     -0.2867
     93  CB       -34.0830  -18.3930  -17.2660 C.3   216  ARG216      0.0307
     94  CG       -32.9370  -17.7700  -16.4880 C.3   216  ARG216      0.0489
     95  CD       -32.4200  -18.6770  -15.3980 C.3   216  ARG216      0.2205
     96  NE       -31.6520  -17.9380  -14.3980 N.pl3 216  ARG216     -0.0865
     97  CZ       -30.3450  -17.7130  -14.4580 C.cat 216  ARG216      0.5346
     98  NH1      -29.6190  -18.1660  -15.4800 N.pl3 216  ARG216      0.1354
     99  NH2      -29.7580  -17.0260  -13.4880 N.pl3 216  ARG216      0.1354
@<TRIPOS>BOND
     1    80    81    1
     2    82    83    2
     3    82    81    1
     4    81    84    1
     5    60    61    1
     6    63    62    2
     7    62    61    1
     8    61    64    1
     9    84    85    1
    10    86    85    1
    11    86    87    1
    12    87    88    1
    13    64    65    1
    14    67    65   ar
    15    67    69   ar
    16    65    66   ar
    17    78    77    2
    18    69    70   ar
    19    72    73    1
    20    66    68   ar
    21    70    68   ar
    22    70    71    1
    23    74    73    1
    24    74    75    2
    25    77    79   am
    26    77    76    1
    27    73    76    1
    28    89    90    1
    29    93    94    1
    30    93    90    1
    31    94    95    1
    32    90    91    1
    33    92    91    2
    34    23    22    1
    35    51    52    2
    36    51    50    1
    37    98    97    1
    38    95    96    1
    39    53    50    1
    40    53    54    1
    41    50    49    1
    42    55    54    1
    43    55    56    1
    44    22    24    1
    45    22    21    2
    46    97    96    2
    47    97    99    1
    48     8     7    1
    49     8     9    1
    50     7     6    1
    51    56    57    2
    52    21    20    1
    53    20    19    1
    54    57    58    1
    55    57    59    1
    56     6     5    1
    57    19    18    1
    58     5     2    1
    59    18    15    1
    60     2     1    1
    61     2     3    1
    62    15    14    1
    63    15    16    1
    64    44    43    2
    65    32    30   ar
    66    14    12   am
    67     3     4    2
    68    43    42    1
    69    31    30   ar
    70    30    29    1
    71    16    17    2
    72    16    25   am
    73    12    11    1
    74    12    13    2
    75    11    10    1
    76    45    42    1
    77    45    46    1
    78    25    26    1
    79    42    41    1
    80    47    46    1
    81    29    26    1
    82    46    48    1
    83    26    27    1
    84    40    38   am
    85    33    27   am
    86    33    34    1
    87    27    28    2
    88    38    39    2
    89    38    37    1
    90    37    34    1
    91    34    35    1
    92    35    36    2
