@<TRIPOS>MOLECULE
tmp/3mdjC01.pdb
 122 120 0 0 0
SMALL
GASTEIGER

@<TRIPOS>ATOM
      1  N          2.4150  140.3560  -51.0440 N.3    23  HIS23      -0.1226
      2  CA         2.7570  141.7400  -50.7800 C.3    23  HIS23       0.1752
      3  C          1.4930  142.4660  -50.3600 C.2    23  HIS23       0.2596
      4  O          0.5890  142.6650  -51.1710 O.2    23  HIS23      -0.2718
      5  CB         3.3340  142.3770  -52.0350 C.3    23  HIS23       0.0759
      6  CG         3.5990  143.8400  -51.8980 C.ar   23  HIS23       0.0818
      7  ND1        4.8650  144.3770  -51.9750 N.ar   23  HIS23      -0.2268
      8  CD2        2.7610  144.8770  -51.6740 C.ar   23  HIS23       0.1154
      9  CE1        4.7920  145.6850  -51.8110 C.ar   23  HIS23       0.1986
     10  NE2        3.5270  146.0140  -51.6260 N.ar   23  HIS23      -0.2212
     11  N          1.4160  142.8500  -49.0920 N.am   24  ALA24      -0.1966
     12  CA         0.2200  143.5240  -48.5920 C.3    24  ALA24       0.1728
     13  C          0.5320  144.9560  -48.1710 C.2    24  ALA24       0.2616
     14  O          1.5310  145.2070  -47.5120 O.2    24  ALA24      -0.2715
     15  CB        -0.3760  142.7550  -47.4320 C.3    24  ALA24       0.0334
     16  N         -0.3300  145.8870  -48.5650 N.am   25  ASN25      -0.1958
     17  CA        -0.2300  147.2740  -48.1340 C.3    25  ASN25       0.1819
     18  C         -1.2970  147.5590  -47.0740 C.2    25  ASN25       0.2621
     19  O         -2.4930  147.5610  -47.3730 O.2    25  ASN25      -0.2715
     20  CB        -0.3510  148.2280  -49.3250 C.3    25  ASN25       0.1195
     21  CG         0.0350  149.6630  -48.9710 C.2    25  ASN25       0.2630
     22  OD1       -0.8360  150.4880  -48.6930 O.2    25  ASN25      -0.2716
     23  ND2        1.3250  149.9740  -49.0110 N.am   25  ASN25      -0.0877
     24  N         -0.8630  147.7760  -45.8350 N.am   26  LEU26      -0.1963
     25  CA        -1.7920  147.9320  -44.7210 C.3    26  LEU26       0.1728
     26  C         -2.3750  149.3340  -44.6720 C.2    26  LEU26       0.2617
     27  O         -3.1530  149.6600  -43.7820 O.2    26  LEU26      -0.2715
     28  CB        -1.1020  147.5980  -43.3990 C.3    26  LEU26       0.0311
     29  CG        -0.4860  146.2050  -43.3080 C.3    26  LEU26       0.0022
     30  CD1       -0.0440  145.9180  -41.8850 C.3    26  LEU26       0.0001
     31  CD2       -1.4790  145.1700  -43.7850 C.3    26  LEU26       0.0001
     32  N         -1.9850  150.1620  -45.6320 N.am   27  THR27      -0.1937
     33  CA        -2.5110  151.5110  -45.7280 C.3    27  THR27       0.2028
     34  C         -3.7140  151.5350  -46.6700 C.2    27  THR27       0.2642
     35  O         -4.8040  151.9470  -46.2830 O.2    27  THR27      -0.2714
     36  CB        -1.4350  152.4920  -46.2310 C.3    27  THR27       0.1808
     37  OG1       -0.2390  152.3390  -45.4530 O.3    27  THR27      -0.2208
     38  CG2       -1.9280  153.9240  -46.1240 C.3    27  THR27       0.0379
     39  N         -3.5070  151.0790  -47.9030 N.am   28  THR28      -0.1950
     40  CA        -4.5720  151.0060  -48.9040 C.3    28  THR28       0.1897
     41  C         -5.4690  149.7960  -48.6800 C.2    28  THR28       0.2313
     42  O         -6.5740  149.7210  -49.2160 O.2    28  THR28      -0.2863
     43  CB        -3.9970  150.9200  -50.3320 C.3    28  THR28       0.1794
     44  OG1       -3.2850  149.6870  -50.4940 O.3    28  THR28      -0.2208
     45  CG2       -3.0580  152.0860  -50.6060 C.3    28  THR28       0.0378
     46  N         -1.1340  141.8980  -53.3000 N.3    32  TRP32      -0.1241
     47  CA        -0.8410  141.2440  -54.5660 C.3    32  TRP32       0.1605
     48  C         -0.1030  139.9440  -54.2710 C.2    32  TRP32       0.2264
     49  O          0.6340  139.8540  -53.2880 O.2    32  TRP32      -0.2867
     50  CB         0.0290  142.1460  -55.4490 C.3    32  TRP32       0.0550
     51  CG        -0.5150  143.5340  -55.6350 C.ar   32  TRP32       0.0003
     52  CD1       -1.1950  144.0100  -56.7180 C.ar   32  TRP32       0.0946
     53  CD2       -0.4160  144.6280  -54.7130 C.ar   32  TRP32       0.0152
     54  NE1       -1.5260  145.3300  -56.5270 N.ar   32  TRP32      -0.2442
     55  CE2       -1.0600  145.7320  -55.3030 C.ar   32  TRP32       0.0810
     56  CE3        0.1530  144.7800  -53.4450 C.ar   32  TRP32       0.0012
     57  CZ2       -1.1510  146.9710  -54.6690 C.ar   32  TRP32       0.0191
     58  CZ3        0.0620  146.0120  -52.8170 C.ar   32  TRP32       0.0001
     59  CH2       -0.5850  147.0890  -53.4300 C.ar   32  TRP32       0.0015
     60  N          6.2500  140.5680  -48.2190 N.3   161  ARG161     -0.1231
     61  CA         6.8010  141.9020  -48.4130 C.3   161  ARG161      0.1694
     62  C          6.1010  142.8960  -47.4880 C.2   161  ARG161      0.2592
     63  O          4.8710  142.9300  -47.4030 O.2   161  ARG161     -0.2718
     64  CB         6.7250  142.3150  -49.8830 C.3   161  ARG161      0.0321
     65  CG         7.3930  141.3020  -50.8030 C.3   161  ARG161      0.0489
     66  CD         8.2110  141.9600  -51.8850 C.3   161  ARG161      0.2205
     67  NE         7.4870  142.0690  -53.1470 N.pl3 161  ARG161     -0.0865
     68  CZ         7.8750  141.4930  -54.2780 C.cat 161  ARG161      0.5346
     69  NH1        8.9830  140.7660  -54.3060 N.pl3 161  ARG161      0.1354
     70  NH2        7.1580  141.6500  -55.3800 N.pl3 161  ARG161      0.1354
     71  N          6.9010  143.6870  -46.7860 N.am  162  ARG162     -0.1966
     72  CA         6.4070  144.5390  -45.7140 C.3   162  ARG162      0.1729
     73  C          7.1690  145.8620  -45.6310 C.2   162  ARG162      0.2616
     74  O          8.2630  146.0000  -46.1790 O.2   162  ARG162     -0.2715
     75  CB         6.5310  143.8020  -44.3770 C.3   162  ARG162      0.0348
     76  CG         7.8760  143.1100  -44.1900 C.3   162  ARG162      0.0492
     77  CD         8.1900  142.8210  -42.7340 C.3   162  ARG162      0.2205
     78  NE         9.0420  143.8550  -42.1640 N.pl3 162  ARG162     -0.0865
     79  CZ        10.3570  143.7380  -42.0020 C.cat 162  ARG162      0.5346
     80  NH1       10.9750  142.6230  -42.3540 N.pl3 162  ARG162      0.1354
     81  NH2       11.0560  144.7330  -41.4760 N.pl3 162  ARG162      0.1354
     82  N          6.5720  146.8330  -44.9460 N.am  163  GLU163     -0.1977
     83  CA         7.2450  148.0850  -44.6270 C.3   163  GLU163      0.1602
     84  C          8.1750  147.8490  -43.4460 C.2   163  GLU163      0.2287
     85  O          7.9750  146.9110  -42.6760 O.2   163  GLU163     -0.2864
     86  CB         6.2260  149.1750  -44.2820 C.3   163  GLU163      0.0415
     87  CG         5.2330  149.4900  -45.3910 C.3   163  GLU163      0.1163
     88  CD         4.2990  150.6330  -45.0320 C.2   163  GLU163      0.3649
     89  OE1        4.7450  151.5850  -44.3570 O.co2 163  GLU163     -0.2457
     90  OE2        3.1170  150.5800  -45.4330 O.co2 163  GLU163     -0.2457
     91  N          8.4300  149.4090  -40.7440 N.3   165  ARG165     -0.1245
     92  CA         7.8110  149.6830  -39.4520 C.3   165  ARG165      0.1563
     93  C          7.0550  148.4570  -38.9530 C.2   165  ARG165      0.2260
     94  O          6.5460  148.4340  -37.8350 O.2   165  ARG165     -0.2867
     95  CB         6.8630  150.8770  -39.5430 C.3   165  ARG165      0.0307
     96  CG         5.6330  150.6250  -40.3950 C.3   165  ARG165      0.0489
     97  CD         4.8960  151.9140  -40.6730 C.3   165  ARG165      0.2205
     98  NE         3.7950  151.7290  -41.6120 N.pl3 165  ARG165     -0.0865
     99  CZ         2.5180  151.8970  -41.2970 C.cat 165  ARG165      0.5346
    100  NH1        2.1820  152.2580  -40.0680 N.pl3 165  ARG165      0.1354
    101  NH2        1.5760  151.7130  -42.2110 N.pl3 165  ARG165      0.1354
    102  N         12.5570  150.6380  -52.0670 N.3   182  GLU182     -0.1231
    103  CA        12.9260  151.7100  -51.1620 C.3   182  GLU182      0.1699
    104  C         12.2450  151.4900  -49.8200 C.2   182  GLU182      0.2593
    105  O         12.9090  151.3620  -48.7910 O.2   182  GLU182     -0.2718
    106  CB        12.5700  153.0790  -51.7490 C.3   182  GLU182      0.0402
    107  CG        13.2730  154.2390  -51.0640 C.3   182  GLU182      0.1161
    108  CD        12.7440  154.4820  -49.6700 C.2   182  GLU182      0.3649
    109  OE1       11.5500  154.2120  -49.4420 O.co2 182  GLU182     -0.2457
    110  OE2       13.5150  154.9400  -48.8060 O.co2 182  GLU182     -0.2457
    111  N         10.9180  151.4220  -49.8310 N.am  183  GLY183     -0.1942
    112  CA        10.1860  151.2170  -48.5950 C.3   183  GLY183      0.2014
    113  C          9.7290  149.7890  -48.3710 C.2   183  GLY183      0.2638
    114  O          8.7320  149.5610  -47.6880 O.2   183  GLY183     -0.2714
    115  N         10.4500  148.8250  -48.9390 N.am  184  LEU184     -0.1977
    116  CA        10.0240  147.4290  -48.8800 C.3   184  LEU184      0.1596
    117  C         11.1050  146.4460  -48.4800 C.2   184  LEU184      0.2287
    118  O         12.2520  146.5430  -48.9050 O.2   184  LEU184     -0.2864
    119  CB         9.4410  146.9810  -50.2100 C.3   184  LEU184      0.0297
    120  CG         7.9850  147.3230  -50.5010 C.3   184  LEU184      0.0022
    121  CD1        7.7830  148.8300  -50.6110 C.3   184  LEU184      0.0001
    122  CD2        7.5750  146.6350  -51.7850 C.3   184  LEU184      0.0001
@<TRIPOS>BOND
     1    52    54   ar
     2    52    51   ar
     3    54    55   ar
     4    51    50    1
     5    51    53   ar
     6    50    47    1
     7    70    68    1
     8    55    53   ar
     9    55    57   ar
    10    53    56   ar
    11    57    59   ar
    12    47    48    1
    13    47    46    1
    14    69    68    1
    15    68    67    2
    16    48    49    2
    17    56    58   ar
    18    59    58   ar
    19    67    66    1
    20   102   103    1
    21     5     6    1
    22     5     2    1
    23     7     6   ar
    24     7     9   ar
    25     6     8   ar
    26    66    65    1
    27     9    10   ar
    28   122   120    1
    29   106   103    1
    30   106   107    1
    31     8    10   ar
    32     4     3    2
    33   103   104    1
    34   107   108    1
    35     1     2    1
    36    65    64    1
    37     2     3    1
    38   121   120    1
    39    45    43    1
    40   120   119    1
    41    44    43    1
    42     3    11   am
    43    43    40    1
    44   119   116    1
    45    64    61    1
    46   111   104   am
    47   111   112    1
    48   104   105    2
    49   108   109   ar
    50   108   110   ar
    51    20    21    1
    52    20    17    1
    53    42    41    2
    54    11    12    1
    55    23    21   am
    56    21    22    2
    57   115   116    1
    58   115   113   am
    59   118   117    2
    60    40    41    1
    61    40    39    1
    62   116   117    1
    63   112   113    1
    64    12    13    1
    65    12    15    1
    66    16    13   am
    67    16    17    1
    68    61    60    1
    69    61    62    1
    70   113   114    2
    71    13    14    2
    72    17    18    1
    73    39    34   am
    74    62    63    2
    75    62    71   am
    76    19    18    2
    77    18    24   am
    78    71    72    1
    79    34    35    2
    80    34    33    1
    81    36    38    1
    82    36    33    1
    83    36    37    1
    84    74    73    2
    85    24    25    1
    86    33    32    1
    87    72    73    1
    88    72    75    1
    89    32    26   am
    90    73    82   am
    91    90    88   ar
    92    87    88    1
    93    87    86    1
    94    88    89   ar
    95    82    83    1
    96    25    26    1
    97    25    28    1
    98    26    27    2
    99    83    86    1
   100    83    84    1
   101    75    76    1
   102    76    77    1
   103    31    29    1
   104    84    85    2
   105    28    29    1
   106    29    30    1
   107    77    78    1
   108    80    79    1
   109   101    99    1
   110    78    79    2
   111    79    81    1
   112    98    99    2
   113    98    97    1
   114    99   100    1
   115    91    92    1
   116    97    96    1
   117    96    95    1
   118    95    92    1
   119    92    93    1
   120    93    94    2
