@<TRIPOS>MOLECULE
tmp/3mdmA01.pdb
 170 162 0 0 0
SMALL
GASTEIGER

@<TRIPOS>ATOM
      1  N        -17.8810    2.5800  -22.6270 N.3    24  PHE24      -0.1241
      2  CA       -18.8280    1.6420  -23.2430 C.3    24  PHE24       0.1605
      3  C        -18.7050    1.7870  -24.7940 C.2    24  PHE24       0.2264
      4  O        -19.6950    1.6910  -25.4840 O.2    24  PHE24      -0.2867
      5  CB       -20.3110    1.8940  -22.8240 C.3    24  PHE24       0.0534
      6  CG       -20.5640    2.0580  -21.3170 C.ar   24  PHE24      -0.0203
      7  CD1      -21.7490    2.6220  -20.8820 C.ar   24  PHE24      -0.0042
      8  CD2      -19.6340    1.6780  -20.3680 C.ar   24  PHE24      -0.0042
      9  CE1      -22.0410    2.8360  -19.5010 C.ar   24  PHE24      -0.0003
     10  CE2      -19.9050    1.8790  -18.9520 C.ar   24  PHE24      -0.0003
     11  CZ       -21.1140    2.4580  -18.5350 C.ar   24  PHE24      -0.0000
     12  N        -26.3360    5.7890  -22.7630 N.3    52  MET52      -0.1230
     13  CA       -25.4160    5.1870  -21.7800 C.3    52  MET52       0.1702
     14  C        -26.1520    4.2160  -20.8780 C.2    52  MET52       0.2592
     15  O        -25.5700    3.2310  -20.4160 O.2    52  MET52      -0.2718
     16  CB       -24.6980    6.2760  -20.9490 C.3    52  MET52       0.0401
     17  CG       -23.9410    7.3370  -21.8160 C.3    52  MET52       0.0596
     18  SD       -22.9480    6.5530  -23.1680 S.3    52  MET52      -0.1393
     19  CE       -21.7140    5.9430  -22.2700 C.3    52  MET52       0.0692
     20  N        -27.4390    4.4040  -20.6620 N.am   53  TYR53      -0.1976
     21  CA       -28.1390    3.4650  -19.7870 C.3    53  TYR53       0.1639
     22  C        -28.6930    2.2490  -20.5000 C.2    53  TYR53       0.2290
     23  O        -29.3250    1.3940  -19.8620 O.2    53  TYR53      -0.2864
     24  CB       -29.2310    4.1620  -19.0010 C.3    53  TYR53       0.0560
     25  CG       -28.6800    5.0590  -17.8910 C.ar   53  TYR53      -0.0198
     26  CD1      -28.1810    6.3600  -18.1650 C.ar   53  TYR53      -0.0009
     27  CD2      -28.5290    4.5620  -16.5920 C.ar   53  TYR53      -0.0009
     28  CE1      -27.5550    7.1030  -17.1880 C.ar   53  TYR53       0.0417
     29  CE2      -27.8950    5.3320  -15.5890 C.ar   53  TYR53       0.0417
     30  CZ       -27.4210    6.5830  -15.8980 C.ar   53  TYR53       0.1957
     31  OH       -26.7980    7.3360  -14.9200 O.3    53  TYR53      -0.2866
     32  N        -26.9420   -0.0730  -21.5110 N.3    55  ALA55      -0.1231
     33  CA       -26.1070   -1.1320  -20.9390 C.3    55  ALA55       0.1694
     34  C        -26.7890   -1.8060  -19.7340 C.2    55  ALA55       0.2591
     35  O        -26.3980   -2.9020  -19.3420 O.2    55  ALA55      -0.2718
     36  CB       -24.7240   -0.5520  -20.4830 C.3    55  ALA55       0.0304
     37  N        -27.7340   -1.1160  -19.1020 N.am   56  LEU56      -0.1980
     38  CA       -28.4970   -1.7160  -17.9990 C.3    56  LEU56       0.1596
     39  C        -29.8830   -2.1360  -18.5110 C.2    56  LEU56       0.2287
     40  O        -30.4190   -3.1000  -18.0240 O.2    56  LEU56      -0.2864
     41  CB       -28.7470   -0.7440  -16.8280 C.3    56  LEU56       0.0297
     42  CG       -27.4880   -0.2820  -16.0880 C.3    56  LEU56       0.0022
     43  CD1      -27.8790    0.6550  -14.9160 C.3    56  LEU56       0.0001
     44  CD2      -26.6940   -1.4940  -15.5730 C.3    56  LEU56       0.0001
     45  N        -32.9130   -4.2910  -16.6240 N.3    65  PHE65      -0.1241
     46  CA       -33.4990   -3.2100  -15.8430 C.3    65  PHE65       0.1605
     47  C        -34.6220   -2.5260  -16.6470 C.2    65  PHE65       0.2264
     48  O        -35.3590   -1.7530  -16.0910 O.2    65  PHE65      -0.2867
     49  CB       -32.4180   -2.1380  -15.4780 C.3    65  PHE65       0.0534
     50  CG       -31.4370   -2.5150  -14.3790 C.ar   65  PHE65      -0.0203
     51  CD1      -31.5450   -1.9300  -13.1060 C.ar   65  PHE65      -0.0042
     52  CD2      -30.3840   -3.3800  -14.6320 C.ar   65  PHE65      -0.0042
     53  CE1      -30.6030   -2.2240  -12.0890 C.ar   65  PHE65      -0.0003
     54  CE2      -29.4460   -3.6820  -13.6210 C.ar   65  PHE65      -0.0003
     55  CZ       -29.5770   -3.0920  -12.3430 C.ar   65  PHE65      -0.0000
     56  N        -34.1460    3.2240  -12.2520 N.3    70  VAL70      -0.1245
     57  CA       -32.7710    3.6840  -12.5060 C.3    70  VAL70       0.1561
     58  C        -32.4780    4.0070  -13.9840 C.2    70  VAL70       0.2260
     59  O        -31.7910    4.9890  -14.3150 O.2    70  VAL70      -0.2867
     60  CB       -31.7430    2.5340  -12.1060 C.3    70  VAL70       0.0252
     61  CG1      -30.3260    2.8850  -12.5860 C.3    70  VAL70       0.0019
     62  CG2      -31.7260    2.3820  -10.6420 C.3    70  VAL70       0.0019
     63  N        -24.2620   -9.4800  -13.2300 N.3   163  LEU163     -0.1245
     64  CA       -23.4930   -8.2750  -12.9580 C.3   163  LEU163      0.1561
     65  C        -22.1750   -8.3480  -13.7780 C.2   163  LEU163      0.2260
     66  O        -21.7300   -7.3220  -14.3140 O.2   163  LEU163     -0.2867
     67  CB       -23.1920   -8.1530  -11.4700 C.3   163  LEU163      0.0270
     68  CG       -24.4310   -7.9390  -10.5940 C.3   163  LEU163      0.0019
     69  CD1      -24.0730   -8.1660   -9.1300 C.3   163  LEU163      0.0001
     70  CD2      -24.9320   -6.5260  -10.8020 C.3   163  LEU163      0.0001
     71  N        -23.0700   -7.4530  -17.2850 N.3   166  ILE166     -0.1245
     72  CA       -23.2470   -6.0390  -17.5660 C.3   166  ILE166      0.1561
     73  C        -21.8930   -5.4220  -17.9940 C.2   166  ILE166      0.2260
     74  O        -21.8210   -4.7070  -18.9830 O.2   166  ILE166     -0.2867
     75  CB       -23.7930   -5.3180  -16.3290 C.3   166  ILE166      0.0252
     76  CG1      -25.2980   -5.6330  -16.1430 C.3   166  ILE166      0.0019
     77  CG2      -23.6120   -3.7920  -16.4670 C.3   166  ILE166      0.0019
     78  CD1      -25.8220   -5.1100  -14.8170 C.3   166  ILE166      0.0001
     79  N        -20.7160   -4.3560  -22.0580 N.3   170  ARG170     -0.1245
     80  CA       -20.4820   -2.9750  -22.4620 C.3   170  ARG170      0.1563
     81  C        -19.0310   -2.6350  -22.7640 C.2   170  ARG170      0.2260
     82  O        -18.7610   -1.5950  -23.3590 O.2   170  ARG170     -0.2867
     83  CB       -21.1040   -1.9900  -21.4250 C.3   170  ARG170      0.0307
     84  CG       -20.3430   -1.9180  -20.0920 C.3   170  ARG170      0.0489
     85  CD       -21.2430   -1.2320  -18.9950 C.3   170  ARG170      0.2205
     86  NE       -20.5390   -1.1790  -17.7310 N.pl3 170  ARG170     -0.0865
     87  CZ       -21.1630   -0.8650  -16.5900 C.cat 170  ARG170      0.5346
     88  NH1      -20.4700   -0.8000  -15.4640 N.pl3 170  ARG170      0.1354
     89  NH2      -22.4640   -0.6290  -16.5910 N.pl3 170  ARG170      0.1354
     90  N        -31.7920   -5.8580   -7.4140 N.3   245  ILE245     -0.1231
     91  CA       -30.3450   -5.7300   -7.5280 C.3   245  ILE245      0.1692
     92  C        -29.8270   -4.4940   -6.8060 C.2   245  ILE245      0.2591
     93  O        -28.9140   -4.5810   -5.9810 O.2   245  ILE245     -0.2718
     94  CB       -29.9440   -5.6500   -8.9990 C.3   245  ILE245      0.0266
     95  CG1      -30.3730   -6.9200   -9.7010 C.3   245  ILE245      0.0019
     96  CG2      -28.3960   -5.3950   -9.1450 C.3   245  ILE245      0.0020
     97  CD1      -30.0750   -6.9390  -11.1330 C.3   245  ILE245      0.0001
     98  N        -30.3820   -3.3290   -7.1050 N.am  246  ALA246     -0.1980
     99  CA       -29.8460   -2.0950   -6.5190 C.3   246  ALA246      0.1597
    100  C        -29.9800   -2.0620   -5.0140 C.2   246  ALA246      0.2287
    101  O        -29.1370   -1.4860   -4.3350 O.2   246  ALA246     -0.2864
    102  CB       -30.5930   -0.8760   -7.1310 C.3   246  ALA246      0.0319
    103  N        -26.9750   -5.3280   -3.8150 N.3   249  GLU249     -0.1231
    104  CA       -25.5780   -5.5540   -4.2120 C.3   249  GLU249      0.1699
    105  C        -24.6300   -4.3550   -3.9380 C.2   249  GLU249      0.2592
    106  O        -23.4640   -4.5530   -3.4980 O.2   249  GLU249     -0.2718
    107  CB       -25.5790   -6.0390   -5.6790 C.3   249  GLU249      0.0402
    108  CG       -25.5070   -4.9820   -6.6400 C.3   249  GLU249      0.1161
    109  CD       -24.0710   -4.5910   -6.8900 C.2   249  GLU249      0.3649
    110  OE1      -23.8220   -3.3850   -7.0500 O.co2 249  GLU249     -0.2457
    111  OE2      -23.1960   -5.4670   -6.9390 O.co2 249  GLU249     -0.2457
    112  N        -25.1220   -3.1230   -4.0480 N.am  250  THR250     -0.1953
    113  CA       -24.2980   -1.9730   -3.8460 C.3   250  THR250      0.1897
    114  C        -23.9690   -1.7860   -2.3460 C.2   250  THR250      0.2313
    115  O        -22.8020   -1.5140   -1.9660 O.2   250  THR250     -0.2863
    116  CB       -25.0710   -0.8480   -4.5130 C.3   250  THR250      0.1794
    117  OG1      -25.4630   -1.3480   -5.8250 O.3   250  THR250     -0.2208
    118  CG2      -24.2500    0.3040   -4.7720 C.3   250  THR250      0.0378
    119  N        -21.1100    2.7070   -6.8080 N.3   311  ALA311     -0.1231
    120  CA       -21.7870    3.2920   -7.9780 C.3   311  ALA311      0.1694
    121  C        -20.8770    4.4880   -8.3180 C.2   311  ALA311      0.2592
    122  O        -20.8830    5.5650   -7.6860 O.2   311  ALA311     -0.2718
    123  CB       -23.1920    3.6790   -7.5700 C.3   311  ALA311      0.0304
    124  N        -20.1140    4.2780   -9.3810 N.am  312  TRP312     -0.1962
    125  CA       -18.9950    5.1190   -9.7110 C.3   312  TRP312      0.1771
    126  C        -19.1990    6.2450  -10.6560 C.2   312  TRP312      0.2620
    127  O        -18.2820    7.0310  -10.8430 O.2   312  TRP312     -0.2715
    128  CB       -17.9040    4.1700  -10.2370 C.3   312  TRP312      0.0590
    129  CG       -18.3890    3.2970  -11.3660 C.ar  312  TRP312      0.0006
    130  CD1      -18.8730    1.9760  -11.2680 C.ar  312  TRP312      0.0946
    131  CD2      -18.4980    3.6570  -12.7410 C.ar  312  TRP312      0.0152
    132  NE1      -19.2470    1.5250  -12.5240 N.ar  312  TRP312     -0.2442
    133  CE2      -19.0370    2.5260  -13.4450 C.ar  312  TRP312      0.0810
    134  CE3      -18.1870    4.8110  -13.4650 C.ar  312  TRP312      0.0012
    135  CZ2      -19.2590    2.5350  -14.8500 C.ar  312  TRP312      0.0191
    136  CZ3      -18.3990    4.8170  -14.8630 C.ar  312  TRP312      0.0001
    137  CH2      -18.9290    3.6820  -15.5340 C.ar  312  TRP312      0.0015
    138  N        -20.3630    6.2850  -11.2920 N.am  313  GLY313     -0.1954
    139  CA       -20.5690    7.3620  -12.2640 C.3   313  GLY313      0.1869
    140  C        -22.0310    7.4780  -12.6470 C.2   313  GLY313      0.2309
    141  O        -22.8400    6.6140  -12.3300 O.2   313  GLY313     -0.2863
    142  N        -24.5430    9.7070  -15.8190 N.3   315  PHE315     -0.1241
    143  CA       -24.4430   10.4800  -17.0700 C.3   315  PHE315      0.1605
    144  C        -25.6670   11.3670  -17.2660 C.2   315  PHE315      0.2264
    145  O        -26.8250   11.0000  -16.9350 O.2   315  PHE315     -0.2867
    146  CB       -24.4760    9.5260  -18.2870 C.3   315  PHE315      0.0534
    147  CG       -23.2320    8.6880  -18.4490 C.ar  315  PHE315     -0.0203
    148  CD1      -22.0910    9.1620  -19.1440 C.ar  315  PHE315     -0.0042
    149  CD2      -23.2180    7.4160  -17.9050 C.ar  315  PHE315     -0.0042
    150  CE1      -20.9670    8.3370  -19.2730 C.ar  315  PHE315     -0.0003
    151  CE2      -22.1100    6.6160  -18.0180 C.ar  315  PHE315     -0.0003
    152  CZ       -20.9950    7.0660  -18.6950 C.ar  315  PHE315     -0.0000
    153  N        -30.0410    8.7890   -5.3150 N.3   381  CYS381     -0.1235
    154  CA       -30.5300    7.4710   -4.8460 C.3   381  CYS381      0.1677
    155  C        -31.7520    7.5350   -3.9380 C.2   381  CYS381      0.2270
    156  O        -31.7340    8.1520   -2.8560 O.2   381  CYS381     -0.2867
    157  CB       -29.3630    6.7980   -4.1020 C.3   381  CYS381      0.0956
    158  SG       -29.7630    5.1160   -3.5150 S.3   381  CYS381     -0.0801
    159  N        -20.3060   -4.4460  -12.9240 N.3   418  ALA418     -0.1231
    160  CA       -21.3850   -3.4040  -13.0220 C.3   418  ALA418      0.1694
    161  C        -20.9140   -2.2880  -12.0720 C.2   418  ALA418      0.2592
    162  O        -20.4240   -1.2710  -12.5670 O.2   418  ALA418     -0.2718
    163  CB       -22.7650   -3.9580  -12.6340 C.3   418  ALA418      0.0304
    164  N        -21.0260   -2.4910  -10.7570 N.am  419  THR419     -0.1953
    165  CA       -20.4960   -1.5380   -9.7610 C.3   419  THR419      0.1897
    166  C        -19.0880   -1.9630   -9.3480 C.2   419  THR419      0.2313
    167  O        -18.5810   -3.0050   -9.7460 O.2   419  THR419     -0.2863
    168  CB       -21.3440   -1.5590   -8.5280 C.3   419  THR419      0.1794
    169  OG1      -21.5470   -2.9330   -8.1120 O.3   419  THR419     -0.2208
    170  CG2      -22.7420   -0.9850   -8.8830 C.3   419  THR419      0.0378
@<TRIPOS>BOND
     1     4     3    2
     2     3     2    1
     3    82    81    2
     4     2     5    1
     5     2     1    1
     6    18    19    1
     7    18    17    1
     8     5     6    1
     9    81    80    1
    10    12    13    1
    11    80    79    1
    12    80    83    1
    13    17    16    1
    14    13    16    1
    15    13    14    1
    16    32    33    1
    17    83    84    1
    18     6     7   ar
    19     6     8   ar
    20    33    36    1
    21    33    34    1
    22     7     9   ar
    23    14    20   am
    24    14    15    2
    25    20    21    1
    26    22    23    2
    27    22    21    1
    28     8    10   ar
    29    84    85    1
    30    21    24    1
    31    34    35    2
    32    34    37   am
    33     9    11   ar
    34   150   148   ar
    35   150   152   ar
    36   148   147   ar
    37    37    38    1
    38    24    25    1
    39    85    86    1
    40    74    73    2
    41    10    11   ar
    42   152   151   ar
    43    39    40    2
    44    39    38    1
    45   147   146    1
    46   147   149   ar
    47   146   143    1
    48    26    25   ar
    49    26    28   ar
    50   151   149   ar
    51    38    41    1
    52    73    72    1
    53    25    27   ar
    54    86    87    2
    55    72    71    1
    56    72    75    1
    57   144   143    1
    58   144   145    2
    59    28    30   ar
    60   143   142    1
    61    41    42    1
    62    47    48    2
    63    47    46    1
    64    45    46    1
    65    27    29   ar
    66    89    87    1
    67    87    88    1
    68    77    75    1
    69    75    76    1
    70    76    78    1
    71    42    44    1
    72    42    43    1
    73    30    29   ar
    74    30    31    1
    75    46    49    1
    76   137   136   ar
    77   137   135   ar
    78    49    50    1
    79   136   134   ar
    80   135   133   ar
    81    52    50   ar
    82    52    54   ar
    83    50    51   ar
    84    59    58    2
    85    66    65    2
    86    58    57    1
    87    65    64    1
    88    54    55   ar
    89   134   131   ar
    90   133   131   ar
    91   133   132   ar
    92    63    64    1
    93    51    53   ar
    94   160   159    1
    95   160   163    1
    96   160   161    1
    97    64    67    1
    98   131   129   ar
    99   140   141    2
   100   140   139    1
   101    61    60    1
   102   162   161    2
   103   132   130   ar
   104    57    56    1
   105    57    60    1
   106    55    53   ar
   107   139   138    1
   108    60    62    1
   109   161   164   am
   110    67    68    1
   111   129   130   ar
   112   129   128    1
   113   138   126   am
   114    97    95    1
   115   127   126    2
   116    70    68    1
   117   164   165    1
   118   126   125    1
   119    68    69    1
   120   128   125    1
   121   165   166    1
   122   165   168    1
   123   167   166    2
   124   125   124    1
   125    95    94    1
   126   124   121   am
   127    96    94    1
   128    94    91    1
   129   170   168    1
   130   168   169    1
   131   121   120    1
   132   121   122    2
   133   120   123    1
   134   120   119    1
   135    91    90    1
   136    91    92    1
   137   102    99    1
   138    98    92   am
   139    98    99    1
   140   110   109   ar
   141   111   109   ar
   142   109   108    1
   143    92    93    2
   144   108   107    1
   145    99   100    1
   146   117   116    1
   147   107   104    1
   148   153   154    1
   149   100   101    2
   150   154   157    1
   151   154   155    1
   152   118   116    1
   153   116   113    1
   154   104   105    1
   155   104   103    1
   156   157   158    1
   157   112   105   am
   158   112   113    1
   159   155   156    2
   160   105   106    2
   161   113   114    1
   162   114   115    2
