@<TRIPOS>MOLECULE
tmp/3mdpA00.pdb
 83 81 0 0 0
SMALL
GASTEIGER

@<TRIPOS>ATOM
      1  N         49.2030   19.8120   16.8570 N.3    39  PHE39      -0.1241
      2  CA        49.8080   19.2860   18.0760 C.3    39  PHE39       0.1605
      3  C         49.5330   20.2290   19.2380 C.2    39  PHE39       0.2264
      4  O         49.1980   21.3870   19.0290 O.2    39  PHE39      -0.2867
      5  CB        51.3220   18.9820   17.9160 C.3    39  PHE39       0.0534
      6  CG        52.1820   20.1650   17.5010 C.ar   39  PHE39      -0.0203
      7  CD1       52.4690   21.2010   18.3960 C.ar   39  PHE39      -0.0042
      8  CD2       52.7570   20.2100   16.2410 C.ar   39  PHE39      -0.0042
      9  CE1       53.2640   22.2750   18.0410 C.ar   39  PHE39      -0.0003
     10  CE2       53.5700   21.2610   15.8820 C.ar   39  PHE39      -0.0003
     11  CZ        53.8420   22.3020   16.7960 C.ar   39  PHE39      -0.0000
     12  N         50.5390   29.2760   15.9970 N.3    57  LEU57      -0.1245
     13  CA        51.0680   28.7120   17.2130 C.3    57  LEU57       0.1561
     14  C         50.4320   29.5270   18.3070 C.2    57  LEU57       0.2260
     15  O         50.4410   30.7640   18.2540 O.2    57  LEU57      -0.2867
     16  CB        52.5860   28.8440   17.2240 C.3    57  LEU57       0.0270
     17  CG        53.2830   28.1680   16.0490 C.3    57  LEU57       0.0019
     18  CD1       54.7780   28.2870   16.2280 C.3    57  LEU57       0.0001
     19  CD2       52.8150   26.6590   15.9030 C.3    57  LEU57       0.0001
     20  N         57.9020   24.2650   11.8940 N.3    72  PHE72      -0.1227
     21  CA        57.2920   24.3930   13.2200 C.3    72  PHE72       0.1736
     22  C         57.3230   23.0350   13.9070 C.2    72  PHE72       0.2596
     23  O         57.6800   22.0480   13.2940 O.2    72  PHE72      -0.2718
     24  CB        55.8770   25.0470   13.1470 C.3    72  PHE72       0.0547
     25  CG        54.8370   24.2200   12.4120 C.ar   72  PHE72      -0.0202
     26  CD1       54.8080   24.1770   11.0350 C.ar   72  PHE72      -0.0042
     27  CD2       53.8770   23.5050   13.1140 C.ar   72  PHE72      -0.0042
     28  CE1       53.8510   23.3920   10.3530 C.ar   72  PHE72      -0.0003
     29  CE2       52.9070   22.7750   12.4560 C.ar   72  PHE72      -0.0003
     30  CZ        52.8870   22.7220   11.0680 C.ar   72  PHE72      -0.0000
     31  N         57.0350   23.0000   15.2020 N.am   73  GLY73      -0.1942
     32  CA        57.3820   21.8300   16.0160 C.3    73  GLY73       0.2014
     33  C         58.8660   21.7430   16.3380 C.2    73  GLY73       0.2639
     34  O         59.4050   20.6500   16.5170 O.2    73  GLY73      -0.2714
     35  N         59.5240   22.8950   16.4490 N.am   74  VAL74      -0.1963
     36  CA        60.9840   22.9610   16.6030 C.3    74  VAL74       0.1727
     37  C         61.4990   22.3140   17.8960 C.2    74  VAL74       0.2616
     38  O         62.6470   21.8590   17.9570 O.2    74  VAL74      -0.2715
     39  CB        61.5320   24.4210   16.5040 C.3    74  VAL74       0.0290
     40  CG1       61.3120   24.9770   15.1050 C.3    74  VAL74       0.0023
     41  CG2       60.8980   25.3510   17.5840 C.3    74  VAL74       0.0023
     42  N         60.6640   22.2450   18.9270 N.am   75  SER75      -0.1950
     43  CA        61.0760   21.5480   20.1690 C.3    75  SER75       0.1924
     44  C         61.3370   20.0370   19.9880 C.2    75  SER75       0.2314
     45  O         61.8860   19.4010   20.8830 O.2    75  SER75      -0.2863
     46  CB        60.0710   21.7910   21.2970 C.3    75  SER75       0.2116
     47  OG        60.1580   23.1280   21.7480 O.3    75  SER75      -0.2180
     48  N         56.4540   20.3290   23.3040 N.3    83  TYR83      -0.1227
     49  CA        55.9730   21.5150   22.5930 C.3    83  TYR83       0.1736
     50  C         55.6830   22.6670   23.5680 C.2    83  TYR83       0.2596
     51  O         55.0470   22.4850   24.6160 O.2    83  TYR83      -0.2718
     52  CB        54.7350   21.1730   21.7630 C.3    83  TYR83       0.0548
     53  CG        54.9640   20.1760   20.6290 C.ar   83  TYR83      -0.0200
     54  CD1       55.8570   20.4500   19.6050 C.ar   83  TYR83      -0.0009
     55  CD2       54.2330   18.9780   20.5540 C.ar   83  TYR83      -0.0009
     56  CE1       56.0440   19.5760   18.5700 C.ar   83  TYR83       0.0417
     57  CE2       54.4170   18.0880   19.5120 C.ar   83  TYR83       0.0417
     58  CZ        55.3040   18.3900   18.5120 C.ar   83  TYR83       0.1957
     59  OH        55.4950   17.4920   17.4740 O.3    83  TYR83      -0.2866
     60  N         56.1550   23.8580   23.2130 N.am   84  THR84      -0.1939
     61  CA        56.0170   25.0370   24.0680 C.3    84  THR84       0.2028
     62  C         54.7720   25.8290   23.6810 C.2    84  THR84       0.2642
     63  O         54.3870   26.7980   24.3500 O.2    84  THR84      -0.2714
     64  CB        57.2780   25.9350   23.9830 C.3    84  THR84       0.1808
     65  OG1       57.5350   26.2760   22.6080 O.3    84  THR84      -0.2208
     66  CG2       58.5040   25.2030   24.5900 C.3    84  THR84       0.0379
     67  N         54.1290   25.4030   22.6020 N.am   85  SER85      -0.1949
     68  CA        52.8670   25.9880   22.1880 C.3    85  SER85       0.1924
     69  C         52.0800   24.9350   21.4480 C.2    85  SER85       0.2314
     70  O         52.6340   23.9130   21.0650 O.2    85  SER85      -0.2863
     71  CB        53.1400   27.2190   21.3070 C.3    85  SER85       0.2116
     72  OG        53.7310   26.8470   20.0780 O.3    85  SER85      -0.2180
     73  N         61.7930   33.9450   12.6730 N.3   126  ARG126     -0.1245
     74  CA        60.4010   34.2630   13.0610 C.3   126  ARG126      0.1563
     75  C         60.1850   35.7150   13.4830 C.2   126  ARG126      0.2260
     76  O         59.0540   36.2080   13.4320 O.2   126  ARG126     -0.2867
     77  CB        59.9200   33.3520   14.1910 C.3   126  ARG126      0.0307
     78  CG        59.7030   31.9510   13.7380 C.3   126  ARG126      0.0489
     79  CD        59.3670   31.0510   14.8870 C.3   126  ARG126      0.2205
     80  NE        59.0580   29.6960   14.4490 N.pl3 126  ARG126     -0.0865
     81  CZ        58.6860   28.7160   15.2640 C.cat 126  ARG126      0.5346
     82  NH1       58.5700   28.9210   16.5830 N.pl3 126  ARG126      0.1354
     83  NH2       58.4170   27.5340   14.7650 N.pl3 126  ARG126      0.1354
@<TRIPOS>BOND
     1    28    26   ar
     2    28    30   ar
     3    26    25   ar
     4    30    29   ar
     5    20    21    1
     6    25    27   ar
     7    25    24    1
     8    29    27   ar
     9    73    74    1
    10    74    75    1
    11    74    77    1
    12    24    21    1
    13    21    22    1
    14    23    22    2
    15    76    75    2
    16    78    77    1
    17    78    79    1
    18    22    31   am
    19    80    79    1
    20    80    81    2
    21    83    81    1
    22    40    39    1
    23    31    32    1
    24    81    82    1
    25    10     8   ar
    26    10    11   ar
    27    19    17    1
    28    12    13    1
    29    32    33    1
    30    17    18    1
    31    17    16    1
    32     8     6   ar
    33    33    35   am
    34    33    34    2
    35    35    36    1
    36    39    36    1
    37    39    41    1
    38    36    37    1
    39    11     9   ar
    40     1     2    1
    41    13    16    1
    42    13    14    1
    43    59    58    1
    44     6     5    1
    45     6     7   ar
    46    37    38    2
    47    37    42   am
    48     5     2    1
    49     9     7   ar
    50     2     3    1
    51    15    14    2
    52    58    56   ar
    53    58    57   ar
    54    56    54   ar
    55    42    43    1
    56     4     3    2
    57    57    55   ar
    58    54    53   ar
    59    44    43    1
    60    44    45    2
    61    72    71    1
    62    43    46    1
    63    55    53   ar
    64    53    52    1
    65    70    69    2
    66    46    47    1
    67    71    68    1
    68    69    68    1
    69    52    49    1
    70    68    67    1
    71    49    48    1
    72    49    50    1
    73    67    62   am
    74    65    64    1
    75    60    50   am
    76    60    61    1
    77    50    51    2
    78    62    61    1
    79    62    63    2
    80    64    61    1
    81    64    66    1
