@<TRIPOS>MOLECULE
tmp/3mdrB01.pdb
 86 78 0 0 0
SMALL
GASTEIGER

@<TRIPOS>ATOM
      1  N         67.3540  -26.5610   31.2990 N.3    55  LEU55      -0.1245
      2  CA        67.6730  -27.8010   30.5920 C.3    55  LEU55       0.1561
      3  C         69.1840  -27.9230   30.3920 C.2    55  LEU55       0.2260
      4  O         69.7370  -29.0360   30.4200 O.2    55  LEU55      -0.2867
      5  CB        66.9830  -27.8530   29.2150 C.3    55  LEU55       0.0270
      6  CG        65.4570  -27.9820   29.0790 C.3    55  LEU55       0.0019
      7  CD1       65.0730  -27.9970   27.6090 C.3    55  LEU55       0.0001
      8  CD2       64.9150  -29.2010   29.7580 C.3    55  LEU55       0.0001
      9  N         71.6450  -30.9890   29.0670 N.3    64  PHE64      -0.1241
     10  CA        71.4700  -30.8130   27.6340 C.3    64  PHE64       0.1605
     11  C         72.5390  -29.8830   27.1090 C.2    64  PHE64       0.2264
     12  O         72.7390  -29.8020   25.8970 O.2    64  PHE64      -0.2867
     13  CB        70.0880  -30.2340   27.2740 C.3    64  PHE64       0.0534
     14  CG        68.9350  -31.1780   27.4970 C.ar   64  PHE64      -0.0203
     15  CD1       68.4300  -31.4030   28.7720 C.ar   64  PHE64      -0.0042
     16  CD2       68.3190  -31.7950   26.4230 C.ar   64  PHE64      -0.0042
     17  CE1       67.3610  -32.2780   28.9730 C.ar   64  PHE64      -0.0003
     18  CE2       67.2460  -32.6570   26.6110 C.ar   64  PHE64      -0.0003
     19  CZ        66.7710  -32.9100   27.8760 C.ar   64  PHE64      -0.0000
     20  N         68.4670  -28.7330   21.2230 N.3    69  VAL69      -0.1245
     21  CA        67.2820  -28.1300   21.8500 C.3    69  VAL69       0.1561
     22  C         67.6850  -26.8170   22.5300 C.2    69  VAL69       0.2260
     23  O         67.1020  -25.7670   22.2520 O.2    69  VAL69      -0.2867
     24  CB        66.5930  -29.0850   22.9010 C.3    69  VAL69       0.0252
     25  CG1       65.3870  -28.4120   23.5790 C.3    69  VAL69       0.0019
     26  CG2       66.1250  -30.3840   22.2470 C.3    69  VAL69       0.0019
     27  N         64.5360  -31.9640   36.4040 N.3   165  ILE165     -0.1245
     28  CA        64.2400  -30.8250   35.5280 C.3   165  ILE165      0.1561
     29  C         63.0210  -30.0910   36.0650 C.2   165  ILE165      0.2260
     30  O         62.9880  -28.8680   36.0880 O.2   165  ILE165     -0.2867
     31  CB        64.0230  -31.2460   34.0510 C.3   165  ILE165      0.0252
     32  CG1       65.3590  -31.6230   33.4000 C.3   165  ILE165      0.0019
     33  CG2       63.3600  -30.1100   33.2450 C.3   165  ILE165      0.0019
     34  CD1       65.2020  -32.2390   32.0040 C.3   165  ILE165      0.0001
     35  N         66.9340  -38.1750   25.1680 N.3   237  ILE237     -0.1231
     36  CA        65.7490  -37.7940   25.9250 C.3   237  ILE237      0.1692
     37  C         64.6500  -37.2880   25.0200 C.2   237  ILE237      0.2591
     38  O         63.5230  -37.7640   25.0860 O.2   237  ILE237     -0.2718
     39  CB        66.0690  -36.6960   26.9840 C.3   237  ILE237      0.0266
     40  CG1       67.1680  -37.1550   27.9690 C.3   237  ILE237      0.0019
     41  CG2       64.7810  -36.2820   27.7230 C.3   237  ILE237      0.0020
     42  CD1       67.1810  -38.6480   28.3830 C.3   237  ILE237      0.0001
     43  N         64.9860  -36.3130   24.1840 N.am  238  ALA238     -0.1980
     44  CA        64.0440  -35.6920   23.2880 C.3   238  ALA238      0.1597
     45  C         63.5700  -36.6770   22.2080 C.2   238  ALA238      0.2287
     46  O         62.5490  -36.4640   21.5810 O.2   238  ALA238     -0.2864
     47  CB        64.6510  -34.4570   22.6490 C.3   238  ALA238      0.0319
     48  N         61.0590  -39.2400   24.8160 N.3   241  GLU241     -0.1231
     49  CA        60.1460  -38.8750   25.9100 C.3   241  GLU241      0.1699
     50  C         58.7900  -38.3730   25.3920 C.2   241  GLU241      0.2592
     51  O         57.7510  -38.8390   25.8160 O.2   241  GLU241     -0.2718
     52  CB        60.7890  -37.8870   26.9050 C.3   241  GLU241      0.0402
     53  CG        59.8310  -37.2840   27.9180 C.3   241  GLU241      0.1161
     54  CD        59.4140  -38.2690   29.0290 C.2   241  GLU241      0.3649
     55  OE1       58.4310  -37.9940   29.7700 O.co2 241  GLU241     -0.2457
     56  OE2       60.0770  -39.3200   29.1720 O.co2 241  GLU241     -0.2457
     57  N         58.8390  -37.4260   24.4650 N.am  242  THR242     -0.1953
     58  CA        57.6540  -36.8420   23.9180 C.3   242  THR242      0.1897
     59  C         56.8770  -37.8760   23.0950 C.2   242  THR242      0.2313
     60  O         55.6950  -37.8570   23.1130 O.2   242  THR242     -0.2863
     61  CB        57.9310  -35.5740   23.0400 C.3   242  THR242      0.1794
     62  OG1       59.1020  -35.7920   22.2440 O.3   242  THR242     -0.2208
     63  CG2       58.1660  -34.3230   23.8430 C.3   242  THR242      0.0378
     64  N         54.9390  -31.5090   24.5540 N.3   303  ALA303     -0.1245
     65  CA        55.6970  -30.2880   24.6540 C.3   303  ALA303      0.1562
     66  C         54.7410  -29.1140   24.4020 C.2   303  ALA303      0.2260
     67  O         54.3650  -28.8080   23.2460 O.2   303  ALA303     -0.2867
     68  CB        56.8870  -30.3010   23.6520 C.3   303  ALA303      0.0290
     69  N         60.5710  -29.0270   15.5360 N.3   373  CYS373     -0.1235
     70  CA        61.0860  -30.3280   15.8950 C.3   373  CYS373      0.1677
     71  C         61.7440  -31.0140   14.6900 C.2   373  CYS373      0.2270
     72  O         61.0780  -31.3080   13.6880 O.2   373  CYS373     -0.2867
     73  CB        59.9480  -31.2320   16.4180 C.3   373  CYS373      0.0956
     74  SG        60.5090  -32.8970   16.6100 S.3   373  CYS373     -0.0801
     75  N         59.0580  -32.6510   32.9070 N.3   410  ALA410     -0.1231
     76  CA        59.7690  -31.9190   31.8720 C.3   410  ALA410      0.1694
     77  C         58.8370  -31.7360   30.6630 C.2   410  ALA410      0.2592
     78  O         59.0870  -30.9080   29.8050 O.2   410  ALA410     -0.2718
     79  CB        61.0210  -32.6830   31.4710 C.3   410  ALA410      0.0304
     80  N         57.7760  -32.5350   30.6040 N.am  411  THR411     -0.1953
     81  CA        56.7890  -32.4350   29.5330 C.3   411  THR411      0.1897
     82  C         55.4390  -32.7840   30.1430 C.2   411  THR411      0.2313
     83  O         55.3670  -33.2540   31.2960 O.2   411  THR411     -0.2863
     84  CB        57.0970  -33.4860   28.4110 C.3   411  THR411      0.1794
     85  OG1       57.1420  -34.7750   28.9990 O.3   411  THR411     -0.2208
     86  CG2       58.4370  -33.2360   27.7280 C.3   411  THR411      0.0378
@<TRIPOS>BOND
     1    72    71    2
     2    71    70    1
     3    69    70    1
     4    70    73    1
     5    73    74    1
     6    20    21    1
     7    46    45    2
     8    21    22    1
     9    21    24    1
    10    45    44    1
    11    62    61    1
    12    26    24    1
    13    23    22    2
    14    47    44    1
    15    24    25    1
    16    61    63    1
    17    61    58    1
    18    59    60    2
    19    59    58    1
    20    67    66    2
    21    44    43    1
    22    68    65    1
    23    58    57    1
    24    43    37   am
    25    66    65    1
    26    57    50   am
    27    64    65    1
    28    48    49    1
    29    37    38    2
    30    37    36    1
    31    35    36    1
    32    50    51    2
    33    50    49    1
    34    12    11    2
    35    49    52    1
    36    36    39    1
    37    16    18   ar
    38    16    14   ar
    39    18    19   ar
    40    52    53    1
    41    39    41    1
    42    39    40    1
    43    11    10    1
    44    13    14    1
    45    13    10    1
    46    14    15   ar
    47     7     6    1
    48    10     9    1
    49    86    84    1
    50    19    17   ar
    51    53    54    1
    52    40    42    1
    53    84    85    1
    54    84    81    1
    55    15    17   ar
    56    54    56   ar
    57    54    55   ar
    58     6     5    1
    59     6     8    1
    60     5     2    1
    61    81    82    1
    62    81    80    1
    63    78    77    2
    64    82    83    2
    65     3     4    2
    66     3     2    1
    67     2     1    1
    68    80    77   am
    69    77    76    1
    70    79    76    1
    71    76    75    1
    72    34    32    1
    73    33    31    1
    74    32    31    1
    75    31    28    1
    76    28    29    1
    77    28    27    1
    78    29    30    2
