@<TRIPOS>MOLECULE
tmp/3mdtB01.pdb
 123 113 0 0 0
SMALL
GASTEIGER

@<TRIPOS>ATOM
      1  N         21.1670  -66.3030  -64.6670 N.3    51  TYR51      -0.1241
      2  CA        22.4370  -66.9410  -64.3330 C.3    51  TYR51       0.1605
      3  C         22.7150  -68.2350  -65.1050 C.2    51  TYR51       0.2264
      4  O         23.8240  -68.7690  -65.0380 O.2    51  TYR51      -0.2867
      5  CB        22.5380  -67.1650  -62.8190 C.3    51  TYR51       0.0534
      6  CG        22.6760  -65.8790  -62.0280 C.ar   51  TYR51      -0.0201
      7  CD1       21.5640  -65.2690  -61.4500 C.ar   51  TYR51      -0.0009
      8  CD2       23.9170  -65.2690  -61.8650 C.ar   51  TYR51      -0.0009
      9  CE1       21.6850  -64.0830  -60.7250 C.ar   51  TYR51       0.0417
     10  CE2       24.0510  -64.0860  -61.1430 C.ar   51  TYR51       0.0417
     11  CZ        22.9320  -63.4980  -60.5760 C.ar   51  TYR51       0.1957
     12  OH        23.0640  -62.3270  -59.8630 O.3    51  TYR51      -0.2866
     13  N         25.4600  -68.4030  -67.6810 N.3    54  LEU54      -0.1245
     14  CA        26.7930  -68.4160  -67.0890 C.3    54  LEU54       0.1561
     15  C         27.1710  -69.7980  -66.5610 C.2    54  LEU54       0.2260
     16  O         28.3510  -70.0890  -66.3580 O.2    54  LEU54      -0.2867
     17  CB        26.8980  -67.3630  -65.9870 C.3    54  LEU54       0.0270
     18  CG        27.1810  -65.9360  -66.4620 C.3    54  LEU54       0.0019
     19  CD1       26.7350  -64.9100  -65.4340 C.3    54  LEU54       0.0001
     20  CD2       28.6530  -65.7540  -66.8090 C.3    54  LEU54       0.0001
     21  N         30.9090  -72.3830  -65.0070 N.3    63  PHE63      -0.1241
     22  CA        30.6280  -71.9610  -63.6480 C.3    63  PHE63       0.1605
     23  C         29.5430  -72.8530  -63.0890 C.2    63  PHE63       0.2264
     24  O         29.3310  -73.1340  -61.9340 O.2    63  PHE63      -0.2867
     25  CB        30.2250  -70.5200  -63.5620 C.3    63  PHE63       0.0534
     26  CG        31.1910  -69.4400  -63.8300 C.ar   63  PHE63      -0.0203
     27  CD1       32.0710  -68.9890  -62.8730 C.ar   63  PHE63      -0.0042
     28  CD2       31.2290  -68.8040  -65.0520 C.ar   63  PHE63      -0.0042
     29  CE1       32.9470  -67.9830  -63.1450 C.ar   63  PHE63      -0.0003
     30  CE2       32.0950  -67.7900  -65.3190 C.ar   63  PHE63      -0.0003
     31  CZ        32.9640  -67.3690  -64.3610 C.ar   63  PHE63      -0.0000
     32  N         28.3880  -68.5620  -57.0200 N.3    68  VAL68      -0.1231
     33  CA        27.7210  -67.3760  -57.5720 C.3    68  VAL68       0.1692
     34  C         26.6090  -67.7240  -58.5650 C.2    68  VAL68       0.2592
     35  O         25.6330  -66.9830  -58.6920 O.2    68  VAL68      -0.2718
     36  CB        28.6980  -66.3900  -58.2660 C.3    68  VAL68       0.0266
     37  CG1       28.2420  -64.9600  -58.0240 C.3    68  VAL68       0.0020
     38  CG2       30.1080  -66.5630  -57.7610 C.3    68  VAL68       0.0020
     39  N         26.7670  -68.8460  -59.2610 N.am   69  SER69      -0.1952
     40  CA        25.7970  -69.2770  -60.2680 C.3    69  SER69       0.1924
     41  C         24.6540  -70.1180  -59.6940 C.2    69  SER69       0.2314
     42  O         23.5930  -70.2350  -60.3150 O.2    69  SER69      -0.2863
     43  CB        26.4970  -70.0170  -61.4130 C.3    69  SER69       0.2116
     44  OG        27.2970  -71.0810  -60.9320 O.3    69  SER69      -0.2180
     45  N         36.7760  -64.7070  -70.9270 N.3   161  LEU161     -0.1245
     46  CA        36.0090  -63.5000  -70.6160 C.3   161  LEU161      0.1561
     47  C         35.3870  -62.8660  -71.8620 C.2   161  LEU161      0.2260
     48  O         34.3340  -62.2320  -71.7780 O.2   161  LEU161     -0.2867
     49  CB        36.8750  -62.4830  -69.8620 C.3   161  LEU161      0.0270
     50  CG        37.4220  -62.9170  -68.4950 C.3   161  LEU161      0.0019
     51  CD1       38.6120  -62.0630  -68.0900 C.3   161  LEU161      0.0001
     52  CD2       36.3440  -62.8980  -67.4120 C.3   161  LEU161      0.0001
     53  N         32.2320  -64.8790  -72.4130 N.3   164  ILE164     -0.1245
     54  CA        31.1830  -64.4870  -71.4750 C.3   164  ILE164      0.1561
     55  C         30.3610  -63.3610  -72.0910 C.2   164  ILE164      0.2260
     56  O         29.1320  -63.4300  -72.1400 O.2   164  ILE164     -0.2867
     57  CB        31.7570  -63.9920  -70.1210 C.3   164  ILE164      0.0252
     58  CG1       32.6490  -65.0500  -69.4550 C.3   164  ILE164      0.0019
     59  CG2       30.6300  -63.5320  -69.1950 C.3   164  ILE164      0.0019
     60  CD1       31.9720  -66.3750  -69.1650 C.3   164  ILE164      0.0001
     61  N         26.0270  -64.1540  -73.6530 N.3   168  ARG168     -0.1245
     62  CA        24.9120  -63.5270  -72.9380 C.3   168  ARG168      0.1563
     63  C         24.4830  -62.1930  -73.5580 C.2   168  ARG168      0.2260
     64  O         23.5350  -61.5630  -73.0870 O.2   168  ARG168     -0.2867
     65  CB        25.2210  -63.3790  -71.4390 C.3   168  ARG168      0.0307
     66  CG        26.2040  -62.2730  -71.0720 C.3   168  ARG168      0.0489
     67  CD        26.8680  -62.5410  -69.7240 C.3   168  ARG168      0.2205
     68  NE        26.1250  -62.0120  -68.5770 N.pl3 168  ARG168     -0.0865
     69  CZ        25.2240  -62.6910  -67.8680 C.cat 168  ARG168      0.5346
     70  NH1       24.9140  -63.9430  -68.1830 N.pl3 168  ARG168      0.1354
     71  NH2       24.6240  -62.1140  -66.8360 N.pl3 168  ARG168      0.1354
     72  N         38.1050  -67.3130  -61.3320 N.3   236  ILE236     -0.1231
     73  CA        37.8210  -66.0890  -62.0770 C.3   236  ILE236      0.1692
     74  C         37.3650  -64.9540  -61.1640 C.2   236  ILE236      0.2591
     75  O         37.9020  -63.8460  -61.2300 O.2   236  ILE236     -0.2718
     76  CB        36.7910  -66.3380  -63.2090 C.3   236  ILE236      0.0266
     77  CG1       37.3390  -67.3640  -64.2170 C.3   236  ILE236      0.0019
     78  CG2       36.3860  -65.0240  -63.8970 C.3   236  ILE236      0.0020
     79  CD1       38.5800  -66.9190  -65.0020 C.3   236  ILE236      0.0001
     80  N         36.3780  -65.2360  -60.3170 N.am  237  ALA237     -0.1980
     81  CA        35.8410  -64.2370  -59.3950 C.3   237  ALA237      0.1597
     82  C         36.9110  -63.7030  -58.4460 C.2   237  ALA237      0.2287
     83  O         36.9700  -62.5000  -58.1710 O.2   237  ALA237     -0.2864
     84  CB        34.6740  -64.8140  -58.6060 C.3   237  ALA237      0.0319
     85  N         39.6250  -61.1850  -61.0110 N.3   240  GLU240     -0.1231
     86  CA        39.3090  -60.2470  -62.1050 C.3   240  GLU240      0.1699
     87  C         38.7300  -58.8990  -61.6660 C.2   240  GLU240      0.2592
     88  O         39.2100  -57.8510  -62.0950 O.2   240  GLU240     -0.2718
     89  CB        38.4280  -60.9070  -63.1850 C.3   240  GLU240      0.0402
     90  CG        37.9520  -59.9740  -64.3200 C.3   240  GLU240      0.1161
     91  CD        39.0760  -59.4200  -65.1990 C.2   240  GLU240      0.3649
     92  OE1       38.7800  -58.5870  -66.0830 O.co2 240  GLU240     -0.2457
     93  OE2       40.2530  -59.8060  -65.0220 O.co2 240  GLU240     -0.2457
     94  N         37.7080  -58.9330  -60.8170 N.am  241  THR241     -0.1953
     95  CA        37.0850  -57.7080  -60.3150 C.3   241  THR241      0.1897
     96  C         38.0380  -56.8950  -59.4330 C.2   241  THR241      0.2313
     97  O         37.9900  -55.6630  -59.4400 O.2   241  THR241     -0.2863
     98  CB        35.7910  -57.9900  -59.5490 C.3   241  THR241      0.1794
     99  OG1       36.0270  -59.0210  -58.5860 O.3   241  THR241     -0.2208
    100  CG2       34.6780  -58.4300  -60.5050 C.3   241  THR241      0.0378
    101  N         31.4860  -55.1460  -60.7800 N.3   302  ALA302     -0.1245
    102  CA        30.2330  -55.8770  -60.8870 C.3   302  ALA302      0.1562
    103  C         29.1030  -54.8900  -60.6450 C.2   302  ALA302      0.2260
    104  O         28.9250  -54.4120  -59.5250 O.2   302  ALA302     -0.2867
    105  CB        30.1910  -57.0140  -59.8750 C.3   302  ALA302      0.0290
    106  N         28.9660  -60.6950  -51.6350 N.3   372  CYS372     -0.1235
    107  CA        30.2960  -61.2440  -51.9140 C.3   372  CYS372      0.1677
    108  C         30.9470  -61.9350  -50.7150 C.2   372  CYS372      0.2270
    109  O         31.1430  -61.3200  -49.6670 O.2   372  CYS372     -0.2867
    110  CB        31.2180  -60.1320  -52.4260 C.3   372  CYS372      0.0956
    111  SG        32.7810  -60.7120  -53.1150 S.3   372  CYS372     -0.0801
    112  N         32.7910  -58.7520  -69.4860 N.3   409  ALA409     -0.1231
    113  CA        32.2660  -59.6810  -68.4960 C.3   409  ALA409      0.1694
    114  C         32.0110  -58.9140  -67.1950 C.2   409  ALA409      0.2592
    115  O         31.1360  -59.2700  -66.4110 O.2   409  ALA409     -0.2718
    116  CB        33.2510  -60.8040  -68.2740 C.3   409  ALA409      0.0304
    117  N         32.7940  -57.8610  -66.9790 N.am  410  THR410     -0.1953
    118  CA        32.5920  -56.9450  -65.8600 C.3   410  THR410      0.1897
    119  C         32.7760  -55.5220  -66.3870 C.2   410  THR410      0.2313
    120  O         33.0300  -55.3220  -67.5770 O.2   410  THR410     -0.2863
    121  CB        33.6180  -57.1830  -64.7270 C.3   410  THR410      0.1794
    122  OG1       34.9460  -57.0520  -65.2460 O.3   410  THR410     -0.2208
    123  CG2       33.4500  -58.5620  -64.0950 C.3   410  THR410      0.0378
@<TRIPOS>BOND
     1    61    62    1
     2    63    64    2
     3    63    62    1
     4    62    65    1
     5    53    54    1
     6    56    55    2
     7    55    54    1
     8    47    48    2
     9    47    46    1
    10    54    57    1
    11    65    66    1
    12    66    67    1
    13    45    46    1
    14    46    49    1
    15    57    58    1
    16    57    59    1
    17    49    50    1
    18    67    68    1
    19   112   113    1
    20    58    60    1
    21    68    69    2
    22   113   116    1
    23   113   114    1
    24    50    51    1
    25    50    52    1
    26    70    69    1
    27    69    71    1
    28    13    14    1
    29   120   119    2
    30   114   117   am
    31   114   115    2
    32    14    15    1
    33    14    17    1
    34   117   118    1
    35    20    18    1
    36    15    16    2
    37    18    17    1
    38    18    19    1
    39   119   118    1
    40    92    91   ar
    41   118   121    1
    42    30    28   ar
    43    30    31   ar
    44   122   121    1
    45    91    93   ar
    46    91    90    1
    47     3     4    2
    48     3     2    1
    49    28    26   ar
    50    21    22    1
    51    79    77    1
    52   121   123    1
    53     1     2    1
    54    31    29   ar
    55     2     5    1
    56    90    89    1
    57    77    76    1
    58    78    76    1
    59    26    25    1
    60    26    27   ar
    61    22    25    1
    62    22    23    1
    63    76    73    1
    64    89    86    1
    65    29    27   ar
    66    23    24    2
    67     5     6    1
    68    86    87    1
    69    86    85    1
    70    88    87    2
    71    73    72    1
    72    73    74    1
    73     6     8   ar
    74     6     7   ar
    75     8    10   ar
    76    87    94   am
    77     7     9   ar
    78    43    44    1
    79    43    40    1
    80    75    74    2
    81    74    80   am
    82    10    11   ar
    83   102   101    1
    84   102   103    1
    85   102   105    1
    86    94    95    1
    87     9    11   ar
    88   103   104    2
    89    11    12    1
    90   100    98    1
    91    80    81    1
    92    42    41    2
    93    95    98    1
    94    95    96    1
    95    40    41    1
    96    40    39    1
    97    98    99    1
    98    97    96    2
    99    81    84    1
   100    81    82    1
   101    39    34   am
   102    35    34    2
   103    34    33    1
   104    82    83    2
   105    36    37    1
   106    36    38    1
   107    36    33    1
   108    33    32    1
   109   111   110    1
   110   110   107    1
   111   107   106    1
   112   107   108    1
   113   108   109    2
