@<TRIPOS>MOLECULE
tmp/3mdvA01.pdb
 170 161 0 0 0
SMALL
GASTEIGER

@<TRIPOS>ATOM
      1  N         40.0140   -2.0960   22.8730 N.3    22  PHE22      -0.1241
      2  CA        39.5570   -0.7240   22.5750 C.3    22  PHE22       0.1605
      3  C         40.6470    0.1260   21.8780 C.2    22  PHE22       0.2264
      4  O         40.7750    1.3340   22.1330 O.2    22  PHE22      -0.2867
      5  CB        39.0000   -0.0180   23.8350 C.3    22  PHE22       0.0534
      6  CG        37.9860   -0.8300   24.6080 C.ar   22  PHE22      -0.0203
      7  CD1       38.0620   -0.9110   25.9980 C.ar   22  PHE22      -0.0042
      8  CD2       36.9530   -1.5070   23.9610 C.ar   22  PHE22      -0.0042
      9  CE1       37.1200   -1.6540   26.7360 C.ar   22  PHE22      -0.0003
     10  CE2       36.0100   -2.2570   24.6930 C.ar   22  PHE22      -0.0003
     11  CZ        36.0990   -2.3260   26.0830 C.ar   22  PHE22      -0.0000
     12  N         39.5170    5.5810   29.8020 N.3    51  TYR51      -0.1241
     13  CA        38.2550    6.1790   30.1900 C.3    51  TYR51       0.1605
     14  C         37.8850    7.4320   29.3810 C.2    51  TYR51       0.2264
     15  O         36.7220    7.8920   29.4310 O.2    51  TYR51      -0.2867
     16  CB        38.2220    6.4120   31.6990 C.3    51  TYR51       0.0534
     17  CG        38.0420    5.1160   32.4740 C.ar   51  TYR51      -0.0201
     18  CD1       39.1450    4.3690   32.8910 C.ar   51  TYR51      -0.0009
     19  CD2       36.7740    4.6310   32.7640 C.ar   51  TYR51      -0.0009
     20  CE1       38.9820    3.1780   33.5850 C.ar   51  TYR51       0.0417
     21  CE2       36.5970    3.4430   33.4640 C.ar   51  TYR51       0.0417
     22  CZ        37.6970    2.7220   33.8730 C.ar   51  TYR51       0.1957
     23  OH        37.5250    1.5420   34.5630 O.3    51  TYR51      -0.2866
     24  N         34.8150    7.3140   27.1130 N.3    54  LEU54      -0.1245
     25  CA        33.5100    7.4820   27.7420 C.3    54  LEU54       0.1561
     26  C         33.1890    8.9470   28.0590 C.2    54  LEU54       0.2260
     27  O         32.0170    9.3280   28.1940 O.2    54  LEU54      -0.2867
     28  CB        33.4460    6.6400   29.0180 C.3    54  LEU54       0.0270
     29  CG        33.5430    5.1340   28.7810 C.3    54  LEU54       0.0019
     30  CD1       33.8020    4.4000   30.0660 C.3    54  LEU54       0.0001
     31  CD2       32.2650    4.6470   28.1350 C.3    54  LEU54       0.0001
     32  N         29.7740   11.4240   29.4480 N.3    63  PHE63      -0.1241
     33  CA        29.9150   11.2670   30.8940 C.3    63  PHE63       0.1605
     34  C         30.9370   12.2310   31.4640 C.2    63  PHE63       0.2264
     35  O         31.0900   12.3420   32.6910 O.2    63  PHE63      -0.2867
     36  CB        30.2920    9.8220   31.2600 C.3    63  PHE63       0.0534
     37  CG        29.3050    8.7920   30.7640 C.ar   63  PHE63      -0.0203
     38  CD1       27.9520    8.8970   31.0640 C.ar   63  PHE63      -0.0042
     39  CD2       29.7330    7.7170   29.9940 C.ar   63  PHE63      -0.0042
     40  CE1       27.0520    7.9520   30.5950 C.ar   63  PHE63      -0.0003
     41  CE2       28.8360    6.7620   29.5250 C.ar   63  PHE63      -0.0003
     42  CZ        27.5040    6.8590   29.8300 C.ar   63  PHE63      -0.0000
     43  N         32.0580    7.8790   37.4900 N.3    68  VAL68      -0.1231
     44  CA        32.6840    6.6990   36.9050 C.3    68  VAL68       0.1692
     45  C         33.9740    7.0510   36.1460 C.2    68  VAL68       0.2592
     46  O         35.0410    6.5060   36.4420 O.2    68  VAL68      -0.2718
     47  CB        31.7310    5.9260   35.9600 C.3    68  VAL68       0.0266
     48  CG1       32.3320    4.5890   35.5850 C.3    68  VAL68       0.0020
     49  CG2       30.3580    5.6950   36.6000 C.3    68  VAL68       0.0020
     50  N         33.8470    7.9840   35.1990 N.am   69  SER69      -0.1952
     51  CA        34.8830    8.3130   34.2240 C.3    69  SER69       0.1924
     52  C         36.0020    9.2220   34.7170 C.2    69  SER69       0.2314
     53  O         36.9740    9.4470   33.9950 O.2    69  SER69      -0.2863
     54  CB        34.2230    8.9280   32.9810 C.3    69  SER69       0.2116
     55  OG        33.2960    9.9480   33.3460 O.3    69  SER69      -0.2180
     56  N         24.1310    3.7960   23.4960 N.3   161  LEU161     -0.1245
     57  CA        24.8680    2.5650   23.8380 C.3   161  LEU161      0.1561
     58  C         25.4560    1.8210   22.6240 C.2   161  LEU161      0.2260
     59  O         26.5520    1.2760   22.7030 O.2   161  LEU161     -0.2867
     60  CB        24.0150    1.6150   24.6760 C.3   161  LEU161      0.0270
     61  CG        23.5630    2.1530   26.0410 C.3   161  LEU161      0.0019
     62  CD1       22.3740    1.3490   26.5440 C.3   161  LEU161      0.0001
     63  CD2       24.6860    2.1620   27.0390 C.3   161  LEU161      0.0001
     64  N         28.4950    3.9970   21.8900 N.3   164  ILE164     -0.1245
     65  CA        29.6310    3.6610   22.7280 C.3   164  ILE164      0.1561
     66  C         30.3860    2.5290   22.0350 C.2   164  ILE164      0.2260
     67  O         31.5530    2.6680   21.7070 O.2   164  ILE164     -0.2867
     68  CB        29.2030    3.1720   24.1330 C.3   164  ILE164      0.0252
     69  CG1       28.3170    4.1990   24.8540 C.3   164  ILE164      0.0019
     70  CG2       30.4480    2.7950   24.9790 C.3   164  ILE164      0.0019
     71  CD1       29.0760    5.2340   25.6500 C.3   164  ILE164      0.0001
     72  N         34.4620    2.5290   20.2470 N.3   168  ARG168     -0.1245
     73  CA        35.6380    1.9270   20.8830 C.3   168  ARG168      0.1563
     74  C         36.0140    0.5480   20.3350 C.2   168  ARG168      0.2260
     75  O         37.0230   -0.0260   20.7450 O.2   168  ARG168     -0.2867
     76  CB        35.5550    1.9640   22.4270 C.3   168  ARG168      0.0307
     77  CG        34.5590    1.0250   23.0830 C.3   168  ARG168      0.0489
     78  CD        33.9940    1.6350   24.3790 C.3   168  ARG168      0.2205
     79  NE        34.5240    1.0910   25.6410 N.pl3 168  ARG168     -0.0865
     80  CZ        35.6310    1.5110   26.2540 C.cat 168  ARG168      0.5346
     81  NH1       36.3910    2.4550   25.7140 N.pl3 168  ARG168      0.1354
     82  NH2       35.9960    0.9720   27.4110 N.pl3 168  ARG168      0.1354
     83  N         25.7180   10.1390   33.8830 N.3   233  THR233     -0.1218
     84  CA        26.4390    9.0150   34.5010 C.3   233  THR233      0.1862
     85  C         25.5140    8.1170   35.3150 C.2   233  THR233      0.2287
     86  O         25.3960    6.9130   35.0200 O.2   233  THR233     -0.2866
     87  CB        27.6090    9.5520   35.3750 C.3   233  THR233      0.1770
     88  OG1       28.5600   10.1650   34.5200 O.3   233  THR233     -0.2211
     89  CG2       28.2980    8.4580   36.1730 C.3   233  THR233      0.0375
     90  N         22.5860    6.4570   33.4690 N.3   236  ILE236     -0.1231
     91  CA        22.9740    5.2190   32.7970 C.3   236  ILE236      0.1692
     92  C         23.4780    4.1240   33.7650 C.2   236  ILE236      0.2591
     93  O         22.9720    2.9970   33.7560 O.2   236  ILE236     -0.2718
     94  CB        24.0190    5.4870   31.6730 C.3   236  ILE236      0.0266
     95  CG1       23.4630    6.4530   30.6180 C.3   236  ILE236      0.0019
     96  CG2       24.4960    4.1540   31.0210 C.3   236  ILE236      0.0020
     97  CD1       22.2180    5.9480   29.8790 C.3   236  ILE236      0.0001
     98  N         24.4590    4.4530   34.5990 N.am  237  ALA237     -0.1980
     99  CA        25.0120    3.4600   35.5290 C.3   237  ALA237      0.1597
    100  C         23.9670    2.9350   36.4650 C.2   237  ALA237      0.2287
    101  O         24.0520    1.7750   36.8950 O.2   237  ALA237     -0.2864
    102  CB        26.2180    4.0070   36.3260 C.3   237  ALA237      0.0319
    103  N         21.3640    0.5050   33.5700 N.3   240  GLU240     -0.1231
    104  CA        21.6680   -0.4380   32.4860 C.3   240  GLU240      0.1699
    105  C         22.2160   -1.7660   33.0000 C.2   240  GLU240      0.2592
    106  O         21.7820   -2.8190   32.5460 O.2   240  GLU240     -0.2718
    107  CB        22.5330    0.1910   31.3690 C.3   240  GLU240      0.0402
    108  CG        23.0490   -0.7450   30.2870 C.3   240  GLU240      0.1161
    109  CD        21.9770   -1.3880   29.4310 C.2   240  GLU240      0.3649
    110  OE1       22.3050   -2.3550   28.7100 O.co2 240  GLU240     -0.2457
    111  OE2       20.7910   -0.9550   29.4660 O.co2 240  GLU240     -0.2457
    112  N         23.1450   -1.7010   33.9530 N.am  241  THR241     -0.1953
    113  CA        23.7950   -2.8840   34.5250 C.3   241  THR241      0.1897
    114  C         22.8160   -3.7030   35.3930 C.2   241  THR241      0.2313
    115  O         22.8920   -4.9450   35.4250 O.2   241  THR241     -0.2863
    116  CB        25.0450   -2.4690   35.3640 C.3   241  THR241      0.1794
    117  OG1       24.6990   -1.3580   36.2030 O.3   241  THR241     -0.2208
    118  CG2       26.2270   -2.0150   34.4700 C.3   241  THR241      0.0378
    119  N         29.2390   -5.6560   33.8410 N.3   302  ALA302     -0.1231
    120  CA        30.4510   -4.8620   33.7550 C.3   302  ALA302      0.1694
    121  C         31.5870   -5.8260   33.9870 C.2   302  ALA302      0.2592
    122  O         31.8720   -6.2260   35.1070 O.2   302  ALA302     -0.2718
    123  CB        30.4460   -3.7430   34.7830 C.3   302  ALA302      0.0304
    124  N         32.2400   -6.2130   32.9070 N.am  303  TRP303     -0.1962
    125  CA        33.1840   -7.3040   32.9700 C.3   303  TRP303      0.1771
    126  C         34.4650   -6.9890   33.7140 C.2   303  TRP303      0.2620
    127  O         35.1630   -7.9030   34.1590 O.2   303  TRP303     -0.2715
    128  CB        33.4760   -7.8650   31.5780 C.3   303  TRP303      0.0590
    129  CG        34.0020   -6.8710   30.5710 C.ar  303  TRP303      0.0006
    130  CD1       33.3120   -6.3450   29.5010 C.ar  303  TRP303      0.0946
    131  CD2       35.3220   -6.3020   30.5140 C.ar  303  TRP303      0.0152
    132  NE1       34.1320   -5.4820   28.7850 N.ar  303  TRP303     -0.2442
    133  CE2       35.3670   -5.4490   29.3800 C.ar  303  TRP303      0.0810
    134  CE3       36.4710   -6.4300   31.3050 C.ar  303  TRP303      0.0012
    135  CZ2       36.5040   -4.7360   29.0300 C.ar  303  TRP303      0.0191
    136  CZ3       37.6130   -5.7070   30.9640 C.ar  303  TRP303      0.0001
    137  CH2       37.6150   -4.8650   29.8390 C.ar  303  TRP303      0.0015
    138  N         34.7970   -5.7140   33.8530 N.am  304  GLY304     -0.1954
    139  CA        36.0420   -5.3870   34.5280 C.3   304  GLY304      0.1869
    140  C         36.3820   -3.9240   34.5480 C.2   304  GLY304      0.2309
    141  O         35.5090   -3.0840   34.3500 O.2   304  GLY304     -0.2863
    142  N         40.1490   -0.9730   34.5200 N.3   306  PHE306     -0.1241
    143  CA        41.5530   -0.7040   34.2000 C.3   306  PHE306      0.1605
    144  C         42.1740    0.1280   35.2910 C.2   306  PHE306      0.2264
    145  O         41.5490    1.0450   35.8130 O.2   306  PHE306     -0.2867
    146  CB        41.6990    0.0560   32.8730 C.3   306  PHE306      0.0534
    147  CG        41.1640   -0.6760   31.6730 C.ar  306  PHE306     -0.0203
    148  CD1       41.9640   -1.5820   30.9620 C.ar  306  PHE306     -0.0042
    149  CD2       39.8680   -0.4480   31.2340 C.ar  306  PHE306     -0.0042
    150  CE1       41.4640   -2.2480   29.8400 C.ar  306  PHE306     -0.0003
    151  CE2       39.3590   -1.1190   30.1210 C.ar  306  PHE306     -0.0003
    152  CZ        40.1500   -2.0190   29.4310 C.ar  306  PHE306     -0.0000
    153  N         31.6240   -0.1400   42.9230 N.3   372  CYS372     -0.1235
    154  CA        30.3300    0.4160   42.6120 C.3   372  CYS372      0.1677
    155  C         29.7050    1.0980   43.8340 C.2   372  CYS372      0.2270
    156  O         29.4750    0.4540   44.8710 O.2   372  CYS372     -0.2867
    157  CB        29.4180   -0.7080   42.1040 C.3   372  CYS372      0.0956
    158  SG        27.7820   -0.1630   41.6200 S.3   372  CYS372     -0.0801
    159  N         28.2390   -2.0330   25.2600 N.3   409  ALA409     -0.1231
    160  CA        29.0020   -1.2460   26.2470 C.3   409  ALA409      0.1694
    161  C         29.2200   -2.0910   27.4910 C.2   409  ALA409      0.2592
    162  O         30.2230   -1.9740   28.1740 O.2   409  ALA409     -0.2718
    163  CB        28.2620    0.0400   26.5890 C.3   409  ALA409      0.0304
    164  N         28.2520   -2.9580   27.7660 N.am  410  THR410     -0.1953
    165  CA        28.3400   -3.9340   28.8250 C.3   410  THR410      0.1897
    166  C         28.0660   -5.2860   28.2170 C.2   410  THR410      0.2313
    167  O         27.8120   -5.3900   27.0130 O.2   410  THR410     -0.2863
    168  CB        27.2720   -3.6760   29.9000 C.3   410  THR410      0.1794
    169  OG1       25.9730   -3.7740   29.3150 O.3   410  THR410     -0.2208
    170  CG2       27.4400   -2.3070   30.5200 C.3   410  THR410      0.0378
@<TRIPOS>BOND
     1    72    73    1
     2    74    75    2
     3    74    73    1
     4    73    76    1
     5    67    66    2
     6     3     4    2
     7     3     2    1
     8    64    65    1
     9    66    65    1
    10    76    77    1
    11     2     1    1
    12     2     5    1
    13    58    59    2
    14    58    57    1
    15    65    68    1
    16    77    78    1
    17    56    57    1
    18     5     6    1
    19    57    60    1
    20     8     6   ar
    21     8    10   ar
    22    68    69    1
    23    68    70    1
    24    78    79    1
    25     6     7   ar
    26    60    61    1
    27    10    11   ar
    28    69    71    1
    29   159   160    1
    30    79    80    2
    31    81    80    1
    32     7     9   ar
    33    61    62    1
    34    61    63    1
    35    11     9   ar
    36   160   163    1
    37   160   161    1
    38    80    82    1
    39   167   166    2
    40    24    25    1
    41   161   164   am
    42   161   162    2
    43    25    26    1
    44    25    28    1
    45   164   165    1
    46    26    27    2
    47    31    29    1
    48   166   165    1
    49   110   109   ar
    50    29    28    1
    51    29    30    1
    52   132   133   ar
    53   132   130   ar
    54   165   168    1
    55   135   133   ar
    56   135   137   ar
    57   169   168    1
    58   133   131   ar
    59    14    15    2
    60    14    13    1
    61   152   150   ar
    62   152   151   ar
    63   109   111   ar
    64   109   108    1
    65    32    33    1
    66   130   129   ar
    67    41    42   ar
    68    41    39   ar
    69    12    13    1
    70    42    40   ar
    71   137   136   ar
    72   150   148   ar
    73    97    95    1
    74   168   170    1
    75    39    37   ar
    76   151   149   ar
    77    13    16    1
    78   108   107    1
    79   131   129   ar
    80   131   134   ar
    81   129   128    1
    82    40    38   ar
    83    95    94    1
    84    37    38   ar
    85    37    36    1
    86    33    36    1
    87    33    34    1
    88   148   147   ar
    89   136   134   ar
    90    96    94    1
    91   149   147   ar
    92   107   104    1
    93    34    35    2
    94   128   125    1
    95   147   146    1
    96    94    91    1
    97    16    17    1
    98    17    19   ar
    99    17    18   ar
   100   104   105    1
   101   104   103    1
   102   106   105    2
   103    19    21   ar
   104    91    90    1
   105    91    92    1
   106   146   143    1
   107    18    20   ar
   108   124   125    1
   109   124   121   am
   110   125   126    1
   111    54    55    1
   112    54    51    1
   113   105   112   am
   114    21    22   ar
   115    20    22   ar
   116   126   138   am
   117   126   127    2
   118   120   119    1
   119   120   121    1
   120   120   123    1
   121    93    92    2
   122    92    98   am
   123   138   139    1
   124    22    23    1
   125    83    84    1
   126   112   113    1
   127   121   122    2
   128    53    52    2
   129   143   142    1
   130   143   144    1
   131    51    52    1
   132    51    50    1
   133   141   140    2
   134   118   116    1
   135    84    85    1
   136    84    87    1
   137    88    87    1
   138   113   116    1
   139   113   114    1
   140   139   140    1
   141    98    99    1
   142    86    85    2
   143    50    45   am
   144   144   145    2
   145   116   117    1
   146    87    89    1
   147   114   115    2
   148    99   102    1
   149    99   100    1
   150    48    47    1
   151    47    49    1
   152    47    44    1
   153    45    46    2
   154    45    44    1
   155   100   101    2
   156    44    43    1
   157   158   157    1
   158   157   154    1
   159   154   153    1
   160   154   155    1
   161   155   156    2
