@<TRIPOS>MOLECULE
tmp/3mdyB00.pdb
 199 188 0 0 0
SMALL
GASTEIGER

@<TRIPOS>ATOM
      1  N         18.6050   12.8530   18.8960 N.3    37  ILE37      -0.1231
      2  CA        18.1600   13.1760   17.5590 C.3    37  ILE37       0.1692
      3  C         17.2970   12.0760   16.9660 C.2    37  ILE37       0.2593
      4  O         16.6930   12.2420   15.9250 O.2    37  ILE37      -0.2718
      5  CB        19.3610   13.4610   16.6120 C.3    37  ILE37       0.0266
      6  CG1       20.3500   12.2810   16.5660 C.3    37  ILE37       0.0019
      7  CG2       20.0490   14.7550   17.0380 C.3    37  ILE37       0.0020
      8  CD1       21.4910   12.4680   15.5240 C.3    37  ILE37       0.0001
      9  N         17.2480   10.9380   17.6230 N.am   38  GLY38      -0.1942
     10  CA        16.4400    9.8720   17.1010 C.3    38  GLY38       0.2014
     11  C         16.6290    8.6240   17.9000 C.2    38  GLY38       0.2639
     12  O         17.1290    8.6500   19.0310 O.2    38  GLY38      -0.2714
     13  N         16.1760    7.5430   17.3060 N.am   39  LYS39      -0.1963
     14  CA        16.1670    6.2150   17.9040 C.3    39  LYS39       0.1728
     15  C         16.8860    5.2310   16.9950 C.2    39  LYS39       0.2616
     16  O         16.9370    5.4030   15.7650 O.2    39  LYS39      -0.2715
     17  CB        14.7200    5.7350   18.0900 C.3    39  LYS39       0.0311
     18  CG        14.2530    5.8390   19.5220 C.3    39  LYS39       0.0038
     19  CD        12.8840    6.4360   19.6560 C.3    39  LYS39       0.0206
     20  CE        12.6450    6.8810   21.0960 C.3    39  LYS39       0.1093
     21  NZ        11.3750    7.6470   21.2270 N.3    39  LYS39      -0.1314
     22  N         17.4590    4.2100   17.6140 N.am   40  GLY40      -0.1955
     23  CA        18.0660    3.1100   16.8810 C.3    40  GLY40       0.1869
     24  C         17.5940    1.8800   17.6000 C.2    40  GLY40       0.2309
     25  O         17.0960    1.9890   18.7210 O.2    40  GLY40      -0.2863
     26  N         19.8590    7.6610   19.7300 N.3    45  VAL45      -0.1245
     27  CA        20.8400    8.2940   18.9070 C.3    45  VAL45       0.1561
     28  C         20.8890    9.7850   19.2970 C.2    45  VAL45       0.2260
     29  O         19.8440   10.4560   19.4100 O.2    45  VAL45      -0.2867
     30  CB        20.5300    8.1250   17.4070 C.3    45  VAL45       0.0252
     31  CG1       21.6120    8.7660   16.5860 C.3    45  VAL45       0.0019
     32  CG2       20.4190    6.6400   17.0310 C.3    45  VAL45       0.0019
     33  N         27.3120   11.7300   15.2340 N.3    56  ALA56      -0.1245
     34  CA        26.1530   11.0710   15.8110 C.3    56  ALA56       0.1562
     35  C         26.6480    9.9920   16.7350 C.2    56  ALA56       0.2260
     36  O         27.6760    9.3410   16.4700 O.2    56  ALA56      -0.2867
     37  CB        25.2670   10.4870   14.7030 C.3    56  ALA56       0.0290
     38  N         25.2170    6.6500   18.8310 N.3    58  LYS58      -0.1245
     39  CA        24.2390    5.7150   19.2740 C.3    58  LYS58       0.1561
     40  C         24.6890    5.1980   20.6350 C.2    58  LYS58       0.2260
     41  O         25.8110    4.6590   20.7540 O.2    58  LYS58      -0.2867
     42  CB        24.0820    4.5820   18.2750 C.3    58  LYS58       0.0271
     43  CG        22.8980    3.6690   18.5960 C.3    58  LYS58       0.0035
     44  CD        22.6620    2.6130   17.5010 C.3    58  LYS58       0.0206
     45  CE        21.5570    1.6250   17.8620 C.3    58  LYS58       0.1093
     46  NZ        21.3860    0.4780   16.9160 N.3    58  LYS58      -0.1314
     47  N         26.7180   -4.6810   16.3060 N.3    71  GLU71      -0.1245
     48  CA        26.6130   -3.6100   15.3450 C.3    71  GLU71       0.1567
     49  C         28.0070   -3.0150   15.0300 C.2    71  GLU71       0.2260
     50  O         28.3410   -2.7390   13.9090 O.2    71  GLU71      -0.2867
     51  CB        25.6040   -2.5770   15.8270 C.3    71  GLU71       0.0388
     52  CG        25.3180   -1.5690   14.7860 C.3    71  GLU71       0.1160
     53  CD        24.1370   -0.6920   15.1040 C.2    71  GLU71       0.3649
     54  OE1       23.7010   -0.6860   16.2400 O.co2  71  GLU71      -0.2457
     55  OE2       23.6790    0.0430   14.2110 O.co2  71  GLU71      -0.2457
     56  N         29.9700   -2.7480   11.3300 N.3    75  TYR75      -0.1241
     57  CA        30.4750   -1.4590   10.8060 C.3    75  TYR75       0.1605
     58  C         31.9990   -1.5300   10.5630 C.2    75  TYR75       0.2264
     59  O         32.5250   -0.8770    9.6330 O.2    75  TYR75      -0.2867
     60  CB        30.1520   -0.2940   11.7680 C.3    75  TYR75       0.0534
     61  CG        28.7830    0.4250   11.5540 C.ar   75  TYR75      -0.0201
     62  CD1       28.5210    1.1450   10.4120 C.ar   75  TYR75      -0.0009
     63  CD2       27.7850    0.3520   12.5010 C.ar   75  TYR75      -0.0009
     64  CE1       27.2850    1.8010   10.2160 C.ar   75  TYR75       0.0417
     65  CE2       26.5620    0.9540   12.3140 C.ar   75  TYR75       0.0417
     66  CZ        26.3280    1.7150   11.1780 C.ar   75  TYR75       0.1957
     67  OH        25.1280    2.3300   11.0070 O.3    75  TYR75      -0.2866
     68  N         26.2130    4.3130    6.2420 N.3    86  LEU86      -0.1245
     69  CA        26.5670    5.3300    7.2270 C.3    86  LEU86       0.1561
     70  C         28.0010    5.1280    7.6600 C.2    86  LEU86       0.2260
     71  O         28.3960    4.0450    7.9580 O.2    86  LEU86      -0.2867
     72  CB        25.6280    5.2730    8.4410 C.3    86  LEU86       0.0270
     73  CG        25.8430    6.3570    9.5080 C.3    86  LEU86       0.0019
     74  CD1       25.6410    7.8220    8.9870 C.3    86  LEU86       0.0001
     75  CD2       24.9460    6.0280   10.7410 C.3    86  LEU86       0.0001
     76  N         28.5250    4.0750   19.9720 N.3   104  LEU104     -0.1245
     77  CA        28.8230    3.7390   18.6100 C.3   104  LEU104      0.1561
     78  C         28.7220    5.0360   17.8530 C.2   104  LEU104      0.2260
     79  O         27.6620    5.5960   17.7560 O.2   104  LEU104     -0.2867
     80  CB        27.8350    2.7020   18.0980 C.3   104  LEU104      0.0270
     81  CG        27.7350    2.4360   16.5870 C.3   104  LEU104      0.0019
     82  CD1       29.0480    2.3240   16.0020 C.3   104  LEU104      0.0001
     83  CD2       26.9510    1.1390   16.3460 C.3   104  LEU104      0.0001
     84  N         29.2760    7.7250   14.7240 N.3   106  THR106     -0.1203
     85  CA        29.2070    7.7370   13.2590 C.3   106  THR106      0.1994
     86  C         29.1250    9.1720   12.6930 C.2   106  THR106      0.2618
     87  O         28.9000   10.1320   13.4300 O.2   106  THR106     -0.2717
     88  CB        27.9230    7.0340   12.7610 C.3   106  THR106      0.1784
     89  OG1       26.8170    7.8620   13.1050 O.3   106  THR106     -0.2211
     90  CG2       27.7210    5.5990   13.3750 C.3   106  THR106      0.0376
     91  N         29.1920    9.2960   11.3630 N.am  107  ASP107     -0.1959
     92  CA        28.8580   10.5590   10.7190 C.3   107  ASP107      0.1840
     93  C         27.4680   11.0260   11.1790 C.2   107  ASP107      0.2622
     94  O         26.5900   10.2120   11.4630 O.2   107  ASP107     -0.2715
     95  CB        28.8500   10.4670    9.1910 C.3   107  ASP107      0.1450
     96  CG        30.1710   10.0410    8.6070 C.2   107  ASP107      0.3671
     97  OD1       31.1890   10.0380    9.2950 O.co2 107  ASP107     -0.2456
     98  OD2       30.1750    9.6630    7.4330 O.co2 107  ASP107     -0.2456
     99  N         27.2980   12.3400   11.2230 N.am  108  TYR108     -0.1960
    100  CA        26.0240   12.9700   11.4960 C.3   108  TYR108      0.1771
    101  C         25.5220   13.6370   10.1970 C.2   108  TYR108      0.2620
    102  O         26.2720   14.3050    9.4890 O.2   108  TYR108     -0.2715
    103  CB        26.1510   14.0190   12.6100 C.3   108  TYR108      0.0574
    104  CG        24.9620   14.9400   12.7340 C.ar  108  TYR108     -0.0198
    105  CD1       23.7720   14.4830   13.2990 C.ar  108  TYR108     -0.0009
    106  CD2       25.0250   16.2700   12.3030 C.ar  108  TYR108     -0.0009
    107  CE1       22.6900   15.3020   13.4270 C.ar  108  TYR108      0.0417
    108  CE2       23.9220   17.1140   12.4180 C.ar  108  TYR108      0.0417
    109  CZ        22.7620   16.6060   12.9850 C.ar  108  TYR108      0.1957
    110  OH        21.6610   17.3720   13.1290 O.3   108  TYR108     -0.2866
    111  N         24.2460   13.4550    9.9130 N.am  109  HIS109     -0.1959
    112  CA        23.6010   14.0090    8.7120 C.3   109  HIS109      0.1787
    113  C         22.4400   14.9400    9.1010 C.2   109  HIS109      0.2620
    114  O         21.4140   14.5200    9.6230 O.2   109  HIS109     -0.2715
    115  CB        23.1770   12.8590    7.7940 C.3   109  HIS109      0.0785
    116  CG        24.3510   12.0980    7.2200 C.ar  109  HIS109      0.0821
    117  ND1       25.2820   12.6760    6.3700 N.ar  109  HIS109     -0.2267
    118  CD2       24.7610   10.8210    7.4070 C.ar  109  HIS109      0.1154
    119  CE1       26.2190   11.7930    6.0720 C.ar  109  HIS109      0.1986
    120  NE2       25.8980   10.6380    6.6430 N.ar  109  HIS109     -0.2212
    121  N         22.6480   16.2300    8.8750 N.am  110  GLU110     -0.1963
    122  CA        21.7550   17.2760    9.4080 C.3   110  GLU110      0.1733
    123  C         20.3580   17.2560    8.7870 C.2   110  GLU110      0.2616
    124  O         19.4000   17.7110    9.3930 O.2   110  GLU110     -0.2715
    125  CB        22.4080   18.6520    9.2120 C.3   110  GLU110      0.0429
    126  CG        22.4950   19.1010    7.7270 C.3   110  GLU110      0.1163
    127  CD        23.2220   20.4430    7.5390 C.2   110  GLU110      0.3649
    128  OE1       23.4090   21.1560    8.5410 O.co2 110  GLU110     -0.2457
    129  OE2       23.6010   20.7760    6.3870 O.co2 110  GLU110     -0.2457
    130  N         20.2390   16.7040    7.5930 N.am  111  ASN111     -0.1958
    131  CA        18.9310   16.4880    7.0020 C.3   111  ASN111      0.1819
    132  C         18.1290   15.3930    7.6660 C.2   111  ASN111      0.2622
    133  O         16.9400   15.2970    7.4310 O.2   111  ASN111     -0.2715
    134  CB        19.0320   16.2490    5.4820 C.3   111  ASN111      0.1195
    135  CG        19.4570   17.5020    4.7320 C.2   111  ASN111      0.2630
    136  OD1       20.4860   17.5250    4.0930 O.2   111  ASN111     -0.2716
    137  ND2       18.6950   18.5580    4.8710 N.am  111  ASN111     -0.0877
    138  N         18.7660   14.5740    8.4930 N.am  112  GLY112     -0.1940
    139  CA        18.0530   13.5000    9.1500 C.3   112  GLY112      0.2014
    140  C         17.7100   12.3440    8.2170 C.2   112  GLY112      0.2639
    141  O         18.3540   12.1480    7.1980 O.2   112  GLY112     -0.2714
    142  N         16.7120   11.5590    8.5980 N.am  113  SER113     -0.1949
    143  CA        16.3860   10.3450    7.8790 C.3   113  SER113      0.1924
    144  C         15.5190   10.6740    6.7170 C.2   113  SER113      0.2314
    145  O         15.0250   11.7850    6.6110 O.2   113  SER113     -0.2863
    146  CB        15.6610    9.3600    8.7700 C.3   113  SER113      0.2116
    147  OG        14.2840    9.6730    8.9540 O.3   113  SER113     -0.2180
    148  N         12.2570   12.0220    7.8410 N.3   116  ASP116     -0.1239
    149  CA        12.2740   13.4790    8.1260 C.3   116  ASP116      0.1674
    150  C         12.2810   14.3000    6.8530 C.2   116  ASP116      0.2266
    151  O         11.5400   15.2800    6.7220 O.2   116  ASP116     -0.2867
    152  CB        13.4930   13.8570    8.9690 C.3   116  ASP116      0.1410
    153  CG        13.5740   13.0540   10.2420 C.2   116  ASP116      0.3668
    154  OD1       12.6310   13.1520   11.0460 O.co2 116  ASP116     -0.2456
    155  OD2       14.5630   12.2930   10.4050 O.co2 116  ASP116     -0.2456
    156  N          9.7190   17.0300    5.0740 N.3   120  SER120     -0.1217
    157  CA        10.1730   18.4150    4.9720 C.3   120  SER120      0.1889
    158  C         10.0380   19.0030    3.5700 C.2   120  SER120      0.2288
    159  O          9.9740   20.2100    3.4400 O.2   120  SER120     -0.2866
    160  CB        11.6430   18.5310    5.4010 C.3   120  SER120      0.2089
    161  OG        12.5220   18.1090    4.3550 O.3   120  SER120     -0.2183
    162  N         13.1240    5.5910    8.4250 N.3   163  LYS163     -0.1231
    163  CA        13.8630    6.1470    9.5690 C.3   163  LYS163      0.1693
    164  C         15.3070    5.6540    9.6980 C.2   163  LYS163      0.2592
    165  O         16.0840    6.2480   10.4590 O.2   163  LYS163     -0.2718
    166  CB        13.1250    5.8990   10.8870 C.3   163  LYS163      0.0285
    167  CG        11.9150    6.7920   11.0520 C.3   163  LYS163      0.0035
    168  CD        11.1540    6.4450   12.3400 C.3   163  LYS163      0.0206
    169  CE        10.0520    7.5070   12.6100 C.3   163  LYS163      0.1093
    170  NZ         8.7800    6.8970   13.1280 N.3   163  LYS163     -0.1314
    171  N         15.6620    4.5880    8.9870 N.am  164  ASN164     -0.1974
    172  CA        17.0200    4.0230    9.0450 C.3   164  ASN164      0.1688
    173  C         17.9150    4.3230    7.8360 C.2   164  ASN164      0.2292
    174  O         18.9610    3.6970    7.6530 O.2   164  ASN164     -0.2864
    175  CB        16.9390    2.4900    9.2670 C.3   164  ASN164      0.1181
    176  CG        16.5990    2.1370   10.6830 C.2   164  ASN164      0.2629
    177  OD1       16.6940    2.9790   11.5800 O.2   164  ASN164     -0.2716
    178  ND2       16.2000    0.8950   10.9050 N.am  164  ASN164     -0.0877
    179  N         19.6180    7.7000    6.0270 N.3   166  LEU166     -0.1245
    180  CA        19.9230    9.1390    6.1410 C.3   166  LEU166      0.1561
    181  C         20.0460    9.8030    4.7930 C.2   166  LEU166      0.2260
    182  O         20.4130    9.1650    3.8090 O.2   166  LEU166     -0.2867
    183  CB        21.1940    9.3660    6.9840 C.3   166  LEU166      0.0270
    184  CG        21.1630    9.0140    8.4820 C.3   166  LEU166      0.0019
    185  CD1       19.8810    9.5690    9.1980 C.3   166  LEU166      0.0001
    186  CD2       21.2880    7.5240    8.7870 C.3   166  LEU166      0.0001
    187  N         21.6720    3.0210    7.7070 N.3   176  ALA176     -0.1231
    188  CA        22.1560    2.8530    9.0810 C.3   176  ALA176      0.1694
    189  C         21.3990    1.7390    9.8030 C.2   176  ALA176      0.2592
    190  O         20.5140    1.1210    9.2400 O.2   176  ALA176     -0.2718
    191  CB        21.9930    4.1870    9.8640 C.3   176  ALA176      0.0304
    192  N         21.7720    1.5070   11.0570 N.am  177  ASP177     -0.1974
    193  CA        21.0980    0.5770   11.9890 C.3   177  ASP177      0.1709
    194  C         21.3260   -0.8710   11.5810 C.2   177  ASP177      0.2293
    195  O         20.4220   -1.5580   11.1140 O.2   177  ASP177     -0.2864
    196  CB        19.6230    0.9200   12.2260 C.3   177  ASP177      0.1436
    197  CG        19.2610    1.0090   13.7550 C.2   177  ASP177      0.3671
    198  OD1       20.1130    1.2020   14.6560 O.co2 177  ASP177     -0.2456
    199  OD2       18.0980    0.8820   14.0690 O.co2 177  ASP177     -0.2456
@<TRIPOS>BOND
     1   159   158    2
     2   158   157    1
     3   182   181    2
     4   136   135    2
     5   161   160    1
     6   135   137   am
     7   135   134    1
     8   181   180    1
     9   157   156    1
    10   157   160    1
    11   134   131    1
    12   179   180    1
    13   119   117   ar
    14   119   120   ar
    15   180   183    1
    16    68    69    1
    17   117   116   ar
    18   129   127   ar
    19   145   144    2
    20   120   118   ar
    21   144   143    1
    22   151   150    2
    23   150   149    1
    24   183   184    1
    25   131   130    1
    26   131   132    1
    27   141   140    2
    28   116   118   ar
    29   116   115    1
    30    69    70    1
    31    69    72    1
    32   133   132    2
    33    98    96   ar
    34   127   126    1
    35   127   128   ar
    36   130   123   am
    37   174   173    2
    38    70    71    2
    39   132   138   am
    40   187   188    1
    41   126   125    1
    42   115   112    1
    43   173   172    1
    44   148   149    1
    45   143   142    1
    46   143   146    1
    47   149   152    1
    48   140   142   am
    49   140   139    1
    50   162   163    1
    51    72    73    1
    52   184   186    1
    53   184   185    1
    54   138   139    1
    55    96    95    1
    56    96    97   ar
    57   112   113    1
    58   112   111    1
    59   146   147    1
    60   123   124    2
    61   123   122    1
    62   121   113   am
    63   121   122    1
    64   152   153    1
    65    74    73    1
    66   171   172    1
    67   171   164   am
    68   172   175    1
    69   188   189    1
    70   188   191    1
    71   113   114    2
    72    95    92    1
    73   125   122    1
    74   190   189    2
    75   175   176    1
    76   102   101    2
    77    73    75    1
    78   163   164    1
    79   163   166    1
    80    59    58    2
    81   164   165    2
    82   189   192   am
    83   111   101   am
    84   101   100    1
    85    64    62   ar
    86    64    66   ar
    87   153   155   ar
    88   153   154   ar
    89    62    61   ar
    90    58    57    1
    91   176   178   am
    92   176   177    2
    93    92    93    1
    94    92    91    1
    95    57    56    1
    96    57    60    1
    97   166   167    1
    98    67    66    1
    99   167   168    1
   100   192   193    1
   101   195   194    2
   102    66    65   ar
   103    93    99   am
   104    93    94    2
   105    99   100    1
   106    91    86   am
   107   100   103    1
   108    61    60    1
   109    61    63   ar
   110   194   193    1
   111   193   196    1
   112   196   197    1
   113   106   108   ar
   114   106   104   ar
   115    65    63   ar
   116   168   169    1
   117   108   109   ar
   118   169   170    1
   119   103   104    1
   120    86    85    1
   121    86    87    2
   122   104   105   ar
   123    88    89    1
   124    88    85    1
   125    88    90    1
   126   109   110    1
   127   109   107   ar
   128    85    84    1
   129   105   107   ar
   130   197   199   ar
   131   197   198   ar
   132    50    49    2
   133    55    53   ar
   134    37    34    1
   135    52    53    1
   136    52    51    1
   137    49    48    1
   138    53    54   ar
   139    33    34    1
   140    48    51    1
   141    48    47    1
   142     8     6    1
   143    16    15    2
   144    34    35    1
   145     4     3    2
   146    82    81    1
   147    83    81    1
   148    36    35    2
   149     6     5    1
   150    31    30    1
   151    81    80    1
   152     5     7    1
   153     5     2    1
   154    23    24    1
   155    23    22    1
   156    46    45    1
   157     3     2    1
   158     3     9   am
   159    15    22   am
   160    15    14    1
   161    32    30    1
   162    10     9    1
   163    10    11    1
   164    13    11   am
   165    13    14    1
   166    30    27    1
   167    44    45    1
   168    44    43    1
   169     2     1    1
   170    24    25    2
   171    79    78    2
   172    78    77    1
   173    11    12    2
   174    14    17    1
   175    17    18    1
   176    80    77    1
   177    42    43    1
   178    42    39    1
   179    77    76    1
   180    38    39    1
   181    27    28    1
   182    27    26    1
   183    39    40    1
   184    28    29    2
   185    18    19    1
   186    19    20    1
   187    40    41    2
   188    20    21    1
