@<TRIPOS>MOLECULE
tmp/3mdzA00.pdb
 137 134 0 0 0
SMALL
GASTEIGER

@<TRIPOS>ATOM
      1  N          5.6270    9.3960   78.0100 N.3    91  GLN91      -0.1245
      2  CA         5.6020   10.3440   79.1110 C.3    91  GLN91       0.1566
      3  C          6.3290   11.6420   78.7690 C.2    91  GLN91       0.2260
      4  O          7.1300   11.6770   77.8290 O.2    91  GLN91      -0.2867
      5  CB         6.2200    9.6990   80.3600 C.3    91  GLN91       0.0367
      6  CG         7.5780    9.0340   80.2000 C.3    91  GLN91       0.0905
      7  CD         8.7190    9.7860   80.8830 C.2    91  GLN91       0.2608
      8  OE1        8.7580   11.0150   80.8570 O.2    91  GLN91      -0.2717
      9  NE2        9.6750    9.0440   81.4720 N.am   91  GLN91      -0.0878
     10  N          8.5140   14.9240   81.0570 N.3    93  HIS93      -0.1241
     11  CA         9.0140   15.3800   82.3670 C.3    93  HIS93       0.1621
     12  C          9.8740   16.6240   82.1380 C.2    93  HIS93       0.2264
     13  O         10.2220   16.9580   80.9640 O.2    93  HIS93      -0.2867
     14  CB         9.8150   14.2700   83.0880 C.3    93  HIS93       0.0745
     15  CG        10.9850   13.7600   82.3080 C.ar   93  HIS93       0.0817
     16  ND1       10.8780   12.7220   81.4080 N.ar   93  HIS93      -0.2268
     17  CD2       12.2880   14.1550   82.2760 C.ar   93  HIS93       0.1154
     18  CE1       12.0650   12.5000   80.8600 C.ar   93  HIS93       0.1986
     19  NE2       12.9390   13.3590   81.3550 N.ar   93  HIS93      -0.2212
     20  N         13.3240   19.1740   83.4680 N.3    95  HIS95      -0.1241
     21  CA        14.5360   19.5060   84.2350 C.3    95  HIS95       0.1621
     22  C         14.7040   21.0370   84.4330 C.2    95  HIS95       0.2264
     23  O         14.4940   21.8180   83.5000 O.2    95  HIS95      -0.2867
     24  CB        15.7700   18.9770   83.5130 C.3    95  HIS95       0.0745
     25  CG        15.7270   17.5070   83.2400 C.ar   95  HIS95       0.0817
     26  ND1       16.2550   16.5730   84.1080 N.ar   95  HIS95      -0.2268
     27  CD2       15.2450   16.8170   82.1810 C.ar   95  HIS95       0.1154
     28  CE1       16.0610   15.3660   83.6060 C.ar   95  HIS95       0.1986
     29  NE2       15.4300   15.4890   82.4450 N.ar   95  HIS95      -0.2212
     30  N         11.1950   17.1020   78.3430 N.3   118  HIS118     -0.1241
     31  CA        11.5540   15.9220   77.5410 C.3   118  HIS118      0.1621
     32  C         10.3250   15.0720   77.2540 C.2   118  HIS118      0.2264
     33  O          9.7690   14.5260   78.1800 O.2   118  HIS118     -0.2867
     34  CB        12.6060   15.0800   78.2730 C.3   118  HIS118      0.0745
     35  CG        13.9690   15.6910   78.2750 C.ar  118  HIS118      0.0817
     36  ND1       14.9540   15.2910   79.1400 N.ar  118  HIS118     -0.2268
     37  CD2       14.5130   16.6700   77.5140 C.ar  118  HIS118      0.1154
     38  CE1       16.0480   15.9950   78.9220 C.ar  118  HIS118      0.1986
     39  NE2       15.8190   16.8240   77.9230 N.ar  118  HIS118     -0.2212
     40  N          9.1060   11.6590   75.8870 N.3   120  VAL120     -0.1245
     41  CA         9.7700   10.3800   75.7290 C.3   120  VAL120      0.1561
     42  C          8.9080    9.4030   74.9260 C.2   120  VAL120      0.2260
     43  O          7.8150    8.9860   75.3550 O.2   120  VAL120     -0.2867
     44  CB        10.1450    9.7500   77.1070 C.3   120  VAL120      0.0252
     45  CG1       10.8230    8.3990   76.9270 C.3   120  VAL120      0.0019
     46  CG2       11.0460   10.6670   77.9240 C.3   120  VAL120      0.0019
     47  N          7.8800   -0.8070   76.7580 N.3   130  PHE130     -0.1227
     48  CA         8.6370    0.4130   76.9140 C.3   130  PHE130      0.1736
     49  C          9.9400    0.1760   77.6990 C.2   130  PHE130      0.2596
     50  O         11.0080    0.7300   77.3620 O.2   130  PHE130     -0.2718
     51  CB         7.7850    1.5210   77.5760 C.3   130  PHE130      0.0547
     52  CG         8.5880    2.7080   77.9810 C.ar  130  PHE130     -0.0202
     53  CD1        8.9750    3.6470   77.0420 C.ar  130  PHE130     -0.0042
     54  CD2        9.0250    2.8560   79.2900 C.ar  130  PHE130     -0.0042
     55  CE1        9.7690    4.7150   77.3910 C.ar  130  PHE130     -0.0003
     56  CE2        9.8100    3.9360   79.6400 C.ar  130  PHE130     -0.0003
     57  CZ        10.2000    4.8560   78.6930 C.ar  130  PHE130     -0.0000
     58  N          9.8730   -0.6180   78.7500 N.am  131  GLY131     -0.1957
     59  CA        11.1020   -0.9340   79.5030 C.3   131  GLY131      0.1869
     60  C         12.1510   -1.6720   78.6640 C.2   131  GLY131      0.2309
     61  O         13.3540   -1.4570   78.8070 O.2   131  GLY131     -0.2863
     62  N         13.5530    0.8940   76.2830 N.3   134  ALA134     -0.1231
     63  CA        14.2930    1.9170   77.0140 C.3   134  ALA134      0.1694
     64  C         15.8060    1.6120   77.1650 C.2   134  ALA134      0.2592
     65  O         16.5730    2.5160   77.3940 O.2   134  ALA134     -0.2718
     66  CB        13.6530    2.1900   78.3890 C.3   134  ALA134      0.0304
     67  N         16.2360    0.3830   76.9820 N.am  135  SER135     -0.1952
     68  CA        17.6510    0.0780   77.0410 C.3   135  SER135      0.1924
     69  C         18.1820   -0.5810   75.7740 C.2   135  SER135      0.2314
     70  O         19.3270   -1.0160   75.7230 O.2   135  SER135     -0.2863
     71  CB        17.9380   -0.8080   78.2770 C.3   135  SER135      0.2116
     72  OG        17.8050   -0.0340   79.4810 O.3   135  SER135     -0.2180
     73  N         14.4690    4.3460   71.7780 N.3   140  LEU140     -0.1245
     74  CA        13.7600    5.5890   72.1180 C.3   140  LEU140      0.1561
     75  C         14.0510    6.7950   71.2670 C.2   140  LEU140      0.2260
     76  O         15.1100    6.9400   70.6770 O.2   140  LEU140     -0.2867
     77  CB        13.9900    5.9700   73.5600 C.3   140  LEU140      0.0270
     78  CG        13.6630    4.9600   74.6440 C.3   140  LEU140      0.0019
     79  CD1       14.1460    5.5550   75.9860 C.3   140  LEU140      0.0001
     80  CD2       12.1760    4.6440   74.6880 C.3   140  LEU140      0.0001
     81  N         13.5850   10.8780   71.9550 N.3   142  VAL142     -0.1245
     82  CA        13.2500   11.8570   72.9660 C.3   142  VAL142      0.1561
     83  C         13.2640   13.2000   72.3080 C.2   142  VAL142      0.2260
     84  O         14.2080   13.5490   71.6190 O.2   142  VAL142     -0.2867
     85  CB        14.2520   11.8620   74.1530 C.3   142  VAL142      0.0252
     86  CG1       13.8860   12.9660   75.1800 C.3   142  VAL142      0.0019
     87  CG2       14.2780   10.5160   74.8460 C.3   142  VAL142      0.0019
     88  N         19.8350    7.9570   77.7500 N.3   197  LEU197     -0.1231
     89  CA        19.0260    8.4610   78.8510 C.3   197  LEU197      0.1693
     90  C         19.9450    9.3780   79.6920 C.2   197  LEU197      0.2593
     91  O         21.1320    9.1150   79.8020 O.2   197  LEU197     -0.2718
     92  CB        18.5270    7.3140   79.7060 C.3   197  LEU197      0.0284
     93  CG        17.8100    6.1640   78.9940 C.3   197  LEU197      0.0019
     94  CD1       17.5250    5.1340   80.0240 C.3   197  LEU197      0.0001
     95  CD2       16.5160    6.6780   78.3880 C.3   197  LEU197      0.0001
     96  N         19.3950   10.4600   80.2460 N.am  198  THR198     -0.1939
     97  CA        20.1540   11.4230   81.0730 C.3   198  THR198      0.2028
     98  C         20.0110   11.1180   82.5310 C.2   198  THR198      0.2643
     99  O         20.5620   11.8310   83.3380 O.2   198  THR198     -0.2714
    100  CB        19.6990   12.9010   80.8800 C.3   198  THR198      0.1808
    101  OG1       18.4010   13.1090   81.4730 O.3   198  THR198     -0.2208
    102  CG2       19.6570   13.2270   79.3850 C.3   198  THR198      0.0379
    103  N         19.2230   10.1040   82.8820 N.am  199  THR199     -0.1937
    104  CA        19.2800    9.5550   84.2180 C.3   199  THR199      0.2013
    105  C         19.5020    8.0400   84.1380 C.2   199  THR199      0.2484
    106  O         19.1270    7.3900   83.1420 O.2   199  THR199     -0.2729
    107  CB        17.9900    9.7980   85.0010 C.3   199  THR199      0.1807
    108  OG1       16.9010    9.1530   84.3380 O.3   199  THR199     -0.2208
    109  CG2       17.6930   11.2530   85.1510 C.3   199  THR199      0.0379
    110  N         20.0600    7.4630   85.2180 N.am  200  PRO200     -0.2715
    111  CA        20.1510    6.0230   85.3120 C.3   200  PRO200      0.1521
    112  C         18.9240    5.2990   84.7840 C.2   200  PRO200      0.2440
    113  O         17.8130    5.6530   85.1640 O.2   200  PRO200     -0.2731
    114  CB        20.2820    5.7990   86.8320 C.3   200  PRO200      0.0310
    115  CG        21.1610    6.9170   87.2570 C.3   200  PRO200      0.0237
    116  CD        20.6260    8.1060   86.4260 C.3   200  PRO200      0.0939
    117  N         19.1230    4.2140   84.0320 N.am  201  PRO201     -0.2727
    118  CA        20.4030    3.5360   83.8510 C.3   201  PRO201      0.1402
    119  C         21.3430    4.0930   82.7490 C.2   201  PRO201      0.2269
    120  O         22.3010    3.4120   82.3690 O.2   201  PRO201     -0.2865
    121  CB        19.9810    2.1060   83.5060 C.3   201  PRO201      0.0296
    122  CG        18.6940    2.2560   82.8430 C.3   201  PRO201      0.0237
    123  CD        18.0100    3.3950   83.5440 C.3   201  PRO201      0.0939
    124  N         18.0270   11.5700   69.9400 N.3   208  TRP208     -0.1241
    125  CA        17.6160   12.8470   70.5100 C.3   208  TRP208      0.1605
    126  C         17.1940   13.7970   69.4300 C.2   208  TRP208      0.2264
    127  O         17.8820   13.8980   68.4300 O.2   208  TRP208     -0.2867
    128  CB        18.7570   13.4670   71.2980 C.3   208  TRP208      0.0550
    129  CG        18.7810   12.9630   72.6760 C.ar  208  TRP208      0.0003
    130  CD1       19.5130   11.9200   73.1720 C.ar  208  TRP208      0.0946
    131  CD2       18.0040   13.4690   73.7540 C.ar  208  TRP208      0.0152
    132  NE1       19.2520   11.7720   74.5080 N.ar  208  TRP208     -0.2442
    133  CE2       18.3160   12.7050   74.8820 C.ar  208  TRP208      0.0810
    134  CE3       17.0620   14.4960   73.8620 C.ar  208  TRP208      0.0012
    135  CZ2       17.7240   12.9230   76.1050 C.ar  208  TRP208      0.0191
    136  CZ3       16.4970   14.7330   75.0840 C.ar  208  TRP208      0.0001
    137  CH2       16.8140   13.9400   76.1900 C.ar  208  TRP208      0.0015
@<TRIPOS>BOND
     1   127   126    2
     2   126   125    1
     3   124   125    1
     4   125   128    1
     5    76    75    2
     6    75    74    1
     7   128   129    1
     8    84    83    2
     9    73    74    1
    10    81    82    1
    11    74    77    1
    12    83    82    1
    13   129   130   ar
    14   129   131   ar
    15    82    85    1
    16   130   132   ar
    17    77    78    1
    18   131   134   ar
    19   131   133   ar
    20   134   136   ar
    21    85    87    1
    22    85    86    1
    23   132   133   ar
    24    78    80    1
    25    78    79    1
    26   133   135   ar
    27    42    43    2
    28    42    41    1
    29   136   137   ar
    30    70    69    2
    31    41    40    1
    32    41    44    1
    33    69    68    1
    34   135   137   ar
    35    62    63    1
    36    47    48    1
    37    48    51    1
    38    48    49    1
    39    45    44    1
    40    67    68    1
    41    67    64   am
    42    63    64    1
    43    63    66    1
    44    68    71    1
    45    53    55   ar
    46    53    52   ar
    47    44    46    1
    48    64    65    2
    49    32    31    1
    50    32    33    2
    51    50    49    2
    52    55    57   ar
    53    37    39   ar
    54    37    35   ar
    55    31    34    1
    56    31    30    1
    57    51    52    1
    58    49    58   am
    59    88    89    1
    60     4     3    2
    61    39    38   ar
    62    52    54   ar
    63     1     2    1
    64    34    35    1
    65    35    36   ar
    66    71    72    1
    67    95    93    1
    68    60    61    2
    69    60    59    1
    70    57    56   ar
    71    58    59    1
    72     3     2    1
    73    89    90    1
    74    89    92    1
    75    38    36   ar
    76    93    92    1
    77    93    94    1
    78     2     5    1
    79    54    56   ar
    80   102   100    1
    81    90    91    2
    82    90    96   am
    83     6     5    1
    84     6     7    1
    85    96    97    1
    86     8     7    2
    87    18    19   ar
    88    18    16   ar
    89   100    97    1
    90   100   101    1
    91     7     9   am
    92    13    12    2
    93    10    11    1
    94    97    98    1
    95    19    17   ar
    96    16    15   ar
    97    12    11    1
    98    27    29   ar
    99    27    25   ar
   100    17    15   ar
   101    15    14    1
   102    11    14    1
   103   120   119    2
   104    29    28   ar
   105    98   103   am
   106    98    99    2
   107   119   118    1
   108   122   121    1
   109   122   123    1
   110   103   104    1
   111   106   105    2
   112    25    24    1
   113    25    26   ar
   114    20    21    1
   115    23    22    2
   116   121   118    1
   117    24    21    1
   118   123   117    1
   119    28    26   ar
   120   118   117    1
   121   117   112   am
   122   105   104    1
   123   105   110   am
   124   104   107    1
   125    21    22    1
   126   108   107    1
   127   112   113    2
   128   112   111    1
   129   107   109    1
   130   110   111    1
   131   110   116    1
   132   111   114    1
   133   116   115    1
   134   114   115    1
