@<TRIPOS>MOLECULE
tmp/3me3B00.pdb
 109 104 0 0 0
SMALL
GASTEIGER

@<TRIPOS>ATOM
      1  N          7.3730    2.4310   20.2370 N.3    13  PHE13      -0.1227
      2  CA         7.1260    3.4510   19.2070 C.3    13  PHE13       0.1736
      3  C          5.6300    3.8230   19.1060 C.2    13  PHE13       0.2595
      4  O          5.2800    4.9720   18.8840 O.2    13  PHE13      -0.2718
      5  CB         7.6510    3.0560   17.8430 C.3    13  PHE13       0.0547
      6  CG         7.3740    4.0890   16.7910 C.ar   13  PHE13      -0.0202
      7  CD1        6.2850    3.9570   15.9230 C.ar   13  PHE13      -0.0042
      8  CD2        8.1660    5.2140   16.6940 C.ar   13  PHE13      -0.0042
      9  CE1        6.0350    4.9350   14.9410 C.ar   13  PHE13      -0.0003
     10  CE2        7.9280    6.1880   15.7320 C.ar   13  PHE13      -0.0003
     11  CZ         6.8500    6.0500   14.8570 C.ar   13  PHE13      -0.0000
     12  N          4.7590    2.8410   19.2650 N.am   14  LEU14      -0.1980
     13  CA         3.3130    3.1040   19.3010 C.3    14  LEU14       0.1596
     14  C          2.9060    4.1120   20.3610 C.2    14  LEU14       0.2287
     15  O          2.1770    5.0660   20.0640 O.2    14  LEU14      -0.2864
     16  CB         2.5490    1.8110   19.5480 C.3    14  LEU14       0.0297
     17  CG         1.0380    1.9300   19.4650 C.3    14  LEU14       0.0022
     18  CD1        0.5850    2.8850   18.3310 C.3    14  LEU14       0.0001
     19  CD2        0.5030    0.5450   19.2610 C.3    14  LEU14       0.0001
     20  N          4.0650    7.5490   19.3720 N.3    17  MET17      -0.1245
     21  CA         3.1750    8.1750   18.3730 C.3    17  MET17       0.1570
     22  C          1.9460    8.7340   19.0970 C.2    17  MET17       0.2261
     23  O          1.5000    9.8250   18.7780 O.2    17  MET17      -0.2867
     24  CB         2.6290    7.1680   17.3450 C.3    17  MET17       0.0387
     25  CG         3.4140    6.8190   16.1150 C.3    17  MET17       0.0595
     26  SD         2.3820    5.6400   15.1100 S.3    17  MET17      -0.1393
     27  CE         1.6480    6.6690   13.8350 C.3    17  MET17       0.0692
     28  N         22.4400    6.7810    6.6610 N.3   285  ASN285     -0.1240
     29  CA        22.4830    6.9250    8.1220 C.3   285  ASN285      0.1653
     30  C         23.4340    5.8930    8.7800 C.2   285  ASN285      0.2266
     31  O         24.1890    6.2240    9.7080 O.2   285  ASN285     -0.2867
     32  CB        21.1010    6.7180    8.7330 C.3   285  ASN285      0.1155
     33  CG        20.1310    7.8930    8.5350 C.2   285  ASN285      0.2627
     34  OD1       19.0050    7.7880    9.0060 O.2   285  ASN285     -0.2716
     35  ND2       20.5270    8.9710    7.8410 N.am  285  ASN285     -0.0877
     36  N         11.8220   12.4980    9.5530 N.3   320  LEU320     -0.1231
     37  CA        11.6650   11.3180   10.3920 C.3   320  LEU320      0.1693
     38  C         12.3780   10.0810    9.8480 C.2   320  LEU320      0.2592
     39  O         12.8490    9.2370   10.6220 O.2   320  LEU320     -0.2718
     40  CB        10.1850   11.0120   10.6040 C.3   320  LEU320      0.0284
     41  CG         9.3240   12.0350   11.3450 C.3   320  LEU320      0.0019
     42  CD1        7.8780   11.5740   11.1830 C.3   320  LEU320      0.0001
     43  CD2        9.7240   12.1620   12.8590 C.3   320  LEU320      0.0001
     44  N         12.4300    9.9540    8.5280 N.am  321  ASP321     -0.1960
     45  CA        13.2000    8.9150    7.8450 C.3   321  ASP321      0.1840
     46  C         14.7120    8.9610    8.1800 C.2   321  ASP321      0.2622
     47  O         15.3440    7.9080    8.2520 O.2   321  ASP321     -0.2715
     48  CB        13.0880    9.0830    6.3180 C.3   321  ASP321      0.1450
     49  CG        11.7860    8.5040    5.6960 C.2   321  ASP321      0.3671
     50  OD1       10.9830    7.8170    6.3550 O.co2 321  ASP321     -0.2456
     51  OD2       11.6050    8.7320    4.4830 O.co2 321  ASP321     -0.2456
     52  N         15.2550   10.1740    8.3260 N.am  322  GLY322     -0.1954
     53  CA        16.6740   10.3980    8.6370 C.3   322  GLY322      0.1869
     54  C         17.4490   11.3150    7.7020 C.2   322  GLY322      0.2309
     55  O         18.6740   11.4170    7.8380 O.2   322  GLY322     -0.2863
     56  N         11.1610   12.9890   16.6180 N.3   356  ILE356     -0.1231
     57  CA        11.9960   11.8220   16.4100 C.3   356  ILE356      0.1692
     58  C         11.9890   10.9300   17.6680 C.2   356  ILE356      0.2592
     59  O         11.9960   11.4230   18.7710 O.2   356  ILE356     -0.2718
     60  CB        13.4620   12.2240   16.0320 C.3   356  ILE356      0.0266
     61  CG1       13.5480   12.6420   14.5580 C.3   356  ILE356      0.0019
     62  CG2       14.4280   11.0600   16.2390 C.3   356  ILE356      0.0020
     63  CD1       14.7620   13.4350   14.1990 C.3   356  ILE356      0.0001
     64  N         11.9580    9.6200   17.4790 N.am  357  TYR357     -0.1976
     65  CA        12.0200    8.6770   18.6060 C.3   357  TYR357      0.1639
     66  C         13.4690    8.3490   18.9440 C.2   357  TYR357      0.2290
     67  O         13.9590    7.2510   18.6320 O.2   357  TYR357     -0.2864
     68  CB        11.2730    7.3960   18.2640 C.3   357  TYR357      0.0560
     69  CG        11.0010    6.4840   19.4520 C.ar  357  TYR357     -0.0198
     70  CD1       10.7520    7.0000   20.7310 C.ar  357  TYR357     -0.0009
     71  CD2       10.9470    5.1220   19.2870 C.ar  357  TYR357     -0.0009
     72  CE1       10.4870    6.1670   21.7790 C.ar  357  TYR357      0.0417
     73  CE2       10.6700    4.2740   20.3440 C.ar  357  TYR357      0.0417
     74  CZ        10.4890    4.8100   21.5820 C.ar  357  TYR357      0.1957
     75  OH        10.2080    3.9830   22.6280 O.3   357  TYR357     -0.2866
     76  N         14.9280    4.7260   20.4740 N.3   360  GLN360     -0.1231
     77  CA        15.2140    3.5670   19.6490 C.3   360  GLN360      0.1698
     78  C         16.2840    3.8930   18.6430 C.2   360  GLN360      0.2592
     79  O         17.1340    3.0500   18.3580 O.2   360  GLN360     -0.2718
     80  CB        13.9770    3.0460   18.9520 C.3   360  GLN360      0.0381
     81  CG        14.2040    1.7890   18.1320 C.3   360  GLN360      0.0905
     82  CD        12.9000    1.1670   17.6280 C.2   360  GLN360      0.2608
     83  OE1       11.8350    1.4330   18.1570 O.2   360  GLN360     -0.2717
     84  NE2       12.9960    0.3400   16.6050 N.am  360  GLN360     -0.0878
     85  N         16.2500    5.1180   18.1320 N.am  361  LEU361     -0.1980
     86  CA        17.1410    5.5100   17.0670 C.3   361  LEU361      0.1596
     87  C         18.5960    5.4320   17.5160 C.2   361  LEU361      0.2287
     88  O         19.4160    4.8550   16.8180 O.2   361  LEU361     -0.2864
     89  CB        16.8180    6.9310   16.6050 C.3   361  LEU361      0.0297
     90  CG        17.7640    7.6010   15.5950 C.3   361  LEU361      0.0022
     91  CD1       17.5840    7.1040   14.1790 C.3   361  LEU361      0.0001
     92  CD2       17.4350    9.0540   15.6800 C.3   361  LEU361      0.0001
     93  N         19.6890    1.7760   18.2640 N.3   364  GLU364     -0.1231
     94  CA        20.0390    1.0670   17.0240 C.3   364  GLU364      0.1699
     95  C         21.3440    1.5450   16.3760 C.2   364  GLU364      0.2592
     96  O         22.1260    0.7310   15.8860 O.2   364  GLU364     -0.2718
     97  CB        18.8920    1.0810   15.9960 C.3   364  GLU364      0.0402
     98  CG        17.6720    0.2460   16.4310 C.3   364  GLU364      0.1161
     99  CD        16.5700    0.1740   15.3940 C.2   364  GLU364      0.3649
    100  OE1       16.7140    0.7470   14.3090 O.co2 364  GLU364     -0.2457
    101  OE2       15.5470   -0.4970   15.6560 O.co2 364  GLU364     -0.2457
    102  N         21.5710    2.8500   16.3490 N.am  365  LEU365     -0.1980
    103  CA        22.8500    3.3780   15.8310 C.3   365  LEU365      0.1596
    104  C         24.0410    2.8750   16.6870 C.2   365  LEU365      0.2287
    105  O         25.0910    2.5560   16.1340 O.2   365  LEU365     -0.2864
    106  CB        22.8250    4.9170   15.7330 C.3   365  LEU365      0.0297
    107  CG        21.9370    5.5850   14.6520 C.3   365  LEU365      0.0022
    108  CD1       21.9130    7.0630   14.8700 C.3   365  LEU365      0.0001
    109  CD2       22.3220    5.2790   13.1740 C.3   365  LEU365      0.0001
@<TRIPOS>BOND
     1    51    49   ar
     2    49    48    1
     3    49    50   ar
     4    48    45    1
     5    28    29    1
     6    54    55    2
     7    54    53    1
     8    35    33   am
     9    45    46    1
    10    45    44    1
    11    29    32    1
    12    29    30    1
    13    46    47    2
    14    46    52   am
    15    52    53    1
    16    44    38   am
    17    33    32    1
    18    33    34    2
    19    30    31    2
    20    36    37    1
    21    38    37    1
    22    38    39    2
    23    37    40    1
    24    40    41    1
    25    42    41    1
    26    41    43    1
    27   109   107    1
    28    27    26    1
    29    91    90    1
    30    63    61    1
    31   100    99   ar
    32    61    60    1
    33   107   108    1
    34   107   106    1
    35    11     9   ar
    36    11    10   ar
    37     9     7   ar
    38    26    25    1
    39    99   101   ar
    40    99    98    1
    41    90    92    1
    42    90    89    1
    43    10     8   ar
    44   106   103    1
    45   103   102    1
    46   103   104    1
    47    96    95    2
    48     7     6   ar
    49    97    98    1
    50    97    94    1
    51    60    62    1
    52    60    57    1
    53    25    24    1
    54   105   104    2
    55   102    95   am
    56    95    94    1
    57    57    56    1
    58    57    58    1
    59    84    82   am
    60    89    86    1
    61     8     6   ar
    62     6     5    1
    63    88    87    2
    64    94    93    1
    65    86    87    1
    66    86    85    1
    67    24    21    1
    68    64    58   am
    69    64    65    1
    70    82    81    1
    71    82    83    2
    72    58    59    2
    73     5     2    1
    74    85    78   am
    75    81    80    1
    76    68    65    1
    77    68    69    1
    78    18    17    1
    79    79    78    2
    80    21    22    1
    81    21    20    1
    82    65    66    1
    83    67    66    2
    84    78    77    1
    85    23    22    2
    86     4     3    2
    87    80    77    1
    88     3     2    1
    89     3    12   am
    90     2     1    1
    91    19    17    1
    92    12    13    1
    93    71    69   ar
    94    71    73   ar
    95    13    16    1
    96    13    14    1
    97    69    70   ar
    98    17    16    1
    99    77    76    1
   100    15    14    2
   101    73    74   ar
   102    70    72   ar
   103    74    72   ar
   104    74    75    1
