@<TRIPOS>MOLECULE
tmp/3me6A01.pdb
 146 136 0 0 0
SMALL
GASTEIGER

@<TRIPOS>ATOM
      1  N        -11.0020   50.8410   -3.5210 N.3    74  ILE74      -0.1245
      2  CA       -11.2010   50.5390   -2.1060 C.3    74  ILE74       0.1561
      3  C         -9.8050   50.3230   -1.5550 C.2    74  ILE74       0.2260
      4  O         -9.1720   49.2940   -1.7900 O.2    74  ILE74      -0.2867
      5  CB       -12.1310   49.2490   -1.8990 C.3    74  ILE74       0.0252
      6  CG1      -13.4400   49.3490   -2.6860 C.3    74  ILE74       0.0019
      7  CG2      -12.4470   48.9500   -0.4450 C.3    74  ILE74       0.0019
      8  CD1      -14.2090   50.5820   -2.3950 C.3    74  ILE74       0.0001
      9  N         -8.4880   46.8890   -0.6040 N.3    77  VAL77      -0.1245
     10  CA        -8.2810   45.8110   -1.5570 C.3    77  VAL77       0.1561
     11  C         -7.5270   46.2320   -2.8050 C.2    77  VAL77       0.2260
     12  O         -7.3460   45.4160   -3.7170 O.2    77  VAL77      -0.2867
     13  CB        -9.5850   45.0500   -1.9420 C.3    77  VAL77       0.0252
     14  CG1      -10.1260   44.2920   -0.7310 C.3    77  VAL77       0.0019
     15  CG2      -10.6160   45.9760   -2.5990 C.3    77  VAL77       0.0019
     16  N         -5.9760   44.3010   -6.5560 N.3    81  PHE81      -0.1241
     17  CA        -6.4920   44.4950   -7.9090 C.3    81  PHE81       0.1605
     18  C         -5.6320   45.4360   -8.7400 C.2    81  PHE81       0.2264
     19  O         -5.4190   45.1940   -9.9170 O.2    81  PHE81      -0.2867
     20  CB        -7.9490   44.9790   -7.8740 C.3    81  PHE81       0.0534
     21  CG        -8.9030   43.9460   -7.3780 C.ar   81  PHE81      -0.0203
     22  CD1       -9.4470   43.0060   -8.2440 C.ar   81  PHE81      -0.0042
     23  CD2       -9.2420   43.8870   -6.0300 C.ar   81  PHE81      -0.0042
     24  CE1      -10.3200   42.0320   -7.7600 C.ar   81  PHE81      -0.0003
     25  CE2      -10.1040   42.9250   -5.5560 C.ar   81  PHE81      -0.0003
     26  CZ       -10.6400   41.9940   -6.4200 C.ar   81  PHE81      -0.0000
     27  N        -14.1710   44.7730  -12.1240 N.3    87  ILE87      -0.1231
     28  CA       -14.7670   45.7720  -11.2000 C.3    87  ILE87       0.1692
     29  C        -13.9670   47.0670  -11.2660 C.2    87  ILE87       0.2592
     30  O        -14.5210   48.1360  -11.4840 O.2    87  ILE87      -0.2718
     31  CB       -14.8710   45.2590   -9.7020 C.3    87  ILE87       0.0266
     32  CG1      -15.9560   44.2010   -9.5750 C.3    87  ILE87       0.0019
     33  CG2      -15.2120   46.3630   -8.7200 C.3    87  ILE87       0.0020
     34  CD1      -15.8090   43.3600   -8.3570 C.3    87  ILE87       0.0001
     35  N        -12.6440   46.9190  -11.1310 N.am   88  PHE88      -0.1976
     36  CA       -11.6810   48.0280  -10.9470 C.3    88  PHE88       0.1639
     37  C        -10.8710   48.5150  -12.1790 C.2    88  PHE88       0.2290
     38  O        -10.0880   49.4420  -12.0710 O.2    88  PHE88      -0.2864
     39  CB       -10.7240   47.6130   -9.8480 C.3    88  PHE88       0.0560
     40  CG       -11.3940   47.3260   -8.5330 C.ar   88  PHE88      -0.0200
     41  CD1      -12.0000   48.3550   -7.8090 C.ar   88  PHE88      -0.0042
     42  CD2      -11.3890   46.0500   -8.0070 C.ar   88  PHE88      -0.0042
     43  CE1      -12.5840   48.1400   -6.5870 C.ar   88  PHE88      -0.0003
     44  CE2      -11.9940   45.8020   -6.7800 C.ar   88  PHE88      -0.0003
     45  CZ       -12.5970   46.8710   -6.0630 C.ar   88  PHE88      -0.0000
     46  N        -15.0390   39.6770    3.6110 N.3   179  PHE179     -0.1241
     47  CA       -16.0510   40.6470    3.2470 C.3   179  PHE179      0.1605
     48  C        -16.5270   41.3790    4.4820 C.2   179  PHE179      0.2264
     49  O        -17.0370   42.5090    4.4140 O.2   179  PHE179     -0.2867
     50  CB       -17.2050   39.9630    2.5280 C.3   179  PHE179      0.0534
     51  CG       -18.3670   40.8710    2.2610 C.ar  179  PHE179     -0.0203
     52  CD1      -18.1820   42.0720    1.5480 C.ar  179  PHE179     -0.0042
     53  CD2      -19.6460   40.5350    2.7190 C.ar  179  PHE179     -0.0042
     54  CE1      -19.2480   42.9250    1.3040 C.ar  179  PHE179     -0.0003
     55  CE2      -20.7250   41.3730    2.4750 C.ar  179  PHE179     -0.0003
     56  CZ       -20.5320   42.5750    1.7640 C.ar  179  PHE179     -0.0000
     57  N        -13.4790   43.5380    5.2710 N.3   182  ILE182     -0.1245
     58  CA       -13.5090   44.6060    4.2880 C.3   182  ILE182      0.1561
     59  C        -14.3610   45.7610    4.7870 C.2   182  ILE182      0.2260
     60  O        -14.0060   46.9370    4.6210 O.2   182  ILE182     -0.2867
     61  CB       -14.0020   44.1200    2.9450 C.3   182  ILE182      0.0252
     62  CG1      -12.8880   43.3120    2.3110 C.3   182  ILE182      0.0019
     63  CG2      -14.3820   45.2780    2.0670 C.3   182  ILE182      0.0019
     64  CD1      -13.0580   43.0020    0.8440 C.3   182  ILE182      0.0001
     65  N         -7.2630   37.1040    0.3190 N.3   211  LEU211     -0.1245
     66  CA        -7.5240   37.2630   -1.0750 C.3   211  LEU211      0.1561
     67  C         -6.4700   36.6000   -1.9510 C.2   211  LEU211      0.2260
     68  O         -6.8120   35.9420   -2.9430 O.2   211  LEU211     -0.2867
     69  CB        -7.6920   38.7270   -1.3740 C.3   211  LEU211      0.0270
     70  CG        -9.0140   39.2620   -0.8220 C.3   211  LEU211      0.0019
     71  CD1       -9.1780   40.7430   -1.1910 C.3   211  LEU211      0.0001
     72  CD2      -10.2570   38.4260   -1.2740 C.3   211  LEU211      0.0001
     73  N        -13.2260   39.0280   -8.9330 N.3   267  SER267     -0.1217
     74  CA       -14.3460   39.9790   -8.7730 C.3   267  SER267      0.1889
     75  C        -15.6770   39.2460   -8.8380 C.2   267  SER267      0.2288
     76  O        -16.5120   39.3520   -7.9560 O.2   267  SER267     -0.2866
     77  CB       -14.3230   41.0330   -9.8650 C.3   267  SER267      0.2089
     78  OG       -13.2200   41.9170   -9.7340 O.3   267  SER267     -0.2183
     79  N        -16.3910   36.9540   -6.0940 N.3   270  PHE270     -0.1227
     80  CA       -16.6810   37.6500   -4.8750 C.3   270  PHE270      0.1736
     81  C        -18.1180   38.1250   -4.8310 C.2   270  PHE270      0.2595
     82  O        -18.8900   37.6010   -4.0260 O.2   270  PHE270     -0.2718
     83  CB       -15.7540   38.8300   -4.6670 C.3   270  PHE270      0.0547
     84  CG       -15.4260   39.0740   -3.2330 C.ar  270  PHE270     -0.0202
     85  CD1      -16.2800   38.6240   -2.2220 C.ar  270  PHE270     -0.0042
     86  CD2      -14.2640   39.7470   -2.8780 C.ar  270  PHE270     -0.0042
     87  CE1      -15.9700   38.8320   -0.8760 C.ar  270  PHE270     -0.0003
     88  CE2      -13.9640   39.9820   -1.5440 C.ar  270  PHE270     -0.0003
     89  CZ       -14.8130   39.5180   -0.5420 C.ar  270  PHE270     -0.0000
     90  N        -18.4650   39.1080   -5.6800 N.am  271  ALA271     -0.1980
     91  CA       -19.8230   39.6780   -5.8110 C.3   271  ALA271      0.1597
     92  C        -20.9230   38.6150   -5.9840 C.2   271  ALA271      0.2287
     93  O        -21.9840   38.6150   -5.3070 O.2   271  ALA271     -0.2864
     94  CB       -19.8560   40.5670   -7.0070 C.3   271  ALA271      0.0319
     95  N        -21.0650   37.1920   -2.1260 N.3   274  GLU274     -0.1231
     96  CA       -21.2710   37.8360   -0.8370 C.3   274  GLU274      0.1699
     97  C        -22.3600   38.8990   -0.8240 C.2   274  GLU274      0.2592
     98  O        -22.5770   39.5190    0.2140 O.2   274  GLU274     -0.2718
     99  CB       -19.9980   38.3090   -0.1250 C.3   274  GLU274      0.0402
    100  CG       -19.1780   37.1310    0.4860 C.3   274  GLU274      0.1161
    101  CD       -19.9740   36.2790    1.5190 C.2   274  GLU274      0.3649
    102  OE1      -19.9350   35.0170    1.4510 O.co2 274  GLU274     -0.2457
    103  OE2      -20.6350   36.8810    2.4030 O.co2 274  GLU274     -0.2457
    104  N        -23.0890   39.0940   -1.9220 N.am  275  THR275     -0.1953
    105  CA       -24.2410   40.0180   -1.8340 C.3   275  THR275      0.1897
    106  C        -25.5870   39.3900   -2.0970 C.2   275  THR275      0.2313
    107  O        -26.4960   39.4890   -1.2690 O.2   275  THR275     -0.2863
    108  CB       -24.0920   41.2950   -2.6970 C.3   275  THR275      0.1794
    109  OG1      -23.1000   41.0820   -3.7320 O.3   275  THR275     -0.2208
    110  CG2      -23.7760   42.5430   -1.7910 C.3   275  THR275      0.0378
    111  N        -25.2830   47.9240   -0.1780 N.3   336  ILE336     -0.1245
    112  CA       -24.1220   48.7500   -0.5350 C.3   336  ILE336      0.1561
    113  C        -24.4400   50.2260   -0.3200 C.2   336  ILE336      0.2260
    114  O        -24.8340   50.9270   -1.2600 O.2   336  ILE336     -0.2867
    115  CB       -23.6470   48.4930   -1.9640 C.3   336  ILE336      0.0252
    116  CG1      -23.2060   47.0540   -2.1380 C.3   336  ILE336      0.0019
    117  CG2      -22.4430   49.3410   -2.2750 C.3   336  ILE336      0.0019
    118  CD1      -23.3560   46.5960   -3.5430 C.3   336  ILE336      0.0001
    119  N        -22.3690   52.8860   -2.5920 N.3   339  GLY339     -0.1210
    120  CA       -21.9550   52.5390   -3.9430 C.3   339  GLY339      0.1956
    121  C        -20.5630   52.0110   -3.9140 C.2   339  GLY339      0.2611
    122  O        -19.9220   52.0430   -2.8890 O.2   339  GLY339     -0.2717
    123  N        -20.0910   51.4950   -5.0330 N.am  340  VAL340     -0.1979
    124  CA       -18.6520   51.3260   -5.1840 C.3   340  VAL340      0.1595
    125  C        -18.1900   52.6520   -5.8210 C.2   340  VAL340      0.2287
    126  O        -18.8570   53.1400   -6.7710 O.2   340  VAL340     -0.2864
    127  CB       -18.2700   50.0780   -6.0110 C.3   340  VAL340      0.0276
    128  CG1      -16.7890   49.7660   -5.8560 C.3   340  VAL340      0.0022
    129  CG2      -19.0950   48.8830   -5.5690 C.3   340  VAL340      0.0022
    130  N        -24.6010   47.3990  -12.0470 N.3   409  CYS409     -0.1235
    131  CA       -24.2320   46.0200  -11.7420 C.3   409  CYS409      0.1677
    132  C        -24.4100   45.1470  -12.9810 C.2   409  CYS409      0.2270
    133  O        -25.4170   45.1840  -13.6610 O.2   409  CYS409     -0.2867
    134  CB       -24.9980   45.4710  -10.5380 C.3   409  CYS409      0.0956
    135  SG       -24.7280   43.7180  -10.2570 S.3   409  CYS409     -0.0801
    136  N        -18.5520   49.7240    3.8040 N.3   450  VAL450     -0.1231
    137  CA       -18.6500   49.7480    2.3300 C.3   450  VAL450      0.1692
    138  C        -19.7480   48.7720    1.8450 C.2   450  VAL450      0.2592
    139  O        -20.3630   48.9870    0.8010 O.2   450  VAL450     -0.2718
    140  CB       -17.2400   49.5590    1.6280 C.3   450  VAL450      0.0266
    141  CG1      -16.9970   48.1300    1.2390 C.3   450  VAL450      0.0020
    142  CG2      -17.1080   50.4650    0.4140 C.3   450  VAL450      0.0020
    143  N        -19.9830   47.7170    2.6280 N.am  451  GLY451     -0.1957
    144  CA       -21.2040   46.9360    2.5450 C.3   451  GLY451      0.1869
    145  C        -21.8210   46.8050    3.9240 C.2   451  GLY451      0.2309
    146  O        -21.1350   46.9970    4.9240 O.2   451  GLY451     -0.2863
@<TRIPOS>BOND
     1   133   132    2
     2   132   131    1
     3    37    38    2
     4    37    36    1
     5    27    28    1
     6   130   131    1
     7   131   134    1
     8    30    29    2
     9    29    28    1
    10    29    35   am
    11    28    31    1
    12    35    36    1
    13    36    39    1
    14   134   135    1
    15    19    18    2
    16    77    78    1
    17    77    74    1
    18    39    40    1
    19    31    32    1
    20    31    33    1
    21    32    34    1
    22    73    74    1
    23    75    74    1
    24    75    76    2
    25    18    17    1
    26    40    42   ar
    27    40    41   ar
    28    22    24   ar
    29    22    21   ar
    30    42    44   ar
    31    17    20    1
    32    17    16    1
    33    20    21    1
    34    41    43   ar
    35    24    26   ar
    36    21    23   ar
    37    94    91    1
    38    44    45   ar
    39   126   125    2
    40    43    45   ar
    41    26    25   ar
    42    79    80    1
    43    23    25   ar
    44   127   128    1
    45   127   129    1
    46   127   124    1
    47    92    91    1
    48    92    93    2
    49   125   124    1
    50    91    90    1
    51    90    81   am
    52   124   123    1
    53   123   121   am
    54    80    81    1
    55    80    83    1
    56    81    82    2
    57    83    84    1
    58   120   121    1
    59   120   119    1
    60   121   122    2
    61   109   108    1
    62    12    11    2
    63   118   116    1
    64     1     2    1
    65    84    86   ar
    66    84    85   ar
    67    68    67    2
    68    86    88   ar
    69    11    10    1
    70   108   105    1
    71   108   110    1
    72     6     8    1
    73     6     5    1
    74    15    13    1
    75   117   115    1
    76    85    87   ar
    77   116   115    1
    78    95    96    1
    79     2     5    1
    80     2     3    1
    81   106   105    1
    82   106   107    2
    83   115   112    1
    84    67    66    1
    85    13    10    1
    86    13    14    1
    87   104   105    1
    88   104    97   am
    89     5     7    1
    90     4     3    2
    91    10     9    1
    92    88    89   ar
    93    69    66    1
    94    69    70    1
    95    72    70    1
    96   114   113    2
    97    71    70    1
    98    66    65    1
    99    87    89   ar
   100    96    97    1
   101    96    99    1
   102    97    98    2
   103   112   113    1
   104   112   111    1
   105    99   100    1
   106   142   140    1
   107   100   101    1
   108   139   138    2
   109    64    62    1
   110   141   140    1
   111    54    52   ar
   112    54    56   ar
   113   102   101   ar
   114   101   103   ar
   115    52    51   ar
   116   140   137    1
   117    56    55   ar
   118   138   137    1
   119   138   143   am
   120    63    61    1
   121    51    50    1
   122    51    53   ar
   123    62    61    1
   124   137   136    1
   125    55    53   ar
   126    50    47    1
   127   144   143    1
   128   144   145    1
   129    61    58    1
   130    47    46    1
   131    47    48    1
   132   145   146    2
   133    58    59    1
   134    58    57    1
   135    49    48    2
   136    60    59    2
