@<TRIPOS>MOLECULE
tmp/3meaA00.pdb
 154 147 0 0 0
SMALL
GASTEIGER

@<TRIPOS>ATOM
      1  N         24.9260   12.1280    8.2860 N.3    49  GLN49      -0.1245
      2  CA        24.0710   13.0240    9.0240 C.3    49  GLN49       0.1566
      3  C         22.6420   12.8870    8.5140 C.2    49  GLN49       0.2260
      4  O         22.4080   12.8110    7.3140 O.2    49  GLN49      -0.2867
      5  CB        24.5310   14.4430    8.7910 C.3    49  GLN49       0.0367
      6  CG        23.6760   15.5200    9.4390 C.3    49  GLN49       0.0905
      7  CD        23.6340   15.3770   10.9470 C.2    49  GLN49       0.2608
      8  OE1       22.5590   15.1810   11.5570 O.2    49  GLN49      -0.2717
      9  NE2       24.7950   15.4420   11.5600 N.am   49  GLN49      -0.0878
     10  N         19.3260   14.7510    7.7400 N.3    51  ILE51      -0.1245
     11  CA        18.9260   16.1130    7.4090 C.3    51  ILE51       0.1561
     12  C         17.4390   16.1960    7.1040 C.2    51  ILE51       0.2260
     13  O         16.8190   15.2260    6.7070 O.2    51  ILE51      -0.2867
     14  CB        19.7560   16.6630    6.2130 C.3    51  ILE51       0.0252
     15  CG1       19.3860   15.9820    4.8790 C.3    51  ILE51       0.0019
     16  CG2       21.2520   16.5730    6.5360 C.3    51  ILE51       0.0019
     17  CD1       19.8990   16.7230    3.6470 C.3    51  ILE51       0.0001
     18  N         17.6590   18.8090   -0.1460 N.3    69  ASP69      -0.1239
     19  CA        18.0350   19.4050    1.1200 C.3    69  ASP69       0.1674
     20  C         17.4110   20.8010    1.1790 C.2    69  ASP69       0.2266
     21  O         17.5880   21.5700    0.2450 O.2    69  ASP69      -0.2867
     22  CB        19.5750   19.4420    1.2040 C.3    69  ASP69       0.1410
     23  CG        20.0970   20.2190    2.3820 C.2    69  ASP69       0.3668
     24  OD1       19.3210   20.9190    3.0760 O.co2  69  ASP69      -0.2456
     25  OD2       21.3320   20.1460    2.5670 O.co2  69  ASP69      -0.2456
     26  N         17.8280   23.7150    2.7720 N.3    71  ASP71      -0.1225
     27  CA        18.6210   24.8960    3.2420 C.3    71  ASP71       0.1805
     28  C         18.3460   26.3100    2.6200 C.2    71  ASP71       0.2598
     29  O         17.9510   26.4350    1.4590 O.2    71  ASP71      -0.2718
     30  CB        20.1170   24.5750    3.0420 C.3    71  ASP71       0.1424
     31  CG        20.9990   25.1300    4.1420 C.2    71  ASP71       0.3668
     32  OD1       20.5740   26.0590    4.8620 O.co2  71  ASP71      -0.2456
     33  OD2       22.1240   24.6220    4.2880 O.co2  71  ASP71      -0.2456
     34  N         18.6330   27.3530    3.4190 N.am   72  GLU72      -0.1965
     35  CA        18.5040   28.7910    3.0340 C.3    72  GLU72       0.1733
     36  C         19.3060   29.2300    1.7900 C.2    72  GLU72       0.2616
     37  O         18.8780   30.1310    1.0430 O.2    72  GLU72      -0.2715
     38  CB        18.9430   29.6820    4.2160 C.3    72  GLU72       0.0429
     39  CG        18.0940   29.5200    5.4520 C.3    72  GLU72       0.1163
     40  CD        16.6780   29.9810    5.3170 C.2    72  GLU72       0.3649
     41  OE1       16.3380   30.7270    4.3620 O.co2  72  GLU72      -0.2457
     42  OE2       15.9240   29.6730    6.2530 O.co2  72  GLU72      -0.2457
     43  N         20.4770   28.6210    1.5930 N.am   73  GLU73      -0.1977
     44  CA        21.3450   28.9240    0.4380 C.3    73  GLU73       0.1602
     45  C         20.7440   28.4860   -0.8950 C.2    73  GLU73       0.2287
     46  O         21.1450   28.9700   -1.9600 O.2    73  GLU73      -0.2864
     47  CB        22.7060   28.2370    0.6080 C.3    73  GLU73       0.0415
     48  CG        22.7220   26.7680    1.0410 C.3    73  GLU73       0.1163
     49  CD        24.1380   26.2620    1.1620 C.2    73  GLU73       0.3649
     50  OE1       25.0770   27.0760    1.1080 O.co2  73  GLU73      -0.2457
     51  OE2       24.3040   25.0190    1.1750 O.co2  73  GLU73      -0.2457
     52  N         20.0500   21.3170   -2.4820 N.3    76  GLU76      -0.1245
     53  CA        21.0170   20.3330   -2.9580 C.3    76  GLU76       0.1567
     54  C         20.3150   18.9850   -3.0860 C.2    76  GLU76       0.2260
     55  O         19.6520   18.5480   -2.1470 O.2    76  GLU76      -0.2867
     56  CB        22.1660   20.2160   -1.9720 C.3    76  GLU76       0.0388
     57  CG        23.2450   19.3000   -2.4200 C.3    76  GLU76       0.1160
     58  CD        24.5200   19.4730   -1.6230 C.2    76  GLU76       0.3649
     59  OE1       24.4660   20.0170   -0.4830 O.co2  76  GLU76      -0.2457
     60  OE2       25.5730   19.0630   -2.1420 O.co2  76  GLU76      -0.2457
     61  N         17.3180   19.5010   15.9520 N.3   113  TYR113     -0.1241
     62  CA        17.9800   20.3030   16.9550 C.3   113  TYR113      0.1605
     63  C         17.7050   21.7510   16.6750 C.2   113  TYR113      0.2264
     64  O         17.6980   22.1640   15.5230 O.2   113  TYR113     -0.2867
     65  CB        19.4780   20.0310   16.9610 C.3   113  TYR113      0.0534
     66  CG        20.2310   20.5410   18.1740 C.ar  113  TYR113     -0.0201
     67  CD1       20.2390   19.8260   19.3530 C.ar  113  TYR113     -0.0009
     68  CD2       20.9760   21.7170   18.1220 C.ar  113  TYR113     -0.0009
     69  CE1       20.9310   20.2670   20.4380 C.ar  113  TYR113      0.0417
     70  CE2       21.6840   22.1530   19.2130 C.ar  113  TYR113      0.0417
     71  CZ        21.6650   21.4180   20.3590 C.ar  113  TYR113      0.1957
     72  OH        22.4000   21.7940   21.4860 O.3   113  TYR113     -0.2866
     73  N         17.5460   25.4920   15.7420 N.3   115  GLN115     -0.1231
     74  CA        18.3170   26.3320   14.8240 C.3   115  GLN115      0.1698
     75  C         19.1740   25.5220   13.8580 C.2   115  GLN115      0.2593
     76  O         20.2140   25.9750   13.4020 O.2   115  GLN115     -0.2718
     77  CB        19.1890   27.3750   15.5620 C.3   115  GLN115      0.0381
     78  CG        18.3750   28.3780   16.3130 C.3   115  GLN115      0.0905
     79  CD        17.4640   29.1970   15.4200 C.2   115  GLN115      0.2608
     80  OE1       16.2370   29.2500   15.6160 O.2   115  GLN115     -0.2717
     81  NE2       18.0380   29.7990   14.4230 N.am  115  GLN115     -0.0878
     82  N         18.7560   24.2980   13.5790 N.am  116  THR116     -0.1939
     83  CA        19.3910   23.4970   12.5390 C.3   116  THR116      0.2028
     84  C         18.3160   22.9530   11.6380 C.2   116  THR116      0.2643
     85  O         17.1170   23.0720   11.9170 O.2   116  THR116     -0.2714
     86  CB        20.1930   22.2910   13.1220 C.3   116  THR116      0.1808
     87  OG1       19.2880   21.2320   13.4640 O.3   116  THR116     -0.2208
     88  CG2       21.0810   22.6880   14.3430 C.3   116  THR116      0.0379
     89  N         18.7450   22.3560   10.5420 N.am  117  THR117     -0.1936
     90  CA        17.8860   21.5480    9.7000 C.3   117  THR117      0.2028
     91  C         18.3320   20.0940    9.7550 C.2   117  THR117      0.2642
     92  O         18.1540   19.3470    8.8060 O.2   117  THR117     -0.2714
     93  CB        17.8770   22.0690    8.2570 C.3   117  THR117      0.1808
     94  OG1       19.1490   21.8810    7.6740 O.3   117  THR117     -0.2208
     95  CG2       17.5040   23.5590    8.2160 C.3   117  THR117      0.0379
     96  N         18.8760   19.6810   10.8950 N.am  118  CYS118     -0.1967
     97  CA        19.3850   18.3210   11.0620 C.3   118  CYS118      0.1712
     98  C         18.7730   17.6070   12.2530 C.2   118  CYS118      0.2296
     99  O         18.3880   18.2130   13.2650 O.2   118  CYS118     -0.2864
    100  CB        20.8990   18.3690   11.2280 C.3   118  CYS118      0.0983
    101  SG        21.8330   18.7830    9.7400 S.3   118  CYS118     -0.0798
    102  N         19.2600   14.6140   15.1710 N.3   120  TYR120     -0.1241
    103  CA        20.2940   14.0300   15.9870 C.3   120  TYR120      0.1605
    104  C         19.6930   13.0960   17.0170 C.2   120  TYR120      0.2264
    105  O         18.5300   13.2400   17.4110 O.2   120  TYR120     -0.2867
    106  CB        21.0660   15.1130   16.7080 C.3   120  TYR120      0.0534
    107  CG        21.7940   16.0950   15.8150 C.ar  120  TYR120     -0.0201
    108  CD1       23.1000   15.8700   15.4040 C.ar  120  TYR120     -0.0009
    109  CD2       21.1900   17.2610   15.4050 C.ar  120  TYR120     -0.0009
    110  CE1       23.7610   16.7690   14.6270 C.ar  120  TYR120      0.0417
    111  CE2       21.8630   18.1610   14.6110 C.ar  120  TYR120      0.0417
    112  CZ        23.1530   17.9110   14.2300 C.ar  120  TYR120      0.1957
    113  OH        23.8450   18.8350   13.4400 O.3   120  TYR120     -0.2866
    114  N         19.2820   15.4830   24.1320 N.3   139  PHE139     -0.1227
    115  CA        20.1240   15.1550   22.9840 C.3   139  PHE139      0.1736
    116  C         21.4570   14.5690   23.4240 C.2   139  PHE139      0.2595
    117  O         22.0500   15.0240   24.3940 O.2   139  PHE139     -0.2718
    118  CB        20.4150   16.3960   22.1740 C.3   139  PHE139      0.0547
    119  CG        19.2790   16.8190   21.2680 C.ar  139  PHE139     -0.0202
    120  CD1       19.1320   16.2840   19.9930 C.ar  139  PHE139     -0.0042
    121  CD2       18.3240   17.7150   21.6880 C.ar  139  PHE139     -0.0042
    122  CE1       18.0730   16.6380   19.1660 C.ar  139  PHE139     -0.0003
    123  CE2       17.2820   18.0880   20.8700 C.ar  139  PHE139     -0.0003
    124  CZ        17.1520   17.5630   19.6150 C.ar  139  PHE139     -0.0000
    125  N         21.9720   13.5700   22.7240 N.am  140  GLU140     -0.1965
    126  CA        23.3680   13.1930   22.9300 C.3   140  GLU140      0.1733
    127  C         24.2410   14.3900   22.6150 C.2   140  GLU140      0.2616
    128  O         24.0110   15.0930   21.6270 O.2   140  GLU140     -0.2715
    129  CB        23.7590   12.0230   22.0250 C.3   140  GLU140      0.0429
    130  CG        23.0640   10.7230   22.3780 C.3   140  GLU140      0.1163
    131  CD        23.4570    9.5550   21.5070 C.2   140  GLU140      0.3649
    132  OE1       24.5050    9.6110   20.8450 O.co2 140  GLU140     -0.2457
    133  OE2       22.6850    8.5800   21.4870 O.co2 140  GLU140     -0.2457
    134  N         25.2210   14.6400   23.4750 N.am  141  ASP141     -0.1957
    135  CA        26.1510   15.7480   23.2650 C.3   141  ASP141      0.1840
    136  C         27.4390   15.3740   23.9840 C.2   141  ASP141      0.2622
    137  O         27.5000   15.3960   25.2070 O.2   141  ASP141     -0.2715
    138  CB        25.5660   17.0710   23.7770 C.3   141  ASP141      0.1450
    139  CG        26.3900   18.2460   23.3760 C.2   141  ASP141      0.3671
    140  OD1       27.6350   18.1010   23.2390 O.co2 141  ASP141     -0.2456
    141  OD2       25.7960   19.3290   23.2320 O.co2 141  ASP141     -0.2456
    142  N         28.4550   15.0310   23.2100 N.am  142  THR142     -0.1951
    143  CA        29.6970   14.5490   23.7810 C.3   142  THR142      0.1897
    144  C         30.5340   15.6700   24.3980 C.2   142  THR142      0.2313
    145  O         31.5550   15.4030   25.0130 O.2   142  THR142     -0.2863
    146  CB        30.5410   13.7940   22.7590 C.3   142  THR142      0.1794
    147  OG1       30.8180   14.6560   21.6580 O.3   142  THR142     -0.2208
    148  CG2       29.8200   12.5680   22.2880 C.3   142  THR142      0.0378
    149  N         22.4040   16.7510   26.6360 N.3   149  SER149     -0.1217
    150  CA        21.9180   18.1120   26.8090 C.3   149  SER149      0.1889
    151  C         20.9460   18.1840   27.9810 C.2   149  SER149      0.2288
    152  O         20.3600   17.1760   28.4030 O.2   149  SER149     -0.2866
    153  CB        21.1670   18.5740   25.5700 C.3   149  SER149      0.2089
    154  OG        19.8960   17.9440   25.4130 O.3   149  SER149     -0.2183
@<TRIPOS>BOND
     1    54    53    1
     2    54    55    2
     3    53    52    1
     4    53    56    1
     5    57    56    1
     6    57    58    1
     7    60    58   ar
     8    46    45    2
     9    58    59   ar
    10    45    44    1
    11    18    19    1
    12    21    20    2
    13    44    47    1
    14    44    43    1
    15    47    48    1
    16    48    49    1
    17    37    36    2
    18    50    49   ar
    19    19    20    1
    20    19    22    1
    21    49    51   ar
    22    22    23    1
    23    29    28    2
    24    43    36   am
    25    36    35    1
    26    23    25   ar
    27    23    24   ar
    28    28    27    1
    29    28    34   am
    30    26    27    1
    31    35    34    1
    32    35    38    1
    33    30    27    1
    34    30    31    1
    35    17    15    1
    36    31    33   ar
    37    31    32   ar
    38    38    39    1
    39    41    40   ar
    40    15    14    1
    41    40    39    1
    42    40    42   ar
    43    14    16    1
    44    14    11    1
    45    13    12    2
    46    12    11    1
    47     4     3    2
    48    11    10    1
    49    94    93    1
    50    95    93    1
    51    93    90    1
    52     1     2    1
    53     3     2    1
    54     5     2    1
    55     5     6    1
    56    92    91    2
    57     6     7    1
    58    90    91    1
    59    90    89    1
    60   101   100    1
    61    91    96   am
    62    89    84   am
    63    96    97    1
    64     7     8    2
    65     7     9   am
    66    97   100    1
    67    97    98    1
    68    84    85    2
    69    84    83    1
    70    98    99    2
    71    83    86    1
    72    83    82    1
    73    86    87    1
    74    86    88    1
    75    76    75    2
    76   113   112    1
    77    82    75   am
    78    75    74    1
    79   112   111   ar
    80   112   110   ar
    81    81    79   am
    82   111   109   ar
    83   110   108   ar
    84    74    77    1
    85    74    73    1
    86   102   103    1
    87   108   107   ar
    88   109   107   ar
    89    79    80    2
    90    79    78    1
    91    64    63    2
    92    77    78    1
    93   107   106    1
    94    61    62    1
    95   103   106    1
    96   103   104    1
    97    63    62    1
    98    62    65    1
    99    65    66    1
   100   104   105    2
   101    68    66   ar
   102    68    70   ar
   103    66    67   ar
   104   122   124   ar
   105   122   120   ar
   106    70    71   ar
   107    67    69   ar
   108   124   123   ar
   109   120   119   ar
   110    71    69   ar
   111    71    72    1
   112   132   131   ar
   113   123   121   ar
   114   119   121   ar
   115   119   118    1
   116   133   131   ar
   117   131   130    1
   118   128   127    2
   119   147   146    1
   120   129   130    1
   121   129   126    1
   122   118   115    1
   123   148   146    1
   124   127   126    1
   125   127   134   am
   126   125   126    1
   127   125   116   am
   128   146   143    1
   129   115   116    1
   130   115   114    1
   131   142   143    1
   132   142   136   am
   133   141   139   ar
   134   140   139   ar
   135   135   134    1
   136   135   138    1
   137   135   136    1
   138   139   138    1
   139   116   117    2
   140   143   144    1
   141   136   137    2
   142   144   145    2
   143   154   153    1
   144   153   150    1
   145   149   150    1
   146   150   151    1
   147   151   152    2
