@<TRIPOS>MOLECULE
tmp/3mebB01.pdb
 126 120 0 0 0
SMALL
GASTEIGER

@<TRIPOS>ATOM
      1  N         -2.2520   44.0450   33.6830 N.3   106  SER106     -0.1202
      2  CA        -2.1150   43.8870   35.0890 C.3   106  SER106      0.2020
      3  C         -2.4130   45.1740   35.8680 C.2   106  SER106      0.2619
      4  O         -3.1570   46.0660   35.4010 O.2   106  SER106     -0.2717
      5  CB        -0.7280   43.2810   35.4050 C.3   106  SER106      0.2103
      6  OG        -0.6910   42.8280   36.7480 O.3   106  SER106     -0.2182
      7  N         -1.8610   45.2850   37.0710 N.am  107  GLY107     -0.1942
      8  CA        -2.1380   46.4500   37.9060 C.3   107  GLY107      0.2014
      9  C         -1.6480   47.7380   37.2530 C.2   107  GLY107      0.2639
     10  O         -2.3690   48.7360   37.1790 O.2   107  GLY107     -0.2714
     11  N         -0.3950   47.7340   36.8130 N.am  108  THR108     -0.1950
     12  CA         0.2090   48.9550   36.3040 C.3   108  THR108      0.1897
     13  C         -0.5400   49.4890   35.0890 C.2   108  THR108      0.2313
     14  O         -0.8020   50.6800   34.9940 O.2   108  THR108     -0.2863
     15  CB         1.6900   48.7230   35.9590 C.3   108  THR108      0.1794
     16  OG1        2.3660   48.2770   37.1410 O.3   108  THR108     -0.2208
     17  CG2        2.3230   50.0080   35.4530 C.3   108  THR108      0.0378
     18  N         -3.8440   50.9770   36.1000 N.3   111  LEU111     -0.1245
     19  CA        -3.6260   52.2910   36.6900 C.3   111  LEU111      0.1561
     20  C         -3.4280   53.3260   35.6020 C.2   111  LEU111      0.2260
     21  O         -3.9720   54.4150   35.6580 O.2   111  LEU111     -0.2867
     22  CB        -2.4250   52.2620   37.6390 C.3   111  LEU111      0.0270
     23  CG        -2.6880   51.4750   38.9470 C.3   111  LEU111      0.0019
     24  CD1       -1.3490   51.1490   39.6440 C.3   111  LEU111      0.0001
     25  CD2       -3.6040   52.1970   39.8750 C.3   111  LEU111      0.0001
     26  N          2.9930   53.1490   46.8370 N.3   134  TRP134     -0.1241
     27  CA         3.9010   52.3910   45.9380 C.3   134  TRP134      0.1605
     28  C          4.6290   53.3760   45.0560 C.2   134  TRP134      0.2264
     29  O          3.9630   54.1580   44.3930 O.2   134  TRP134     -0.2867
     30  CB         3.0700   51.4890   45.0520 C.3   134  TRP134      0.0550
     31  CG         3.7830   50.5030   44.1780 C.ar  134  TRP134      0.0003
     32  CD1        4.7530   49.6130   44.5450 C.ar  134  TRP134      0.0946
     33  CD2        3.4620   50.2130   42.8020 C.ar  134  TRP134      0.0152
     34  NE1        5.1060   48.8320   43.4560 N.ar  134  TRP134     -0.2442
     35  CE2        4.3210   49.1790   42.3830 C.ar  134  TRP134      0.0810
     36  CE3        2.5560   50.7650   41.8770 C.ar  134  TRP134      0.0012
     37  CZ2        4.2750   48.6520   41.0810 C.ar  134  TRP134      0.0191
     38  CZ3        2.5110   50.2520   40.5900 C.ar  134  TRP134      0.0001
     39  CH2        3.3630   49.1980   40.2110 C.ar  134  TRP134      0.0015
     40  N         -5.3890   51.9770   48.5890 N.3   187  HIS187     -0.1241
     41  CA        -5.0280   50.5780   48.4330 C.3   187  HIS187      0.1621
     42  C         -6.1950   49.8030   49.0490 C.2   187  HIS187      0.2264
     43  O         -6.6520   50.1670   50.1250 O.2   187  HIS187     -0.2867
     44  CB        -3.7170   50.2700   49.1630 C.3   187  HIS187      0.0745
     45  CG        -2.5110   51.0190   48.6550 C.ar  187  HIS187      0.0817
     46  ND1       -1.3110   50.3830   48.3960 N.ar  187  HIS187     -0.2268
     47  CD2       -2.2930   52.3420   48.4430 C.ar  187  HIS187      0.1154
     48  CE1       -0.4120   51.2910   48.0450 C.ar  187  HIS187      0.1986
     49  NE2       -0.9840   52.4870   48.0480 N.ar  187  HIS187     -0.2212
     50  N          0.8880   48.9060   50.3920 N.3   192  ASN192     -0.1240
     51  CA         2.2960   48.7620   50.0260 C.3   192  ASN192      0.1653
     52  C          2.8630   50.1770   49.9370 C.2   192  ASN192      0.2266
     53  O          2.4050   50.9430   49.0890 O.2   192  ASN192     -0.2867
     54  CB         2.3020   48.0810   48.6570 C.3   192  ASN192      0.1155
     55  CG         3.6900   47.9110   48.0550 C.2   192  ASN192      0.2627
     56  OD1        4.7100   48.2980   48.6230 O.2   192  ASN192     -0.2716
     57  ND2        3.7150   47.3050   46.8970 N.am  192  ASN192     -0.0877
     58  N         -6.5810   50.5460   44.2030 N.3   220  ASP220     -0.1239
     59  CA        -5.5120   49.7370   43.6410 C.3   220  ASP220      0.1674
     60  C         -5.5860   48.4230   44.4030 C.2   220  ASP220      0.2266
     61  O         -5.3850   48.3930   45.6160 O.2   220  ASP220     -0.2867
     62  CB        -4.1480   50.4150   43.8640 C.3   220  ASP220      0.1410
     63  CG        -2.9670   49.5790   43.3430 C.2   220  ASP220      0.3668
     64  OD1       -3.0550   48.3340   43.3690 O.co2 220  ASP220     -0.2456
     65  OD2       -1.9190   50.1500   42.9690 O.co2 220  ASP220     -0.2456
     66  N         -4.1240   44.8260   44.2700 N.3   222  ALA222     -0.1231
     67  CA        -3.1690   43.8310   43.8030 C.3   222  ALA222      0.1694
     68  C         -2.9720   42.7040   44.7820 C.2   222  ALA222      0.2592
     69  O         -2.2730   41.7530   44.4490 O.2   222  ALA222     -0.2718
     70  CB        -1.8420   44.4850   43.5160 C.3   222  ALA222      0.0304
     71  N         -3.5310   42.8150   45.9920 N.am  223  TYR223     -0.1976
     72  CA        -3.2730   41.8320   47.0630 C.3   223  TYR223      0.1639
     73  C         -4.5300   41.1760   47.6180 C.2   223  TYR223      0.2290
     74  O         -4.5350   40.6620   48.7500 O.2   223  TYR223     -0.2864
     75  CB        -2.4750   42.5000   48.1960 C.3   223  TYR223      0.0560
     76  CG        -1.1090   42.8580   47.7410 C.ar  223  TYR223     -0.0198
     77  CD1       -0.1700   41.8640   47.4610 C.ar  223  TYR223     -0.0009
     78  CD2       -0.7620   44.1700   47.5080 C.ar  223  TYR223     -0.0009
     79  CE1        1.0960   42.1990   47.0200 C.ar  223  TYR223      0.0417
     80  CE2        0.4700   44.5080   47.0630 C.ar  223  TYR223      0.0417
     81  CZ         1.3940   43.5400   46.8200 C.ar  223  TYR223      0.1957
     82  OH         2.6180   43.9140   46.3640 O.3   223  TYR223     -0.2866
     83  N         -5.0500   43.6440   39.8180 N.3   253  SER253     -0.1217
     84  CA        -3.9430   42.8240   39.2980 C.3   253  SER253      0.1889
     85  C         -4.1040   41.3780   39.7320 C.2   253  SER253      0.2288
     86  O         -4.5000   41.1150   40.8720 O.2   253  SER253     -0.2866
     87  CB        -2.6260   43.3300   39.8560 C.3   253  SER253      0.2089
     88  OG        -1.5310   42.4490   39.6490 O.3   253  SER253     -0.2183
     89  N         -1.2400   39.4760   39.3030 N.3   255  SER255     -0.1202
     90  CA         0.1950   39.1170   39.3770 C.3   255  SER255      0.2020
     91  C          0.5170   38.3020   40.6310 C.2   255  SER255      0.2618
     92  O          1.2070   37.2640   40.5730 O.2   255  SER255     -0.2717
     93  CB         1.0290   40.3850   39.3900 C.3   255  SER255      0.2103
     94  OG         1.0060   41.0180   38.1300 O.3   255  SER255     -0.2182
     95  N         -0.0080   38.7500   41.7650 N.am  256  LYS256     -0.1979
     96  CA         0.3680   38.1950   43.0570 C.3   256  LYS256      0.1596
     97  C         -0.5750   37.0690   43.4680 C.2   256  LYS256      0.2287
     98  O         -0.1020   35.9750   43.8160 O.2   256  LYS256     -0.2864
     99  CB         0.4200   39.3050   44.1180 C.3   256  LYS256      0.0298
    100  CG         1.6060   40.2200   43.8750 C.3   256  LYS256      0.0038
    101  CD         1.1710   41.4630   43.2170 C.3   256  LYS256      0.0206
    102  CE         2.3510   42.2430   42.7060 C.3   256  LYS256      0.1093
    103  NZ         3.3940   42.5130   43.7050 N.3   256  LYS256     -0.1314
    104  N          2.5340   37.1790   37.3850 N.3   261  TYR261     -0.1241
    105  CA         3.4340   38.3490   37.2370 C.3   261  TYR261      0.1605
    106  C          3.7680   38.7390   35.7960 C.2   261  TYR261      0.2264
    107  O          3.4460   39.8040   35.3440 O.2   261  TYR261     -0.2867
    108  CB         4.7550   38.0780   37.9960 C.3   261  TYR261      0.0534
    109  CG         4.5490   37.7110   39.4610 C.ar  261  TYR261     -0.0201
    110  CD1        4.4530   38.6870   40.4520 C.ar  261  TYR261     -0.0009
    111  CD2        4.4500   36.3700   39.8530 C.ar  261  TYR261     -0.0009
    112  CE1        4.2280   38.3410   41.7850 C.ar  261  TYR261      0.0417
    113  CE2        4.2280   36.0270   41.1890 C.ar  261  TYR261      0.0417
    114  CZ         4.1240   37.0160   42.1500 C.ar  261  TYR261      0.1957
    115  OH         3.8810   36.6560   43.4580 O.3   261  TYR261     -0.2866
    116  N          1.1360   39.5470   32.6620 N.3   264  ARG264     -0.1245
    117  CA         0.6440   40.9270   32.6000 C.3   264  ARG264      0.1563
    118  C         -0.8840   40.9570   32.4250 C.2   264  ARG264      0.2260
    119  O         -1.4060   41.4050   31.4110 O.2   264  ARG264     -0.2867
    120  CB         1.3290   41.7340   31.5200 C.3   264  ARG264      0.0307
    121  CG         2.8540   41.6000   31.4210 C.3   264  ARG264      0.0489
    122  CD         3.6330   41.9520   32.6780 C.3   264  ARG264      0.2205
    123  NE         3.3100   43.2670   33.1860 N.pl3 264  ARG264     -0.0865
    124  CZ         2.8650   43.5220   34.4250 C.cat 264  ARG264      0.5346
    125  NH1        2.7230   42.5530   35.3280 N.pl3 264  ARG264      0.1354
    126  NH2        2.6170   44.7760   34.7860 N.pl3 264  ARG264      0.1354
@<TRIPOS>BOND
     1   119   118    2
     2   121   120    1
     3   121   122    1
     4   120   117    1
     5   118   117    1
     6   117   116    1
     7   122   123    1
     8   123   124    2
     9     1     2    1
    10   124   126    1
    11   124   125    1
    12    14    13    2
    13     2     5    1
    14     2     3    1
    15    13    12    1
    16   107   106    2
    17     4     3    2
    18     5     6    1
    19    17    15    1
    20    20    21    2
    21    20    19    1
    22   106   105    1
    23     3     7   am
    24    15    12    1
    25    15    16    1
    26    18    19    1
    27    12    11    1
    28    19    22    1
    29    11     9   am
    30     7     8    1
    31    10     9    2
    32   105   104    1
    33   105   108    1
    34     9     8    1
    35    22    23    1
    36   108   109    1
    37    94    93    1
    38    23    24    1
    39    23    25    1
    40    84    85    1
    41    84    83    1
    42    84    87    1
    43    89    90    1
    44    90    93    1
    45    90    91    1
    46   109   111   ar
    47   109   110   ar
    48    88    87    1
    49    85    86    2
    50   111   113   ar
    51    39    38   ar
    52    39    37   ar
    53   110   112   ar
    54    92    91    2
    55    38    36   ar
    56    91    95   am
    57    37    35   ar
    58   113   114   ar
    59    95    96    1
    60   112   114   ar
    61    36    33   ar
    62   114   115    1
    63    35    33   ar
    64    35    34   ar
    65   102   101    1
    66   102   103    1
    67    33    31   ar
    68    65    63   ar
    69    96    97    1
    70    96    99    1
    71   101   100    1
    72    63    64   ar
    73    63    62    1
    74    34    32   ar
    75    97    98    2
    76    70    67    1
    77    59    62    1
    78    59    58    1
    79    59    60    1
    80    67    66    1
    81    67    68    1
    82   100    99    1
    83    31    32   ar
    84    31    30    1
    85    29    28    2
    86    60    61    2
    87    69    68    2
    88    68    71   am
    89    30    27    1
    90    28    27    1
    91    27    26    1
    92    71    72    1
    93    82    81    1
    94    81    79   ar
    95    81    80   ar
    96    57    55   am
    97    79    77   ar
    98    72    73    1
    99    72    75    1
   100    80    78   ar
   101    77    76   ar
   102    78    76   ar
   103    73    74    2
   104    76    75    1
   105    48    49   ar
   106    48    46   ar
   107    49    47   ar
   108    55    56    2
   109    55    54    1
   110    46    45   ar
   111    41    40    1
   112    41    42    1
   113    41    44    1
   114    47    45   ar
   115    45    44    1
   116    54    51    1
   117    42    43    2
   118    53    52    2
   119    52    51    1
   120    51    50    1
