@<TRIPOS>MOLECULE
tmp/3melA00.pdb
 129 123 0 0 0
SMALL
GASTEIGER

@<TRIPOS>ATOM
      1  N          7.5030   -5.3830   87.5390 N.3     7  ALA7       -0.1231
      2  CA         7.0090   -6.7090   87.8640 C.3     7  ALA7        0.1694
      3  C          6.2000   -6.6530   89.1550 C.2     7  ALA7        0.2592
      4  O          5.9960   -5.5810   89.7260 O.2     7  ALA7       -0.2718
      5  CB         8.1490   -7.6710   88.0040 C.3     7  ALA7        0.0304
      6  N          5.7500   -7.8150   89.6130 N.am    8  GLY8       -0.1957
      7  CA         4.7570   -7.8840   90.6680 C.3     8  GLY8        0.1869
      8  C          5.3240   -7.9310   92.0660 C.2     8  GLY8        0.2309
      9  O          4.6090   -8.1920   93.0320 O.2     8  GLY8       -0.2863
     10  N          3.8310   -4.9400   84.5120 N.3    28  ILE28      -0.1231
     11  CA         3.8820   -6.3540   84.1870 C.3    28  ILE28       0.1692
     12  C          2.9830   -7.0960   85.1590 C.2    28  ILE28       0.2592
     13  O          3.2490   -7.1200   86.3590 O.2    28  ILE28      -0.2718
     14  CB         5.3100   -6.8870   84.2880 C.3    28  ILE28       0.0266
     15  CG1        6.2430   -6.0610   83.3910 C.3    28  ILE28       0.0019
     16  CG2        5.3440   -8.3360   83.9130 C.3    28  ILE28       0.0020
     17  CD1        7.7050   -6.4290   83.4990 C.3    28  ILE28       0.0001
     18  N          1.8990   -7.6740   84.6470 N.am   29  ASP29      -0.1974
     19  CA         0.9590   -8.3920   85.4980 C.3    29  ASP29       0.1709
     20  C          0.5860   -7.5240   86.6940 C.2    29  ASP29       0.2293
     21  O          0.1010   -6.4140   86.5440 O.2    29  ASP29      -0.2864
     22  CB         1.5630   -9.7120   86.0000 C.3    29  ASP29       0.1436
     23  CG         0.9590  -10.9270   85.3410 C.2    29  ASP29       0.3671
     24  OD1        0.3870  -10.7960   84.2460 O.co2  29  ASP29      -0.2456
     25  OD2        1.0670  -12.0290   85.9120 O.co2  29  ASP29      -0.2456
     26  N         -0.4400  -12.1600   81.4460 N.3    48  ASP48      -0.1239
     27  CA        -1.6120  -12.9880   81.2180 C.3    48  ASP48       0.1674
     28  C         -2.6120  -12.6040   82.2830 C.2    48  ASP48       0.2266
     29  O         -3.7930  -12.9280   82.2120 O.2    48  ASP48      -0.2867
     30  CB        -1.2500  -14.4690   81.2950 C.3    48  ASP48       0.1410
     31  CG        -0.2770  -14.7770   82.4120 C.2    48  ASP48       0.3668
     32  OD1       -0.6400  -14.5640   83.5830 O.co2  48  ASP48      -0.2456
     33  OD2        0.8490  -15.2440   82.1290 O.co2  48  ASP48      -0.2456
     34  N         -3.2460  -13.5020   85.1500 N.3    50  ASP50      -0.1239
     35  CA        -3.9250  -14.5450   85.9140 C.3    50  ASP50       0.1674
     36  C         -3.8090  -14.2980   87.4140 C.2    50  ASP50       0.2266
     37  O         -4.6110  -14.7850   88.2080 O.2    50  ASP50      -0.2867
     38  CB        -3.4360  -15.9610   85.5240 C.3    50  ASP50       0.1410
     39  CG        -1.9330  -16.1900   85.8000 C.2    50  ASP50       0.3668
     40  OD1       -1.2590  -15.3230   86.4290 O.co2  50  ASP50      -0.2456
     41  OD2       -1.4300  -17.2640   85.3800 O.co2  50  ASP50      -0.2456
     42  N         -1.7250  -17.5580   79.2750 N.3    72  ALA72      -0.1231
     43  CA        -1.0230  -18.0550   80.4710 C.3    72  ALA72       0.1694
     44  C          0.0010  -19.1270   80.1010 C.2    72  ALA72       0.2592
     45  O          0.9980  -19.3260   80.8000 O.2    72  ALA72      -0.2718
     46  CB        -2.0040  -18.6090   81.4770 C.3    72  ALA72       0.0304
     47  N         -0.2670  -19.8040   78.9840 N.am   73  GLU73      -0.1966
     48  CA         0.5760  -20.8560   78.4560 C.3    73  GLU73       0.1733
     49  C          1.4570  -20.2980   77.3650 C.2    73  GLU73       0.2616
     50  O          1.0340  -20.1940   76.2190 O.2    73  GLU73      -0.2715
     51  CB        -0.3040  -21.9470   77.8400 C.3    73  GLU73       0.0429
     52  CG         0.3710  -23.3130   77.6500 C.3    73  GLU73       0.1163
     53  CD         0.2650  -24.1740   78.8990 C.2    73  GLU73       0.3649
     54  OE1        0.0940  -23.5860   79.9960 O.co2  73  GLU73      -0.2457
     55  OE2        0.3410  -25.4300   78.7850 O.co2  73  GLU73      -0.2457
     56  N          2.6820  -19.9360   77.7160 N.am   74  LYS74      -0.1963
     57  CA         3.6670  -19.5320   76.7180 C.3    74  LYS74       0.1728
     58  C          5.0690  -19.9580   77.1330 C.2    74  LYS74       0.2616
     59  O          5.2870  -20.3160   78.2900 O.2    74  LYS74      -0.2715
     60  CB         3.6290  -18.0120   76.4930 C.3    74  LYS74       0.0311
     61  CG         3.0120  -17.2280   77.6300 C.3    74  LYS74       0.0038
     62  CD         3.5840  -15.8160   77.7520 C.3    74  LYS74       0.0206
     63  CE         3.0200  -15.0840   78.9710 C.3    74  LYS74       0.1093
     64  NZ         3.1820  -15.8650   80.2310 N.3    74  LYS74      -0.1314
     65  N          6.0090  -19.9180   76.1890 N.am   75  ASP75      -0.1957
     66  CA         7.4350  -20.0380   76.5000 C.3    75  ASP75       0.1840
     67  C          7.9560  -18.8530   77.3110 C.2    75  ASP75       0.2622
     68  O          8.6560  -19.0350   78.3040 O.2    75  ASP75      -0.2715
     69  CB         8.2650  -20.1370   75.2240 C.3    75  ASP75       0.1450
     70  CG         7.9770  -21.3940   74.4350 C.2    75  ASP75       0.3671
     71  OD1        7.7130  -22.4500   75.0680 O.co2  75  ASP75      -0.2456
     72  OD2        8.0210  -21.3090   73.1810 O.co2  75  ASP75      -0.2456
     73  N          7.6190  -17.6400   76.8840 N.am   76  ASP76      -0.1957
     74  CA         8.0910  -16.4410   77.5520 C.3    76  ASP76       0.1840
     75  C          7.4350  -16.2050   78.8970 C.2    76  ASP76       0.2623
     76  O          6.2400  -16.4150   79.0650 O.2    76  ASP76      -0.2715
     77  CB         7.8170  -15.2150   76.6970 C.3    76  ASP76       0.1450
     78  CG         8.6960  -15.1420   75.4830 C.2    76  ASP76       0.3671
     79  OD1        9.3390  -16.1540   75.1170 O.co2  76  ASP76      -0.2456
     80  OD2        8.7340  -14.0560   74.8810 O.co2  76  ASP76      -0.2456
     81  N          8.2300  -15.7300   79.8470 N.am   77  THR77      -0.1937
     82  CA         7.7030  -15.1240   81.0640 C.3    77  THR77       0.2028
     83  C          7.0880  -13.7510   80.7500 C.2    77  THR77       0.2642
     84  O          7.5030  -13.0870   79.7950 O.2    77  THR77      -0.2714
     85  CB         8.8170  -14.9180   82.0900 C.3    77  THR77       0.1808
     86  OG1        9.8390  -14.0860   81.5270 O.3    77  THR77      -0.2208
     87  CG2        9.4300  -16.2480   82.4990 C.3    77  THR77       0.0379
     88  N          6.1200  -13.3170   81.5540 N.am   78  ASP78      -0.1957
     89  CA         5.5220  -11.9910   81.3640 C.3    78  ASP78       0.1840
     90  C          6.5830  -10.9100   81.1760 C.2    78  ASP78       0.2623
     91  O          6.4480  -10.0390   80.3240 O.2    78  ASP78      -0.2715
     92  CB         4.6060  -11.6280   82.5290 C.3    78  ASP78       0.1450
     93  CG         3.2170  -12.2280   82.3870 C.2    78  ASP78       0.3671
     94  OD1        2.8960  -12.7370   81.2930 O.co2  78  ASP78      -0.2456
     95  OD2        2.4450  -12.1850   83.3680 O.co2  78  ASP78      -0.2456
     96  N          7.6510  -10.9980   81.9650 N.am   79  THR79      -0.1937
     97  CA         8.7610  -10.0550   81.8970 C.3    79  THR79       0.2028
     98  C          9.5700  -10.1740   80.6030 C.2    79  THR79       0.2642
     99  O          9.9930   -9.1790   80.0560 O.2    79  THR79      -0.2714
    100  CB         9.6790  -10.1810   83.1340 C.3    79  THR79       0.1808
    101  OG1        8.9730   -9.7630   84.3070 O.3    79  THR79      -0.2208
    102  CG2       10.9120   -9.3180   82.9890 C.3    79  THR79       0.0379
    103  N          9.7860  -11.3750   80.0910 N.am   80  GLN80      -0.1976
    104  CA        10.4490  -11.4720   78.7900 C.3    80  GLN80       0.1601
    105  C          9.6210  -10.7750   77.7200 C.2    80  GLN80       0.2287
    106  O         10.1450  -10.0290   76.8910 O.2    80  GLN80      -0.2864
    107  CB        10.7100  -12.9200   78.3860 C.3    80  GLN80       0.0394
    108  CG        11.9310  -13.5290   79.0420 C.3    80  GLN80       0.0908
    109  CD        11.9940  -15.0360   78.8610 C.2    80  GLN80       0.2608
    110  OE1       11.0060  -15.7460   79.0790 O.2    80  GLN80      -0.2717
    111  NE2       13.1580  -15.5340   78.4620 N.am   80  GLN80      -0.0878
    112  N         13.1240  -17.6500   88.4250 N.3   106  HIS106     -0.1241
    113  CA        12.8340  -16.3520   87.8550 C.3   106  HIS106      0.1621
    114  C         13.9720  -15.3630   88.0730 C.2   106  HIS106      0.2264
    115  O         14.2740  -14.5530   87.2020 O.2   106  HIS106     -0.2867
    116  CB        11.5420  -15.7940   88.4190 C.3   106  HIS106      0.0745
    117  CG        10.3270  -16.3710   87.7860 C.ar  106  HIS106      0.0817
    118  ND1        9.1730  -16.6300   88.4880 N.ar  106  HIS106     -0.2268
    119  CD2       10.0870  -16.7480   86.5080 C.ar  106  HIS106      0.1154
    120  CE1        8.2710  -17.1420   87.6690 C.ar  106  HIS106      0.1986
    121  NE2        8.8010  -17.2220   86.4610 N.ar  106  HIS106     -0.2212
    122  N         15.6670  -13.7640   84.7320 N.3   110  ASN110     -0.1240
    123  CA        15.8970  -12.3440   84.5360 C.3   110  ASN110      0.1653
    124  C         17.3750  -12.0130   84.2950 C.2   110  ASN110      0.2266
    125  O         17.7340  -11.3600   83.3290 O.2   110  ASN110     -0.2867
    126  CB        15.3660  -11.5530   85.7420 C.3   110  ASN110      0.1155
    127  CG        13.8340  -11.4490   85.7800 C.2   110  ASN110      0.2627
    128  OD1       13.1560  -11.5860   84.7630 O.2   110  ASN110     -0.2716
    129  ND2       13.2910  -11.1800   86.9600 N.am  110  ASN110     -0.0877
@<TRIPOS>BOND
     1    72    70   ar
     2    70    71   ar
     3    70    69    1
     4    80    78   ar
     5    79    78   ar
     6    69    66    1
     7    78    77    1
     8    65    66    1
     9    65    58   am
    10    50    49    2
    11    60    57    1
    12    60    61    1
    13    66    67    1
    14    77    74    1
    15    57    58    1
    16    57    56    1
    17    73    67   am
    18    73    74    1
    19   106   105    2
    20    58    59    2
    21    67    68    2
    22    49    56   am
    23    49    48    1
    24    74    75    1
    25    61    62    1
    26    52    51    1
    27    52    53    1
    28   105   104    1
    29    62    63    1
    30    51    48    1
    31   107   104    1
    32   107   108    1
    33    48    47    1
    34   111   109   am
    35    55    53   ar
    36   104   103    1
    37   109   108    1
    38   109   110    2
    39    75    76    2
    40    75    81   am
    41    53    54   ar
    42    63    64    1
    43    47    44   am
    44    42    43    1
    45    84    83    2
    46    81    82    1
    47    99    98    2
    48   103    98   am
    49    44    43    1
    50    44    45    2
    51    91    90    2
    52    43    46    1
    53    98    97    1
    54    83    82    1
    55    83    88   am
    56    82    85    1
    57    90    89    1
    58    90    96   am
    59    27    30    1
    60    27    26    1
    61    27    28    1
    62    94    93   ar
    63    30    31    1
    64    89    88    1
    65    89    92    1
    66    86    85    1
    67    97    96    1
    68    97   100    1
    69    85    87    1
    70    33    31   ar
    71    29    28    2
    72    93    92    1
    73    93    95   ar
    74    31    32   ar
    75   102   100    1
    76   100   101    1
    77   125   124    2
    78    15    17    1
    79    15    14    1
    80    16    14    1
    81    11    14    1
    82    11    10    1
    83    11    12    1
    84    24    23   ar
    85   124   123    1
    86   123   122    1
    87   123   126    1
    88    18    12   am
    89    18    19    1
    90   128   127    2
    91    34    35    1
    92    12    13    2
    93    23    25   ar
    94    23    22    1
    95    41    39   ar
    96    19    22    1
    97    19    20    1
    98    38    39    1
    99    38    35    1
   100   126   127    1
   101   127   129   am
   102    39    40   ar
   103    35    36    1
   104   121   119   ar
   105   121   120   ar
   106   119   117   ar
   107    21    20    2
   108   115   114    2
   109    36    37    2
   110     1     2    1
   111   120   118   ar
   112   117   116    1
   113   117   118   ar
   114   113   114    1
   115   113   116    1
   116   113   112    1
   117     2     5    1
   118     2     3    1
   119     3     6   am
   120     3     4    2
   121     6     7    1
   122     7     8    1
   123     8     9    2
