@<TRIPOS>MOLECULE
tmp/3mesB01.pdb
 177 173 0 0 0
SMALL
GASTEIGER

@<TRIPOS>ATOM
      1  N         41.7070    0.3290   -1.5190 N.3    31  SER31      -0.1202
      2  CA        40.3220    0.5710   -1.8940 C.3    31  SER31       0.2020
      3  C         40.1050    2.0390   -2.2520 C.2    31  SER31       0.2619
      4  O         39.0390    2.4180   -2.7400 O.2    31  SER31      -0.2717
      5  CB        39.3830    0.1630   -0.7590 C.3    31  SER31       0.2103
      6  OG        38.0340    0.1860   -1.1920 O.3    31  SER31      -0.2182
      7  N         41.1240    2.8580   -2.0070 N.am   32  GLY32      -0.1942
      8  CA        41.0540    4.2880   -2.2900 C.3    32  GLY32       0.2014
      9  C         41.3180    4.6150   -3.7470 C.2    32  GLY32       0.2638
     10  O         41.5690    3.7240   -4.5570 O.2    32  GLY32      -0.2714
     11  N         41.2760    5.9010   -4.0780 N.am   33  LEU33      -0.1977
     12  CA        41.3680    6.3320   -5.4680 C.3    33  LEU33       0.1596
     13  C         42.4890    7.3470   -5.6910 C.2    33  LEU33       0.2287
     14  O         42.9350    7.5480   -6.8210 O.2    33  LEU33      -0.2864
     15  CB        40.0300    6.9290   -5.9100 C.3    33  LEU33       0.0297
     16  CG        39.5960    6.7130   -7.3600 C.3    33  LEU33       0.0022
     17  CD1       39.7000    5.2370   -7.7290 C.3    33  LEU33       0.0001
     18  CD2       38.1730    7.2200   -7.5640 C.3    33  LEU33       0.0001
     19  N         27.9120   12.2680   -1.5820 N.3   211  ASP211     -0.1239
     20  CA        28.4260   11.0050   -2.0970 C.3   211  ASP211      0.1674
     21  C         28.1230    9.8920   -1.1110 C.2   211  ASP211      0.2266
     22  O         28.9130    8.9590   -0.9480 O.2   211  ASP211     -0.2867
     23  CB        29.9390   11.0980   -2.3230 C.3   211  ASP211      0.1410
     24  CG        30.5190    9.8410   -2.9550 C.2   211  ASP211      0.3668
     25  OD1       29.8070    9.1750   -3.7350 O.co2 211  ASP211     -0.2456
     26  OD2       31.6970    9.5260   -2.6780 O.co2 211  ASP211     -0.2456
     27  N         27.1300    6.9530   -0.5090 N.3   213  GLN213     -0.1245
     28  CA        26.8630    5.6220   -1.0500 C.3   213  GLN213      0.1566
     29  C         27.1620    4.5500    0.0030 C.2   213  GLN213      0.2260
     30  O         27.7650    4.8430    1.0350 O.2   213  GLN213     -0.2867
     31  CB        27.6560    5.4090   -2.3490 C.3   213  GLN213      0.0367
     32  CG        28.1800    4.0030   -2.5800 C.3   213  GLN213      0.0905
     33  CD        29.6950    3.9320   -2.5100 C.2   213  GLN213      0.2608
     34  OE1       30.3750    4.9560   -2.5180 O.2   213  GLN213     -0.2717
     35  NE2       30.2300    2.7210   -2.4550 N.am  213  GLN213     -0.0878
     36  N         29.1960    2.1050    0.4530 N.3   215  ASN215     -0.1240
     37  CA        30.5760    1.8810    0.8760 C.3   215  ASN215      0.1653
     38  C         31.1160    3.0040    1.7570 C.2   215  ASN215      0.2266
     39  O         32.1910    2.8810    2.3450 O.2   215  ASN215     -0.2867
     40  CB        31.4810    1.6510   -0.3330 C.3   215  ASN215      0.1155
     41  CG        31.2060    0.3270   -1.0150 C.2   215  ASN215      0.2627
     42  OD1       31.3000   -0.7310   -0.3950 O.2   215  ASN215     -0.2716
     43  ND2       30.8600    0.3780   -2.2980 N.am  215  ASN215     -0.0877
     44  N         33.5450   15.3010   -1.2530 N.3   231  TYR231     -0.1241
     45  CA        32.6380   16.0420   -2.1330 C.3   231  TYR231      0.1605
     46  C         31.6220   16.8580   -1.3360 C.2   231  TYR231      0.2264
     47  O         30.6510   17.3710   -1.8920 O.2   231  TYR231     -0.2867
     48  CB        31.9050   15.0930   -3.0860 C.3   231  TYR231      0.0534
     49  CG        32.8170   14.2500   -3.9500 C.ar  231  TYR231     -0.0201
     50  CD1       33.4170   14.7810   -5.0840 C.ar  231  TYR231     -0.0009
     51  CD2       33.0720   12.9230   -3.6350 C.ar  231  TYR231     -0.0009
     52  CE1       34.2530   14.0160   -5.8780 C.ar  231  TYR231      0.0417
     53  CE2       33.9060   12.1480   -4.4230 C.ar  231  TYR231      0.0417
     54  CZ        34.4920   12.7010   -5.5450 C.ar  231  TYR231      0.1957
     55  OH        35.3190   11.9330   -6.3320 O.3   231  TYR231     -0.2866
     56  N         21.8750    5.4170   -5.2910 N.3   247  GLU247     -0.1245
     57  CA        22.8830    4.3940   -5.0280 C.3   247  GLU247      0.1567
     58  C         22.2350    3.0420   -4.7620 C.2   247  GLU247      0.2260
     59  O         22.9080    2.0110   -4.7500 O.2   247  GLU247     -0.2867
     60  CB        23.7800    4.8020   -3.8590 C.3   247  GLU247      0.0388
     61  CG        24.7680    5.9020   -4.2000 C.3   247  GLU247      0.1160
     62  CD        25.8120    5.4510   -5.2040 C.2   247  GLU247      0.3649
     63  OE1       25.8840    4.2340   -5.4810 O.co2 247  GLU247     -0.2457
     64  OE2       26.5600    6.3110   -5.7140 O.co2 247  GLU247     -0.2457
     65  N         28.9020   -1.6380   -6.4550 N.3   252  TYR252     -0.1227
     66  CA        30.3000   -1.5660   -6.8720 C.3   252  TYR252      0.1736
     67  C         31.1230   -2.7190   -6.3070 C.2   252  TYR252      0.2596
     68  O         32.3470   -2.6350   -6.2240 O.2   252  TYR252     -0.2718
     69  CB        30.9180   -0.2240   -6.4620 C.3   252  TYR252      0.0548
     70  CG        30.0190    0.9610   -6.7390 C.ar  252  TYR252     -0.0200
     71  CD1       29.7410    1.3570   -8.0400 C.ar  252  TYR252     -0.0009
     72  CD2       29.4420    1.6760   -5.6990 C.ar  252  TYR252     -0.0009
     73  CE1       28.9150    2.4340   -8.2970 C.ar  252  TYR252      0.0417
     74  CE2       28.6190    2.7520   -5.9450 C.ar  252  TYR252      0.0417
     75  CZ        28.3570    3.1280   -7.2450 C.ar  252  TYR252      0.1957
     76  OH        27.5320    4.2020   -7.4920 O.3   252  TYR252     -0.2866
     77  N         30.4460   -3.7950   -5.9190 N.am  253  CYS253     -0.1956
     78  CA        31.1260   -4.9860   -5.4180 C.3   253  CYS253      0.1843
     79  C         31.0760   -6.1190   -6.4350 C.2   253  CYS253      0.2626
     80  O         30.5650   -7.1990   -6.1500 O.2   253  CYS253     -0.2714
     81  CB        30.5130   -5.4450   -4.0960 C.3   253  CYS253      0.0997
     82  SG        30.9240   -4.4030   -2.6850 S.3   253  CYS253     -0.0797
     83  N         31.6050   -5.8570   -7.6250 N.am  254  SER254     -0.1950
     84  CA        31.6790   -6.8560   -8.6810 C.3   254  SER254      0.1924
     85  C         33.1320   -7.0110   -9.1130 C.2   254  SER254      0.2314
     86  O         33.8710   -6.0280   -9.1910 O.2   254  SER254     -0.2863
     87  CB        30.8120   -6.4380   -9.8680 C.3   254  SER254      0.2116
     88  OG        30.8020   -7.4330  -10.8770 O.3   254  SER254     -0.2180
     89  N         27.6360   12.2910  -11.6970 N.3   314  TRP314     -0.1241
     90  CA        28.5410   11.1550  -11.6250 C.3   314  TRP314      0.1605
     91  C         28.8760   10.6000  -13.0040 C.2   314  TRP314      0.2264
     92  O         29.8910    9.9220  -13.1800 O.2   314  TRP314     -0.2867
     93  CB        27.9770   10.0790  -10.7020 C.3   314  TRP314      0.0550
     94  CG        27.9010   10.5450   -9.2840 C.ar  314  TRP314      0.0003
     95  CD1       26.7760   10.6970   -8.5250 C.ar  314  TRP314      0.0946
     96  CD2       29.0010   10.9470   -8.4570 C.ar  314  TRP314      0.0152
     97  NE1       27.1110   11.1540   -7.2750 N.ar  314  TRP314     -0.2442
     98  CE2       28.4700   11.3160   -7.2070 C.ar  314  TRP314      0.0810
     99  CE3       30.3830   11.0240   -8.6520 C.ar  314  TRP314      0.0012
    100  CZ2       29.2720   11.7580   -6.1560 C.ar  314  TRP314      0.0191
    101  CZ3       31.1790   11.4630   -7.6070 C.ar  314  TRP314      0.0001
    102  CH2       30.6200   11.8240   -6.3750 C.ar  314  TRP314      0.0015
    103  N         31.5420   13.0420  -14.0960 N.3   317  TRP317     -0.1241
    104  CA        32.6310   12.7170  -13.1800 C.3   317  TRP317      0.1605
    105  C         33.3700   11.4650  -13.6350 C.2   317  TRP317      0.2264
    106  O         34.6020   11.4190  -13.6350 O.2   317  TRP317     -0.2867
    107  CB        32.0800   12.5110  -11.7670 C.3   317  TRP317      0.0550
    108  CG        33.0760   11.9710  -10.7840 C.ar  317  TRP317      0.0003
    109  CD1       33.9090   12.6930   -9.9790 C.ar  317  TRP317      0.0946
    110  CD2       33.3300   10.5910  -10.4870 C.ar  317  TRP317      0.0152
    111  NE1       34.6690   11.8500   -9.2040 N.ar  317  TRP317     -0.2442
    112  CE2       34.3320   10.5550   -9.4960 C.ar  317  TRP317      0.0810
    113  CE3       32.8080    9.3850  -10.9640 C.ar  317  TRP317      0.0012
    114  CZ2       34.8250    9.3600   -8.9760 C.ar  317  TRP317      0.0191
    115  CZ3       33.3000    8.1990  -10.4470 C.ar  317  TRP317      0.0001
    116  CH2       34.2970    8.1950   -9.4620 C.ar  317  TRP317      0.0015
    117  N         43.4260    0.4070  -10.9470 N.3   322  VAL322     -0.1231
    118  CA        42.3180   -0.1550  -10.1760 C.3   322  VAL322      0.1692
    119  C         41.1330   -0.5260  -11.0670 C.2   322  VAL322      0.2592
    120  O         40.7860    0.2010  -11.9980 O.2   322  VAL322     -0.2718
    121  CB        41.8780    0.7640   -9.0220 C.3   322  VAL322      0.0266
    122  CG1       40.3620    0.9290   -9.0040 C.3   322  VAL322      0.0020
    123  CG2       42.4090    0.2270   -7.6940 C.3   322  VAL322      0.0020
    124  N         40.5270   -1.6700  -10.7650 N.am  323  GLU323     -0.1966
    125  CA        39.5220   -2.2800  -11.6280 C.3   323  GLU323      0.1733
    126  C         38.1910   -1.5360  -11.6200 C.2   323  GLU323      0.2616
    127  O         37.3870   -1.6980  -10.7010 O.2   323  GLU323     -0.2715
    128  CB        39.2960   -3.7370  -11.2120 C.3   323  GLU323      0.0429
    129  CG        40.5770   -4.5440  -11.0270 C.3   323  GLU323      0.1163
    130  CD        40.9850   -5.2960  -12.2760 C.2   323  GLU323      0.3649
    131  OE1       40.2270   -6.1940  -12.6990 O.co2 323  GLU323     -0.2457
    132  OE2       42.0680   -5.0010  -12.8280 O.co2 323  GLU323     -0.2457
    133  N         37.9570   -0.7260  -12.6480 N.am  324  PHE324     -0.1974
    134  CA        36.6620   -0.0780  -12.8220 C.3   324  PHE324      0.1639
    135  C         36.4870    0.4790  -14.2300 C.2   324  PHE324      0.2290
    136  O         37.3530    1.1870  -14.7400 O.2   324  PHE324     -0.2864
    137  CB        36.4480    1.0280  -11.7840 C.3   324  PHE324      0.0560
    138  CG        35.0320    1.5310  -11.7240 C.ar  324  PHE324     -0.0200
    139  CD1       34.0560    0.8130  -11.0520 C.ar  324  PHE324     -0.0042
    140  CD2       34.6740    2.7160  -12.3460 C.ar  324  PHE324     -0.0042
    141  CE1       32.7500    1.2700  -10.9980 C.ar  324  PHE324     -0.0003
    142  CE2       33.3680    3.1760  -12.2950 C.ar  324  PHE324     -0.0003
    143  CZ        32.4060    2.4520  -11.6210 C.ar  324  PHE324     -0.0000
    144  N         35.1020    3.0440  -16.0310 N.3   326  PHE326     -0.1241
    145  CA        34.5410    4.3830  -15.8810 C.3   326  PHE326      0.1605
    146  C         33.6870    4.8200  -17.0690 C.2   326  PHE326      0.2264
    147  O         32.7070    5.5420  -16.8960 O.2   326  PHE326     -0.2867
    148  CB        35.6540    5.4020  -15.6280 C.3   326  PHE326      0.0534
    149  CG        36.3920    5.1840  -14.3370 C.ar  326  PHE326     -0.0203
    150  CD1       35.9180    5.7250  -13.1530 C.ar  326  PHE326     -0.0042
    151  CD2       37.5590    4.4340  -14.3060 C.ar  326  PHE326     -0.0042
    152  CE1       36.5930    5.5250  -11.9630 C.ar  326  PHE326     -0.0003
    153  CE2       38.2380    4.2300  -13.1200 C.ar  326  PHE326     -0.0003
    154  CZ        37.7540    4.7760  -11.9470 C.ar  326  PHE326     -0.0000
    155  N         30.3660    2.9300  -16.9760 N.3   329  TYR329     -0.1241
    156  CA        29.5830    3.4350  -15.8540 C.3   329  TYR329      0.1605
    157  C         28.9290    4.7670  -16.1950 C.2   329  TYR329      0.2264
    158  O         27.7960    5.0300  -15.7960 O.2   329  TYR329     -0.2867
    159  CB        30.4390    3.5800  -14.5940 C.3   329  TYR329      0.0534
    160  CG        29.6700    4.1390  -13.4190 C.ar  329  TYR329     -0.0201
    161  CD1       28.7110    3.3760  -12.7670 C.ar  329  TYR329     -0.0009
    162  CD2       29.8950    5.4320  -12.9670 C.ar  329  TYR329     -0.0009
    163  CE1       28.0000    3.8820  -11.6990 C.ar  329  TYR329      0.0417
    164  CE2       29.1900    5.9460  -11.8960 C.ar  329  TYR329      0.0417
    165  CZ        28.2440    5.1660  -11.2660 C.ar  329  TYR329      0.1957
    166  OH        27.5400    5.6700  -10.1980 O.3   329  TYR329     -0.2866
    167  N         24.8910    5.8710  -16.1660 N.3   333  ARG333     -0.1245
    168  CA        24.3000    7.0190  -15.4840 C.3   333  ARG333      0.1563
    169  C         23.5560    7.9130  -16.4740 C.2   333  ARG333      0.2260
    170  O         22.4610    8.3980  -16.1810 O.2   333  ARG333     -0.2867
    171  CB        25.3580    7.8260  -14.7270 C.3   333  ARG333      0.0307
    172  CG        26.1260    7.0390  -13.6740 C.3   333  ARG333      0.0489
    173  CD        25.2020    6.2530  -12.7480 C.3   333  ARG333      0.2205
    174  NE        24.1930    7.0880  -12.0990 N.pl3 333  ARG333     -0.0865
    175  CZ        24.3290    7.6390  -10.8960 C.cat 333  ARG333      0.5346
    176  NH1       25.4430    7.4600  -10.1980 N.pl3 333  ARG333      0.1354
    177  NH2       23.3480    8.3770  -10.3920 N.pl3 333  ARG333      0.1354
@<TRIPOS>BOND
     1   146   147    2
     2   146   145    1
     3   155   156    1
     4   169   170    2
     5   169   168    1
     6   157   156    1
     7   157   158    2
     8   167   168    1
     9   144   145    1
    10   145   148    1
    11   156   159    1
    12   148   149    1
    13   168   171    1
    14   136   135    2
    15   171   172    1
    16   159   160    1
    17   149   151   ar
    18   149   150   ar
    19   151   153   ar
    20   135   134    1
    21   103   104    1
    22   172   173    1
    23   106   105    2
    24   105   104    1
    25   160   162   ar
    26   160   161   ar
    27    92    91    2
    28   104   107    1
    29   150   152   ar
    30   153   154   ar
    31    91    90    1
    32   162   164   ar
    33   132   130   ar
    34   134   133    1
    35   134   137    1
    36   161   163   ar
    37   173   174    1
    38   131   130   ar
    39   133   126   am
    40   140   142   ar
    41   140   138   ar
    42   142   143   ar
    43   130   129    1
    44   174   175    2
    45   120   119    2
    46   152   154   ar
    47   164   165   ar
    48   137   138    1
    49   107   108    1
    50   138   139   ar
    51   163   165   ar
    52    89    90    1
    53   125   126    1
    54   125   128    1
    55   125   124    1
    56    90    93    1
    57   143   141   ar
    58   126   127    2
    59   165   166    1
    60   128   129    1
    61   119   124   am
    62   119   118    1
    63   139   141   ar
    64   113   110   ar
    65   113   115   ar
    66   117   118    1
    67   175   177    1
    68   175   176    1
    69    88    87    1
    70   108   110   ar
    71   108   109   ar
    72    93    94    1
    73   110   112   ar
    74   115   116   ar
    75   118   121    1
    76   109   111   ar
    77    87    84    1
    78   112   111   ar
    79   112   114   ar
    80   116   114   ar
    81    94    95   ar
    82    94    96   ar
    83    86    85    2
    84    85    84    1
    85   121   122    1
    86   121   123    1
    87    84    83    1
    88    99    96   ar
    89    99   101   ar
    90    95    97   ar
    91    96    98   ar
    92    73    71   ar
    93    73    75   ar
    94    71    70   ar
    95    17    16    1
    96    83    79   am
    97   101   102   ar
    98    18    16    1
    99    76    75    1
   100    16    15    1
   101    97    98   ar
   102    75    74   ar
   103    98   100   ar
   104    66    69    1
   105    66    65    1
   106    66    67    1
   107    14    13    2
   108    70    69    1
   109    70    72   ar
   110    79    80    2
   111    79    78    1
   112   102   100   ar
   113    55    54    1
   114    67    68    2
   115    67    77   am
   116    74    72   ar
   117    77    78    1
   118    15    12    1
   119    52    54   ar
   120    52    50   ar
   121    64    62   ar
   122    13    12    1
   123    54    53   ar
   124    63    62   ar
   125    12    11    1
   126    78    81    1
   127    56    57    1
   128    62    61    1
   129    50    49   ar
   130    57    58    1
   131    57    60    1
   132    58    59    2
   133    10     9    2
   134    53    51   ar
   135    61    60    1
   136    81    82    1
   137    11     9   am
   138    49    51   ar
   139    49    48    1
   140     9     8    1
   141    25    24   ar
   142    48    45    1
   143    24    26   ar
   144    24    23    1
   145     4     3    2
   146    32    33    1
   147    32    31    1
   148    34    33    2
   149    33    35   am
   150    31    28    1
   151    23    20    1
   152    43    41   am
   153     8     7    1
   154     3     7   am
   155     3     2    1
   156    45    46    1
   157    45    44    1
   158    20    19    1
   159    20    21    1
   160     2     1    1
   161     2     5    1
   162    47    46    2
   163     6     5    1
   164    21    22    2
   165    28    27    1
   166    28    29    1
   167    41    42    2
   168    41    40    1
   169    40    37    1
   170    29    30    2
   171    36    37    1
   172    37    38    1
   173    38    39    2
