@<TRIPOS>MOLECULE
tmp/3mesB02.pdb
 137 134 0 0 0
SMALL
GASTEIGER

@<TRIPOS>ATOM
      1  N         41.7070    0.3290   -1.5190 N.3    31  SER31      -0.1202
      2  CA        40.3220    0.5710   -1.8940 C.3    31  SER31       0.2020
      3  C         40.1050    2.0390   -2.2520 C.2    31  SER31       0.2619
      4  O         39.0390    2.4180   -2.7400 O.2    31  SER31      -0.2717
      5  CB        39.3830    0.1630   -0.7590 C.3    31  SER31       0.2103
      6  OG        38.0340    0.1860   -1.1920 O.3    31  SER31      -0.2182
      7  N         41.1240    2.8580   -2.0070 N.am   32  GLY32      -0.1942
      8  CA        41.0540    4.2880   -2.2900 C.3    32  GLY32       0.2014
      9  C         41.3180    4.6150   -3.7470 C.2    32  GLY32       0.2639
     10  O         41.5690    3.7240   -4.5570 O.2    32  GLY32      -0.2714
     11  N         41.2760    5.9010   -4.0780 N.am   33  LEU33      -0.1963
     12  CA        41.3680    6.3320   -5.4680 C.3    33  LEU33       0.1728
     13  C         42.4890    7.3470   -5.6910 C.2    33  LEU33       0.2616
     14  O         42.9350    7.5480   -6.8210 O.2    33  LEU33      -0.2715
     15  CB        40.0300    6.9290   -5.9100 C.3    33  LEU33       0.0311
     16  CG        39.5960    6.7130   -7.3600 C.3    33  LEU33       0.0022
     17  CD1       39.7000    5.2370   -7.7290 C.3    33  LEU33       0.0001
     18  CD2       38.1730    7.2200   -7.5640 C.3    33  LEU33       0.0001
     19  N         42.9450    7.9790   -4.6120 N.am   34  THR34      -0.1951
     20  CA        43.9130    9.0680   -4.7150 C.3    34  THR34       0.1897
     21  C         45.0820    8.9340   -3.7450 C.2    34  THR34       0.2313
     22  O         46.2410    9.0620   -4.1350 O.2    34  THR34      -0.2863
     23  CB        43.2500   10.4320   -4.4430 C.3    34  THR34       0.1794
     24  OG1       42.2690   10.7020   -5.4480 O.3    34  THR34      -0.2208
     25  CG2       44.2920   11.5380   -4.4450 C.3    34  THR34       0.0378
     26  N         45.8570   14.5890   -6.7250 N.3    59  HIS59      -0.1241
     27  CA        44.4880   14.3400   -7.1670 C.3    59  HIS59       0.1621
     28  C         44.3130   14.6280   -8.6550 C.2    59  HIS59       0.2264
     29  O         44.9450   15.5350   -9.2030 O.2    59  HIS59      -0.2867
     30  CB        43.5020   15.1800   -6.3500 C.3    59  HIS59       0.0745
     31  CG        42.0950   14.6690   -6.3910 C.ar   59  HIS59       0.0817
     32  ND1       41.4600   14.1490   -5.2830 N.ar   59  HIS59      -0.2268
     33  CD2       41.2020   14.5930   -7.4070 C.ar   59  HIS59       0.1154
     34  CE1       40.2350   13.7780   -5.6130 C.ar   59  HIS59       0.1986
     35  NE2       40.0530   14.0360   -6.8970 N.ar   59  HIS59      -0.2212
     36  N         27.9120   12.2680   -1.5820 N.3   211  ASP211     -0.1239
     37  CA        28.4260   11.0050   -2.0970 C.3   211  ASP211      0.1674
     38  C         28.1230    9.8920   -1.1110 C.2   211  ASP211      0.2266
     39  O         28.9130    8.9590   -0.9480 O.2   211  ASP211     -0.2867
     40  CB        29.9390   11.0980   -2.3230 C.3   211  ASP211      0.1410
     41  CG        30.5190    9.8410   -2.9550 C.2   211  ASP211      0.3668
     42  OD1       29.8070    9.1750   -3.7350 O.co2 211  ASP211     -0.2456
     43  OD2       31.6970    9.5260   -2.6780 O.co2 211  ASP211     -0.2456
     44  N         27.1300    6.9530   -0.5090 N.3   213  GLN213     -0.1245
     45  CA        26.8630    5.6220   -1.0500 C.3   213  GLN213      0.1566
     46  C         27.1620    4.5500    0.0030 C.2   213  GLN213      0.2260
     47  O         27.7650    4.8430    1.0350 O.2   213  GLN213     -0.2867
     48  CB        27.6560    5.4090   -2.3490 C.3   213  GLN213      0.0367
     49  CG        28.1800    4.0030   -2.5800 C.3   213  GLN213      0.0905
     50  CD        29.6950    3.9320   -2.5100 C.2   213  GLN213      0.2608
     51  OE1       30.3750    4.9560   -2.5180 O.2   213  GLN213     -0.2717
     52  NE2       30.2300    2.7210   -2.4550 N.am  213  GLN213     -0.0878
     53  N         29.1960    2.1050    0.4530 N.3   215  ASN215     -0.1225
     54  CA        30.5760    1.8810    0.8760 C.3   215  ASN215      0.1785
     55  C         31.1160    3.0040    1.7570 C.2   215  ASN215      0.2597
     56  O         32.1910    2.8810    2.3450 O.2   215  ASN215     -0.2718
     57  CB        31.4810    1.6510   -0.3330 C.3   215  ASN215      0.1169
     58  CG        31.2060    0.3270   -1.0150 C.2   215  ASN215      0.2627
     59  OD1       31.3000   -0.7310   -0.3950 O.2   215  ASN215     -0.2716
     60  ND2       30.8600    0.3780   -2.2980 N.am  215  ASN215     -0.0877
     61  N         30.3610    4.0960    1.8500 N.am  216  ASN216     -0.1974
     62  CA        30.7380    5.2080    2.7170 C.3   216  ASN216      0.1688
     63  C         29.9080    5.2450    3.9960 C.2   216  ASN216      0.2292
     64  O         29.9240    6.2280    4.7430 O.2   216  ASN216     -0.2864
     65  CB        30.6490    6.5340    1.9640 C.3   216  ASN216      0.1181
     66  CG        31.8130    6.7360    1.0210 C.2   216  ASN216      0.2629
     67  OD1       32.8690    6.1300    1.1940 O.2   216  ASN216     -0.2716
     68  ND2       31.6290    7.5850    0.0160 N.am  216  ASN216     -0.0877
     69  N         34.2200    9.5650    3.9510 N.3   228  ASP228     -0.1239
     70  CA        34.4870   10.0960    2.6190 C.3   228  ASP228      0.1674
     71  C         33.6960   11.3750    2.3550 C.2   228  ASP228      0.2266
     72  O         32.6670   11.3530    1.6740 O.2   228  ASP228     -0.2867
     73  CB        34.1770    9.0460    1.5500 C.3   228  ASP228      0.1410
     74  CG        34.7590    9.4050    0.1950 C.2   228  ASP228      0.3668
     75  OD1       34.3650    8.7790   -0.8120 O.co2 228  ASP228     -0.2456
     76  OD2       35.6140   10.3130    0.1370 O.co2 228  ASP228     -0.2456
     77  N         34.9160   14.0400    0.7750 N.3   230  GLU230     -0.1231
     78  CA        35.6950   14.8020   -0.1980 C.3   230  GLU230      0.1699
     79  C         34.8290   15.6340   -1.1500 C.2   230  GLU230      0.2592
     80  O         35.3200   16.5650   -1.7820 O.2   230  GLU230     -0.2718
     81  CB        36.6370   13.8910   -0.9930 C.3   230  GLU230      0.0402
     82  CG        36.2400   13.6960   -2.4520 C.3   230  GLU230      0.1161
     83  CD        37.3840   13.1690   -3.3060 C.2   230  GLU230      0.3649
     84  OE1       37.5680   13.6820   -4.4320 O.co2 230  GLU230     -0.2457
     85  OE2       38.1020   12.2490   -2.8520 O.co2 230  GLU230     -0.2457
     86  N         33.5450   15.3010   -1.2530 N.am  231  TYR231     -0.1976
     87  CA        32.6380   16.0420   -2.1330 C.3   231  TYR231      0.1639
     88  C         31.6220   16.8580   -1.3360 C.2   231  TYR231      0.2290
     89  O         30.6510   17.3710   -1.8920 O.2   231  TYR231     -0.2864
     90  CB        31.9050   15.0930   -3.0860 C.3   231  TYR231      0.0560
     91  CG        32.8170   14.2500   -3.9500 C.ar  231  TYR231     -0.0198
     92  CD1       33.4170   14.7810   -5.0840 C.ar  231  TYR231     -0.0009
     93  CD2       33.0720   12.9230   -3.6350 C.ar  231  TYR231     -0.0009
     94  CE1       34.2530   14.0160   -5.8780 C.ar  231  TYR231      0.0417
     95  CE2       33.9060   12.1480   -4.4230 C.ar  231  TYR231      0.0417
     96  CZ        34.4920   12.7010   -5.5450 C.ar  231  TYR231      0.1957
     97  OH        35.3190   11.9330   -6.3320 O.3   231  TYR231     -0.2866
     98  N         28.9020   -1.6380   -6.4550 N.3   252  TYR252     -0.1241
     99  CA        30.3000   -1.5660   -6.8720 C.3   252  TYR252      0.1605
    100  C         31.1230   -2.7190   -6.3070 C.2   252  TYR252      0.2264
    101  O         32.3470   -2.6350   -6.2240 O.2   252  TYR252     -0.2867
    102  CB        30.9180   -0.2240   -6.4620 C.3   252  TYR252      0.0534
    103  CG        30.0190    0.9610   -6.7390 C.ar  252  TYR252     -0.0201
    104  CD1       29.7410    1.3570   -8.0400 C.ar  252  TYR252     -0.0009
    105  CD2       29.4420    1.6760   -5.6990 C.ar  252  TYR252     -0.0009
    106  CE1       28.9150    2.4340   -8.2970 C.ar  252  TYR252      0.0417
    107  CE2       28.6190    2.7520   -5.9450 C.ar  252  TYR252      0.0417
    108  CZ        28.3570    3.1280   -7.2450 C.ar  252  TYR252      0.1957
    109  OH        27.5320    4.2020   -7.4920 O.3   252  TYR252     -0.2866
    110  N         27.6360   12.2910  -11.6970 N.3   314  TRP314     -0.1241
    111  CA        28.5410   11.1550  -11.6250 C.3   314  TRP314      0.1605
    112  C         28.8760   10.6000  -13.0040 C.2   314  TRP314      0.2264
    113  O         29.8910    9.9220  -13.1800 O.2   314  TRP314     -0.2867
    114  CB        27.9770   10.0790  -10.7020 C.3   314  TRP314      0.0550
    115  CG        27.9010   10.5450   -9.2840 C.ar  314  TRP314      0.0003
    116  CD1       26.7760   10.6970   -8.5250 C.ar  314  TRP314      0.0946
    117  CD2       29.0010   10.9470   -8.4570 C.ar  314  TRP314      0.0152
    118  NE1       27.1110   11.1540   -7.2750 N.ar  314  TRP314     -0.2442
    119  CE2       28.4700   11.3160   -7.2070 C.ar  314  TRP314      0.0810
    120  CE3       30.3830   11.0240   -8.6520 C.ar  314  TRP314      0.0012
    121  CZ2       29.2720   11.7580   -6.1560 C.ar  314  TRP314      0.0191
    122  CZ3       31.1790   11.4630   -7.6070 C.ar  314  TRP314      0.0001
    123  CH2       30.6200   11.8240   -6.3750 C.ar  314  TRP314      0.0015
    124  N         31.5420   13.0420  -14.0960 N.3   317  TRP317     -0.1241
    125  CA        32.6310   12.7170  -13.1800 C.3   317  TRP317      0.1605
    126  C         33.3700   11.4650  -13.6350 C.2   317  TRP317      0.2264
    127  O         34.6020   11.4190  -13.6350 O.2   317  TRP317     -0.2867
    128  CB        32.0800   12.5110  -11.7670 C.3   317  TRP317      0.0550
    129  CG        33.0760   11.9710  -10.7840 C.ar  317  TRP317      0.0003
    130  CD1       33.9090   12.6930   -9.9790 C.ar  317  TRP317      0.0946
    131  CD2       33.3300   10.5910  -10.4870 C.ar  317  TRP317      0.0152
    132  NE1       34.6690   11.8500   -9.2040 N.ar  317  TRP317     -0.2442
    133  CE2       34.3320   10.5550   -9.4960 C.ar  317  TRP317      0.0810
    134  CE3       32.8080    9.3850  -10.9640 C.ar  317  TRP317      0.0012
    135  CZ2       34.8250    9.3600   -8.9760 C.ar  317  TRP317      0.0191
    136  CZ3       33.3000    8.1990  -10.4470 C.ar  317  TRP317      0.0001
    137  CH2       34.2970    8.1950   -9.4620 C.ar  317  TRP317      0.0015
@<TRIPOS>BOND
     1   124   125    1
     2   127   126    2
     3   126   125    1
     4   113   112    2
     5   125   128    1
     6   112   111    1
     7   128   129    1
     8   110   111    1
     9   111   114    1
    10   134   131   ar
    11   134   136   ar
    12   129   131   ar
    13   129   130   ar
    14   114   115    1
    15   131   133   ar
    16   136   137   ar
    17   130   132   ar
    18   133   132   ar
    19   133   135   ar
    20   137   135   ar
    21   115   116   ar
    22   115   117   ar
    23    29    28    2
    24    28    27    1
    25   120   117   ar
    26   120   122   ar
    27   116   118   ar
    28   117   119   ar
    29   106   104   ar
    30   106   108   ar
    31   104   103   ar
    32    17    16    1
    33   122   123   ar
    34    18    16    1
    35   109   108    1
    36    33    35   ar
    37    33    31   ar
    38    16    15    1
    39   118   119   ar
    40   108   107   ar
    41   119   121   ar
    42    27    26    1
    43    27    30    1
    44    35    34   ar
    45    99   102    1
    46    99    98    1
    47    99   100    1
    48    14    13    2
    49   103   102    1
    50   103   105   ar
    51    31    30    1
    52    31    32   ar
    53   123   121   ar
    54    97    96    1
    55   100   101    2
    56   107   105   ar
    57    15    12    1
    58    94    96   ar
    59    94    92   ar
    60    13    12    1
    61    13    19   am
    62    34    32   ar
    63    96    95   ar
    64    12    11    1
    65    24    23    1
    66    92    91   ar
    67    20    19    1
    68    20    23    1
    69    20    21    1
    70    10     9    2
    71    25    23    1
    72    84    83   ar
    73    95    93   ar
    74    22    21    2
    75    11     9   am
    76    91    93   ar
    77    91    90    1
    78     9     8    1
    79    42    41   ar
    80    83    85   ar
    81    83    82    1
    82    90    87    1
    83    41    43   ar
    84    41    40    1
    85     4     3    2
    86    49    50    1
    87    49    48    1
    88    51    50    2
    89    50    52   am
    90    82    81    1
    91    48    45    1
    92    40    37    1
    93    60    58   am
    94     8     7    1
    95     3     7   am
    96     3     2    1
    97    87    88    1
    98    87    86    1
    99    37    36    1
   100    37    38    1
   101     2     1    1
   102     2     5    1
   103    89    88    2
   104    80    79    2
   105    86    79   am
   106     6     5    1
   107    79    78    1
   108    38    39    2
   109    45    44    1
   110    45    46    1
   111    58    59    2
   112    58    57    1
   113    81    78    1
   114    75    74   ar
   115    57    54    1
   116    78    77    1
   117    46    47    2
   118    68    66   am
   119    76    74   ar
   120    74    73    1
   121    53    54    1
   122    54    55    1
   123    66    67    2
   124    66    65    1
   125    73    70    1
   126    72    71    2
   127    55    61   am
   128    55    56    2
   129    61    62    1
   130    65    62    1
   131    71    70    1
   132    70    69    1
   133    62    63    1
   134    63    64    2
