@<TRIPOS>MOLECULE
tmp/3mesB00.pdb
 177 167 0 0 0
SMALL
GASTEIGER

@<TRIPOS>ATOM
      1  N         45.9160   -0.4750    2.4550 N.3    29  ILE29      -0.1245
      2  CA        44.6880   -0.8270    1.7560 C.3    29  ILE29       0.1561
      3  C         44.6210   -0.0320    0.4620 C.2    29  ILE29       0.2260
      4  O         45.0660    1.1120    0.4090 O.2    29  ILE29      -0.2867
      5  CB        43.4390   -0.5340    2.6070 C.3    29  ILE29       0.0252
      6  CG1       43.3560    0.9550    2.9440 C.3    29  ILE29       0.0019
      7  CG2       43.4560   -1.3620    3.8790 C.3    29  ILE29       0.0019
      8  CD1       42.1450    1.3240    3.7720 C.3    29  ILE29       0.0001
      9  N         41.7070    0.3290   -1.5190 N.3    31  SER31      -0.1202
     10  CA        40.3220    0.5710   -1.8940 C.3    31  SER31       0.2020
     11  C         40.1050    2.0390   -2.2520 C.2    31  SER31       0.2619
     12  O         39.0390    2.4180   -2.7400 O.2    31  SER31      -0.2717
     13  CB        39.3830    0.1630   -0.7590 C.3    31  SER31       0.2103
     14  OG        38.0340    0.1860   -1.1920 O.3    31  SER31      -0.2182
     15  N         41.1240    2.8580   -2.0070 N.am   32  GLY32      -0.1942
     16  CA        41.0540    4.2880   -2.2900 C.3    32  GLY32       0.2014
     17  C         41.3180    4.6150   -3.7470 C.2    32  GLY32       0.2639
     18  O         41.5690    3.7240   -4.5570 O.2    32  GLY32      -0.2714
     19  N         41.2760    5.9010   -4.0780 N.am   33  LEU33      -0.1963
     20  CA        41.3680    6.3320   -5.4680 C.3    33  LEU33       0.1728
     21  C         42.4890    7.3470   -5.6910 C.2    33  LEU33       0.2617
     22  O         42.9350    7.5480   -6.8210 O.2    33  LEU33      -0.2715
     23  CB        40.0300    6.9290   -5.9100 C.3    33  LEU33       0.0311
     24  CG        39.5960    6.7130   -7.3600 C.3    33  LEU33       0.0022
     25  CD1       39.7000    5.2370   -7.7290 C.3    33  LEU33       0.0001
     26  CD2       38.1730    7.2200   -7.5640 C.3    33  LEU33       0.0001
     27  N         42.9450    7.9790   -4.6120 N.am   34  THR34      -0.1937
     28  CA        43.9130    9.0680   -4.7150 C.3    34  THR34       0.2028
     29  C         45.0820    8.9340   -3.7450 C.2    34  THR34       0.2642
     30  O         46.2410    9.0620   -4.1350 O.2    34  THR34      -0.2714
     31  CB        43.2500   10.4320   -4.4430 C.3    34  THR34       0.1808
     32  OG1       42.2690   10.7020   -5.4480 O.3    34  THR34      -0.2208
     33  CG2       44.2920   11.5380   -4.4450 C.3    34  THR34       0.0379
     34  N         44.7680    8.6930   -2.4780 N.am   35  ASN35      -0.1971
     35  CA        45.7700    8.7360   -1.4210 C.3    35  ASN35       0.1688
     36  C         46.2850    7.3630   -1.0150 C.2    35  ASN35       0.2292
     37  O         45.6710    6.3420   -1.3220 O.2    35  ASN35      -0.2864
     38  CB        45.2070    9.4620   -0.1970 C.3    35  ASN35       0.1181
     39  CG        44.6950   10.8490   -0.5300 C.2    35  ASN35       0.2629
     40  OD1       45.4480   11.7090   -0.9860 O.2    35  ASN35      -0.2716
     41  ND2       43.4060   11.0730   -0.3020 N.am   35  ASN35      -0.0877
     42  N         46.6130    4.8380    1.7680 N.3    37  LEU37      -0.1245
     43  CA        45.9650    4.5630    3.0410 C.3    37  LEU37       0.1561
     44  C         46.5650    3.3400    3.7170 C.2    37  LEU37       0.2260
     45  O         46.8790    2.3430    3.0670 O.2    37  LEU37      -0.2867
     46  CB        44.4580    4.3760    2.8490 C.3    37  LEU37       0.0270
     47  CG        43.7080    5.5190    2.1570 C.3    37  LEU37       0.0019
     48  CD1       42.2060    5.2520    2.1520 C.3    37  LEU37       0.0001
     49  CD2       44.0130    6.8560    2.8180 C.3    37  LEU37       0.0001
     50  N         43.9550    5.1200   11.1150 N.3    52  LEU52      -0.1245
     51  CA        43.9990    5.2160    9.6630 C.3    52  LEU52       0.1561
     52  C         45.0740    6.2220    9.2690 C.2    52  LEU52       0.2260
     53  O         44.9590    7.4100    9.5630 O.2    52  LEU52      -0.2867
     54  CB        42.6300    5.6460    9.1240 C.3    52  LEU52       0.0270
     55  CG        42.3800    5.6390    7.6140 C.3    52  LEU52       0.0019
     56  CD1       43.1100    6.7840    6.9260 C.3    52  LEU52       0.0001
     57  CD2       42.7670    4.2970    7.0090 C.3    52  LEU52       0.0001
     58  N         46.8250    8.3460    6.5940 N.3    54  ARG54      -0.1245
     59  CA        46.5360    8.8850    5.2710 C.3    54  ARG54       0.1563
     60  C         47.6700    9.7570    4.7420 C.2    54  ARG54       0.2260
     61  O         48.0370   10.7560    5.3580 O.2    54  ARG54      -0.2867
     62  CB        45.2300    9.6860    5.3010 C.3    54  ARG54       0.0307
     63  CG        44.8830   10.3640    3.9900 C.3    54  ARG54       0.0489
     64  CD        43.6190   11.2060    4.1190 C.3    54  ARG54       0.2205
     65  NE        42.4330   10.3930    4.3750 N.pl3  54  ARG54      -0.0865
     66  CZ        41.6910    9.8330    3.4230 C.cat  54  ARG54       0.5346
     67  NH1       42.0160    9.9930    2.1470 N.pl3  54  ARG54       0.1354
     68  NH2       40.6250    9.1130    3.7450 N.pl3  54  ARG54       0.1354
     69  N         38.9920   21.1490    0.4880 N.3    67  GLU67      -0.1245
     70  CA        38.5810   19.8310    0.9620 C.3    67  GLU67       0.1567
     71  C         39.1520   19.5210    2.3430 C.2    67  GLU67       0.2260
     72  O         38.4630   18.9710    3.1980 O.2    67  GLU67      -0.2867
     73  CB        39.0030   18.7380   -0.0200 C.3    67  GLU67       0.0388
     74  CG        38.6700   17.3330    0.4670 C.3    67  GLU67       0.1160
     75  CD        39.4140   16.2480   -0.2910 C.2    67  GLU67       0.3649
     76  OE1       40.1970   16.5830   -1.2070 O.co2  67  GLU67      -0.2457
     77  OE2       39.2140   15.0570    0.0330 O.co2  67  GLU67      -0.2457
     78  N         35.6400   11.2390   11.0310 N.3    81  PRO81      -0.2116
     79  CA        36.5770   10.5340   11.9010 C.3    81  PRO81       0.1372
     80  C         37.5200   11.5120   12.5920 C.2    81  PRO81       0.2244
     81  O         37.9750   12.4730   11.9740 O.2    81  PRO81      -0.2868
     82  CB        37.3540    9.6410   10.9300 C.3    81  PRO81       0.0268
     83  CG        36.4240    9.4350    9.7820 C.3    81  PRO81       0.0207
     84  CD        35.6520   10.7160    9.6540 C.3    81  PRO81       0.0892
     85  N         44.1610    9.4580   11.4020 N.3    93  GLU93      -0.1231
     86  CA        42.7430    9.4830   11.7330 C.3    93  GLU93       0.1699
     87  C         42.3490    8.3360   12.6500 C.2    93  GLU93       0.2592
     88  O         43.0110    7.2980   12.6950 O.2    93  GLU93      -0.2718
     89  CB        41.8900    9.3880   10.4680 C.3    93  GLU93       0.0402
     90  CG        42.1480   10.4530    9.4310 C.3    93  GLU93       0.1161
     91  CD        41.2810   10.2590    8.2040 C.2    93  GLU93       0.3649
     92  OE1       40.3340    9.4460    8.2750 O.co2  93  GLU93      -0.2457
     93  OE2       41.5460   10.9100    7.1730 O.co2  93  GLU93      -0.2457
     94  N         41.2500    8.5330   13.3680 N.am   94  GLU94      -0.1966
     95  CA        40.6050    7.4580   14.0960 C.3    94  GLU94       0.1733
     96  C         40.1380    6.4080   13.0950 C.2    94  GLU94       0.2616
     97  O         39.5210    6.7410   12.0790 O.2    94  GLU94      -0.2715
     98  CB        39.4070    8.0080   14.8680 C.3    94  GLU94       0.0429
     99  CG        38.3900    6.9670   15.2770 C.3    94  GLU94       0.1163
    100  CD        37.1360    7.5850   15.8680 C.2    94  GLU94       0.3649
    101  OE1       36.8820    8.7840   15.6190 O.co2  94  GLU94      -0.2457
    102  OE2       36.4020    6.8680   16.5790 O.co2  94  GLU94      -0.2457
    103  N         40.4400    5.1430   13.3650 N.am   95  PHE95      -0.1960
    104  CA        39.9740    4.0770   12.4910 C.3    95  PHE95       0.1771
    105  C         38.5490    3.6670   12.8460 C.2    95  PHE95       0.2619
    106  O         38.3040    3.0950   13.9070 O.2    95  PHE95      -0.2715
    107  CB        40.9020    2.8610   12.5430 C.3    95  PHE95       0.0574
    108  CG        40.4740    1.7420   11.6340 C.ar   95  PHE95      -0.0200
    109  CD1       40.8290    1.7450   10.2950 C.ar   95  PHE95      -0.0042
    110  CD2       39.7030    0.6960   12.1140 C.ar   95  PHE95      -0.0042
    111  CE1       40.4320    0.7220    9.4530 C.ar   95  PHE95      -0.0003
    112  CE2       39.3030   -0.3310   11.2780 C.ar   95  PHE95      -0.0003
    113  CZ        39.6680   -0.3170    9.9440 C.ar   95  PHE95      -0.0000
    114  N         37.6150    3.9720   11.9520 N.am   96  ILE96      -0.1977
    115  CA        36.2280    3.5570   12.1110 C.3    96  ILE96       0.1596
    116  C         36.1000    2.0810   11.7590 C.2    96  ILE96       0.2287
    117  O         36.0510    1.7180   10.5850 O.2    96  ILE96      -0.2864
    118  CB        35.2990    4.3680   11.1910 C.3    96  ILE96       0.0276
    119  CG1       35.5030    5.8710   11.4160 C.3    96  ILE96       0.0022
    120  CG2       33.8440    3.9560   11.3940 C.3    96  ILE96       0.0022
    121  CD1       35.4840    6.2930   12.8760 C.3    96  ILE96       0.0001
    122  N         31.1460   -1.9670    5.7390 N.3   100  PRO100     -0.2116
    123  CA        30.4020   -1.0720    4.8630 C.3   100  PRO100      0.1372
    124  C         29.0850   -1.7100    4.4480 C.2   100  PRO100      0.2244
    125  O         29.0580   -2.8860    4.0990 O.2   100  PRO100     -0.2868
    126  CB        31.3220   -0.9280    3.6480 C.3   100  PRO100      0.0268
    127  CG        32.1260   -2.1820    3.6360 C.3   100  PRO100      0.0207
    128  CD        32.3280   -2.5440    5.0760 C.3   100  PRO100      0.0892
    129  N         29.1960    2.1050    0.4530 N.3   215  ASN215     -0.1225
    130  CA        30.5760    1.8810    0.8760 C.3   215  ASN215      0.1785
    131  C         31.1160    3.0040    1.7570 C.2   215  ASN215      0.2597
    132  O         32.1910    2.8810    2.3450 O.2   215  ASN215     -0.2718
    133  CB        31.4810    1.6510   -0.3330 C.3   215  ASN215      0.1169
    134  CG        31.2060    0.3270   -1.0150 C.2   215  ASN215      0.2627
    135  OD1       31.3000   -0.7310   -0.3950 O.2   215  ASN215     -0.2716
    136  ND2       30.8600    0.3780   -2.2980 N.am  215  ASN215     -0.0877
    137  N         30.3610    4.0960    1.8500 N.am  216  ASN216     -0.1974
    138  CA        30.7380    5.2080    2.7170 C.3   216  ASN216      0.1688
    139  C         29.9080    5.2450    3.9960 C.2   216  ASN216      0.2292
    140  O         29.9240    6.2280    4.7430 O.2   216  ASN216     -0.2864
    141  CB        30.6490    6.5340    1.9640 C.3   216  ASN216      0.1181
    142  CG        31.8130    6.7360    1.0210 C.2   216  ASN216      0.2629
    143  OD1       32.8690    6.1300    1.1940 O.2   216  ASN216     -0.2716
    144  ND2       31.6290    7.5850    0.0160 N.am  216  ASN216     -0.0877
    145  N         29.6630    2.9210    7.2570 N.3   218  LEU218     -0.1245
    146  CA        30.2010    1.7980    8.0160 C.3   218  LEU218      0.1561
    147  C         29.2820    1.4200    9.1730 C.2   218  LEU218      0.2260
    148  O         28.8890    2.2680    9.9730 O.2   218  LEU218     -0.2867
    149  CB        31.5990    2.1260    8.5440 C.3   218  LEU218      0.0270
    150  CG        32.6110    2.6110    7.5070 C.3   218  LEU218      0.0019
    151  CD1       33.9940    2.7750    8.1320 C.3   218  LEU218      0.0001
    152  CD2       32.6610    1.6530    6.3280 C.3   218  LEU218      0.0001
    153  N         31.5080    8.2440    6.0390 N.3   227  ILE227     -0.1231
    154  CA        32.8930    8.5870    5.7270 C.3   227  ILE227      0.1692
    155  C         33.0050    9.1790    4.3260 C.2   227  ILE227      0.2592
    156  O         32.0140    9.2870    3.6060 O.2   227  ILE227     -0.2718
    157  CB        33.8320    7.3670    5.8470 C.3   227  ILE227      0.0266
    158  CG1       33.3390    6.2210    4.9610 C.3   227  ILE227      0.0019
    159  CG2       33.9410    6.9150    7.2940 C.3   227  ILE227      0.0020
    160  CD1       34.3600    5.1170    4.7630 C.3   227  ILE227      0.0001
    161  N         34.2200    9.5650    3.9510 N.am  228  ASP228     -0.1974
    162  CA        34.4870   10.0960    2.6190 C.3   228  ASP228      0.1709
    163  C         33.6960   11.3750    2.3550 C.2   228  ASP228      0.2293
    164  O         32.6670   11.3530    1.6740 O.2   228  ASP228     -0.2864
    165  CB        34.1770    9.0460    1.5500 C.3   228  ASP228      0.1436
    166  CG        34.7590    9.4050    0.1950 C.2   228  ASP228      0.3671
    167  OD1       34.3650    8.7790   -0.8120 O.co2 228  ASP228     -0.2456
    168  OD2       35.6140   10.3130    0.1370 O.co2 228  ASP228     -0.2456
    169  N         34.9160   14.0400    0.7750 N.3   230  GLU230     -0.1245
    170  CA        35.6950   14.8020   -0.1980 C.3   230  GLU230      0.1567
    171  C         34.8290   15.6340   -1.1500 C.2   230  GLU230      0.2260
    172  O         35.3200   16.5650   -1.7820 O.2   230  GLU230     -0.2867
    173  CB        36.6370   13.8910   -0.9930 C.3   230  GLU230      0.0388
    174  CG        36.2400   13.6960   -2.4520 C.3   230  GLU230      0.1160
    175  CD        37.3840   13.1690   -3.3060 C.2   230  GLU230      0.3649
    176  OE1       37.5680   13.6820   -4.4320 O.co2 230  GLU230     -0.2457
    177  OE2       38.1020   12.2490   -2.8520 O.co2 230  GLU230     -0.2457
@<TRIPOS>BOND
     1    25    24    1
     2    26    24    1
     3    24    23    1
     4    22    21    2
     5    23    20    1
     6    21    20    1
     7    21    27   am
     8    20    19    1
     9    32    31    1
    10    28    27    1
    11    28    31    1
    12    28    29    1
    13    18    17    2
    14    33    31    1
    15   176   175   ar
    16    30    29    2
    17    19    17   am
    18    17    16    1
    19    29    34   am
    20   175   177   ar
    21   175   174    1
    22    12    11    2
    23    34    35    1
    24   174   173    1
    25   136   134   am
    26    16    15    1
    27    11    15   am
    28    11    10    1
    29    10     9    1
    30    10    13    1
    31   172   171    2
    32    35    36    1
    33    35    38    1
    34    37    36    2
    35    76    75   ar
    36    14    13    1
    37   171   170    1
    38   134   135    2
    39   134   133    1
    40   173   170    1
    41    40    39    2
    42   167   166   ar
    43    39    41   am
    44    39    38    1
    45   133   130    1
    46    75    77   ar
    47    75    74    1
    48   170   169    1
    49    73    74    1
    50    73    70    1
    51   144   142   am
    52   168   166   ar
    53   166   165    1
    54     4     3    2
    55   129   130    1
    56     3     2    1
    57    69    70    1
    58   130   131    1
    59    70    71    1
    60   142   143    2
    61   142   141    1
    62   165   162    1
    63   164   163    2
    64     2     1    1
    65     2     5    1
    66   131   137   am
    67   131   132    2
    68    42    43    1
    69   137   138    1
    70   141   138    1
    71    67    66    1
    72    48    47    1
    73    47    49    1
    74    47    46    1
    75    71    72    2
    76   163   162    1
    77     5     6    1
    78     5     7    1
    79   162   161    1
    80   138   139    1
    81    46    43    1
    82     6     8    1
    83    43    44    1
    84    45    44    2
    85    66    68    1
    86    66    65    2
    87   156   155    2
    88   127   126    1
    89   127   128    1
    90   126   123    1
    91   161   155   am
    92    63    64    1
    93    63    62    1
    94   139   140    2
    95   125   124    2
    96    64    65    1
    97   155   154    1
    98   124   123    1
    99    60    59    1
   100    60    61    2
   101   160   158    1
   102   123   122    1
   103   158   157    1
   104   128   122    1
   105    59    62    1
   106    59    58    1
   107   154   157    1
   108   154   153    1
   109   157   159    1
   110   152   150    1
   111    56    55    1
   112    57    55    1
   113    93    91   ar
   114   145   146    1
   115   150   151    1
   116   150   149    1
   117    55    54    1
   118   146   149    1
   119   146   147    1
   120    91    92   ar
   121    91    90    1
   122    54    51    1
   123   147   148    2
   124    52    53    2
   125    52    51    1
   126    90    89    1
   127   111   113   ar
   128   111   109   ar
   129    84    83    1
   130    84    78    1
   131    51    50    1
   132    83    82    1
   133   113   112   ar
   134   109   108   ar
   135    89    86    1
   136   117   116    2
   137    82    79    1
   138    78    79    1
   139   118   120    1
   140   118   119    1
   141   118   115    1
   142   112   110   ar
   143    85    86    1
   144   119   121    1
   145   108   110   ar
   146   108   107    1
   147    86    87    1
   148   116   115    1
   149    79    80    1
   150   114   115    1
   151   114   105   am
   152    81    80    2
   153    97    96    2
   154   104   107    1
   155   104   105    1
   156   104   103    1
   157    87    88    2
   158    87    94   am
   159   105   106    2
   160    96   103   am
   161    96    95    1
   162    94    95    1
   163    95    98    1
   164    98    99    1
   165    99   100    1
   166   101   100   ar
   167   100   102   ar
