@<TRIPOS>MOLECULE
tmp/3meuA00.pdb
 164 156 0 0 0
SMALL
GASTEIGER

@<TRIPOS>ATOM
      1  N         16.1500  -12.1540    4.4460 N.3     2  ARG2       -0.1231
      2  CA        14.7650  -11.9440    4.8330 C.3     2  ARG2        0.1694
      3  C         14.2380  -12.9290    5.8610 C.2     2  ARG2        0.2591
      4  O         13.6000  -12.5210    6.8230 O.2     2  ARG2       -0.2718
      5  CB        13.8350  -11.9210    3.6240 C.3     2  ARG2        0.0321
      6  CG        12.3690  -11.9670    3.9980 C.3     2  ARG2        0.0489
      7  CD        11.5230  -11.6670    2.7600 C.3     2  ARG2        0.2205
      8  NE        10.0930  -11.8820    2.9970 N.pl3   2  ARG2       -0.0865
      9  CZ         9.4820  -13.0640    2.9500 C.cat   2  ARG2        0.5346
     10  NH1       10.1600  -14.1780    2.6600 N.pl3   2  ARG2        0.1354
     11  NH2        8.1800  -13.1510    3.1700 N.pl3   2  ARG2        0.1354
     12  N         14.4940  -14.2220    5.6640 N.am    3  ARG3       -0.1980
     13  CA        13.9520  -15.2290    6.5780 C.3     3  ARG3        0.1597
     14  C         14.4290  -15.0510    8.0220 C.2     3  ARG3        0.2287
     15  O         13.6380  -15.0840    8.9660 O.2     3  ARG3       -0.2864
     16  CB        14.3180  -16.6290    6.0760 C.3     3  ARG3        0.0334
     17  CG        13.7510  -16.9990    4.6670 C.3     3  ARG3        0.0492
     18  CD        12.2850  -17.5170    4.7050 C.3     3  ARG3        0.2205
     19  NE        12.0770  -18.5970    5.6740 N.pl3   3  ARG3       -0.0865
     20  CZ        12.2520  -19.9010    5.4470 C.cat   3  ARG3        0.5346
     21  NH1       12.6150  -20.3540    4.2500 N.pl3   3  ARG3        0.1354
     22  NH2       12.0540  -20.7710    6.4310 N.pl3   3  ARG3        0.1354
     23  N         12.9330  -11.7170    9.5620 N.3     6  LEU6       -0.1245
     24  CA        11.5660  -11.9390   10.0270 C.3     6  LEU6        0.1561
     25  C         11.5090  -12.6750   11.3330 C.2     6  LEU6        0.2260
     26  O         10.8250  -12.2520   12.2480 O.2     6  LEU6       -0.2867
     27  CB        10.7540  -12.7220    9.0050 C.3     6  LEU6        0.0270
     28  CG        10.4490  -11.9280    7.7480 C.3     6  LEU6        0.0019
     29  CD1        9.7220  -12.8540    6.7790 C.3     6  LEU6        0.0001
     30  CD2        9.6070  -10.7080    8.0770 C.3     6  LEU6        0.0001
     31  N         -5.9260  -13.5410    4.4450 N.3    59  GLN59      -0.1245
     32  CA        -4.9750  -13.9780    5.5000 C.3    59  GLN59       0.1566
     33  C         -5.0370  -12.9720    6.6300 C.2    59  GLN59       0.2260
     34  O         -5.2000  -11.7840    6.3950 O.2    59  GLN59      -0.2867
     35  CB        -3.5260  -14.0000    4.9960 C.3    59  GLN59       0.0367
     36  CG        -3.1730  -15.0530    3.9440 C.3    59  GLN59       0.0905
     37  CD        -2.8520  -16.4440    4.5030 C.2    59  GLN59       0.2608
     38  OE1       -2.6140  -16.6360    5.7040 O.2    59  GLN59      -0.2717
     39  NE2       -2.8210  -17.4260    3.6070 N.am   59  GLN59      -0.0878
     40  N         -2.5560  -11.2900    8.8200 N.3    61  ILE61      -0.1245
     41  CA        -1.1180  -11.1060    8.8220 C.3    61  ILE61       0.1561
     42  C         -0.6810  -10.3090   10.0580 C.2    61  ILE61       0.2260
     43  O         -1.4610   -9.5100   10.6090 O.2    61  ILE61      -0.2867
     44  CB        -0.6150  -10.4100    7.5260 C.3    61  ILE61       0.0252
     45  CG1       -1.0230   -8.9290    7.4880 C.3    61  ILE61       0.0019
     46  CG2       -1.0900  -11.1830    6.2580 C.3    61  ILE61       0.0019
     47  CD1       -0.2810   -8.0920    6.4370 C.3    61  ILE61       0.0001
     48  N          2.5470   -4.2910    6.7070 N.3    79  ASP79      -0.1239
     49  CA         3.0420   -5.6430    6.9510 C.3    79  ASP79       0.1674
     50  C          4.3690   -5.5360    7.7030 C.2    79  ASP79       0.2266
     51  O          5.2060   -4.6780    7.3750 O.2    79  ASP79      -0.2867
     52  CB         3.2830   -6.2340    5.5610 C.3    79  ASP79       0.1410
     53  CG         3.4920   -7.7430    5.5320 C.2    79  ASP79       0.3668
     54  OD1        3.9970   -8.3280    6.5060 O.co2  79  ASP79      -0.2456
     55  OD2        3.1940   -8.3040    4.4510 O.co2  79  ASP79      -0.2456
     56  N          6.6770   -7.5770    7.3690 N.3    81  ASP81      -0.1239
     57  CA         7.6000   -8.0070    6.3140 C.3    81  ASP81       0.1674
     58  C          7.7790   -6.9100    5.2760 C.2    81  ASP81       0.2266
     59  O          6.8010   -6.4250    4.6960 O.2    81  ASP81      -0.2867
     60  CB         6.9920   -9.2420    5.6450 C.3    81  ASP81       0.1410
     61  CG         7.7950   -9.7540    4.4580 C.2    81  ASP81       0.3668
     62  OD1        8.9730   -9.3650    4.2960 O.co2  81  ASP81      -0.2456
     63  OD2        7.1950  -10.5500    3.7110 O.co2  81  ASP81      -0.2456
     64  N          8.7580   -7.3360    2.2890 N.3    83  GLU83      -0.1231
     65  CA         8.2590   -7.8380    0.9980 C.3    83  GLU83       0.1699
     66  C          6.7860   -7.5180    0.7390 C.2    83  GLU83       0.2592
     67  O          6.3110   -7.6520   -0.3900 O.2    83  GLU83      -0.2718
     68  CB         8.4800   -9.3480    0.8540 C.3    83  GLU83       0.0402
     69  CG         9.7380   -9.7040    0.0890 C.3    83  GLU83       0.1161
     70  CD         9.8650  -11.1940   -0.1940 C.2    83  GLU83       0.3649
     71  OE1        8.8710  -11.9390   -0.0280 O.co2  83  GLU83      -0.2457
     72  OE2       10.9730  -11.6220   -0.5810 O.co2  83  GLU83      -0.2457
     73  N          6.0680   -7.1260    1.7870 N.am   84  GLY84      -0.1957
     74  CA         4.6800   -6.7080    1.6550 C.3    84  GLY84       0.1869
     75  C          4.7000   -5.2230    1.3960 C.2    84  GLY84       0.2309
     76  O          4.7470   -4.4220    2.3370 O.2    84  GLY84      -0.2863
     77  N          1.3810  -18.9610   13.3300 N.3   123  TYR123     -0.1241
     78  CA         1.8940  -20.2830   13.0480 C.3   123  TYR123      0.1605
     79  C          3.4270  -20.2610   12.9310 C.2   123  TYR123      0.2264
     80  O          3.9730  -19.3410   12.3190 O.2   123  TYR123     -0.2867
     81  CB         1.2650  -20.7980   11.7460 C.3   123  TYR123      0.0534
     82  CG         1.5090  -22.2740   11.5070 C.ar  123  TYR123     -0.0201
     83  CD1        0.7220  -23.2400   12.1360 C.ar  123  TYR123     -0.0009
     84  CD2        2.5590  -22.7020   10.6950 C.ar  123  TYR123     -0.0009
     85  CE1        0.9320  -24.5970   11.9220 C.ar  123  TYR123      0.0417
     86  CE2        2.7980  -24.0610   10.4840 C.ar  123  TYR123      0.0417
     87  CZ         1.9840  -24.9930   11.1080 C.ar  123  TYR123      0.1957
     88  OH         2.2660  -26.3250   10.8600 O.3   123  TYR123     -0.2866
     89  N          7.2270  -20.3410   11.9340 N.3   125  GLN125     -0.1231
     90  CA         7.9600  -20.0980   10.6790 C.3   125  GLN125      0.1698
     91  C          7.1590  -19.2740    9.6630 C.2   125  GLN125      0.2593
     92  O          7.4570  -19.2620    8.4670 O.2   125  GLN125     -0.2718
     93  CB         8.5630  -21.3860   10.0850 C.3   125  GLN125      0.0381
     94  CG         9.9950  -21.6790   10.6080 C.3   125  GLN125      0.0905
     95  CD        11.0650  -20.7680    9.9720 C.2   125  GLN125      0.2608
     96  OE1       10.8750  -20.2410    8.8690 O.2   125  GLN125     -0.2717
     97  NE2       12.1750  -20.5700   10.6740 N.am  125  GLN125     -0.0878
     98  N          6.1360  -18.5800   10.1500 N.am  126  THR126     -0.1939
     99  CA         5.3010  -17.7160    9.3050 C.3   126  THR126      0.2028
    100  C          5.1380  -16.3700   10.0040 C.2   126  THR126      0.2643
    101  O          5.5570  -16.1870   11.1470 O.2   126  THR126     -0.2714
    102  CB         3.8880  -18.2860    9.0270 C.3   126  THR126      0.1808
    103  OG1        3.0170  -18.0240   10.1430 O.3   126  THR126     -0.2208
    104  CG2        3.9240  -19.7680    8.6820 C.3   126  THR126      0.0379
    105  N          4.5100  -15.4380    9.3100 N.am  127  THR127     -0.1936
    106  CA         4.0700  -14.2060    9.9560 C.3   127  THR127      0.2028
    107  C          2.5440  -14.0710    9.9250 C.2   127  THR127      0.2642
    108  O          2.0140  -12.9440    9.9930 O.2   127  THR127     -0.2714
    109  CB         4.7380  -12.9590    9.3170 C.3   127  THR127      0.1808
    110  OG1        4.2620  -12.7900    7.9820 O.3   127  THR127     -0.2208
    111  CG2        6.2660  -13.0590    9.3490 C.3   127  THR127      0.0379
    112  N          1.8210  -15.1920    9.8680 N.am  128  CYS128     -0.1967
    113  CA         0.3640  -15.1730    9.7530 C.3   128  CYS128      0.1712
    114  C         -0.3340  -15.9590   10.8670 C.2   128  CYS128      0.2296
    115  O          0.2530  -16.8950   11.4410 O.2   128  CYS128     -0.2864
    116  CB        -0.0770  -15.6960    8.3950 C.3   128  CYS128      0.0983
    117  SG         0.4160  -14.6800    6.9960 S.3   128  CYS128     -0.0798
    118  N         -3.6670  -18.1640   12.3860 N.3   130  TYR130     -0.1241
    119  CA        -4.5990  -19.2040   11.9840 C.3   130  TYR130      0.1605
    120  C         -5.3750  -19.7170   13.1920 C.2   130  TYR130      0.2264
    121  O         -4.9180  -19.6480   14.3390 O.2   130  TYR130     -0.2867
    122  CB        -3.8820  -20.3680   11.3050 C.3   130  TYR130      0.0534
    123  CG        -3.1080  -19.9350   10.0870 C.ar  130  TYR130     -0.0201
    124  CD1       -3.6990  -19.9440    8.8280 C.ar  130  TYR130     -0.0009
    125  CD2       -1.7870  -19.5210   10.1870 C.ar  130  TYR130     -0.0009
    126  CE1       -2.9680  -19.5360    7.6900 C.ar  130  TYR130      0.0417
    127  CE2       -1.0720  -19.1150    9.0750 C.ar  130  TYR130      0.0417
    128  CZ        -1.6590  -19.1430    7.8420 C.ar  130  TYR130      0.1957
    129  OH        -0.9170  -18.7150    6.7600 O.3   130  TYR130     -0.2866
    130  N         -3.3560  -26.2800   16.1210 N.3   149  PHE149     -0.1227
    131  CA        -3.8960  -25.5750   14.9520 C.3   149  PHE149      0.1736
    132  C         -4.8830  -26.4570   14.2170 C.2   149  PHE149      0.2595
    133  O         -4.6440  -27.6490   14.0660 O.2   149  PHE149     -0.2718
    134  CB        -2.7880  -25.1560   13.9810 C.3   149  PHE149      0.0547
    135  CG        -2.0160  -23.9890   14.4550 C.ar  149  PHE149     -0.0202
    136  CD1       -2.4480  -22.7030   14.1950 C.ar  149  PHE149     -0.0042
    137  CD2       -0.8590  -24.1520   15.2090 C.ar  149  PHE149     -0.0042
    138  CE1       -1.7170  -21.6070   14.6350 C.ar  149  PHE149     -0.0003
    139  CE2       -0.1320  -23.0570   15.6590 C.ar  149  PHE149     -0.0003
    140  CZ        -0.5680  -21.7900   15.3830 C.ar  149  PHE149     -0.0000
    141  N         -5.9600  -25.8750   13.7150 N.am  150  GLU150     -0.1965
    142  CA        -6.7860  -26.6020   12.7520 C.3   150  GLU150      0.1733
    143  C         -5.8900  -26.8760   11.5480 C.2   150  GLU150      0.2616
    144  O         -5.1510  -26.0090   11.0680 O.2   150  GLU150     -0.2715
    145  CB        -7.9860  -25.7700   12.3480 C.3   150  GLU150      0.0429
    146  CG        -8.9720  -25.5740   13.4870 C.3   150  GLU150      0.1163
    147  CD       -10.2190  -24.7900   13.1000 C.2   150  GLU150      0.3649
    148  OE1      -10.2990  -24.2640   11.9790 O.co2 150  GLU150     -0.2457
    149  OE2      -11.1140  -24.7070   13.9650 O.co2 150  GLU150     -0.2457
    150  N         -5.8870  -28.1220   11.0960 N.am  151  ASP151     -0.1957
    151  CA        -4.9990  -28.5470   10.0170 C.3   151  ASP151      0.1840
    152  C         -5.5850  -29.7850    9.3560 C.2   151  ASP151      0.2622
    153  O         -5.5720  -30.8790    9.9260 O.2   151  ASP151     -0.2715
    154  CB        -3.6090  -28.8670   10.5790 C.3   151  ASP151      0.1450
    155  CG        -2.5800  -29.0950    9.4990 C.2   151  ASP151      0.3671
    156  OD1       -2.9600  -29.5140    8.3960 O.co2 151  ASP151     -0.2456
    157  OD2       -1.3840  -28.8720    9.7790 O.co2 151  ASP151     -0.2456
    158  N         -6.0750  -29.6040    8.1360 N.am  152  THR152     -0.1951
    159  CA        -6.7670  -30.6840    7.4160 C.3   152  THR152      0.1897
    160  C         -5.8300  -31.7770    6.9060 C.2   152  THR152      0.2313
    161  O         -6.2910  -32.8000    6.4230 O.2   152  THR152     -0.2863
    162  CB        -7.5780  -30.1770    6.2130 C.3   152  THR152      0.1794
    163  OG1       -6.7120  -29.4740    5.3250 O.3   152  THR152     -0.2208
    164  CG2       -8.7260  -29.2710    6.6610 C.3   152  THR152      0.0378
@<TRIPOS>BOND
     1    72    70   ar
     2    67    66    2
     3    70    71   ar
     4    70    69    1
     5    69    68    1
     6    66    65    1
     7    66    73   am
     8    68    65    1
     9    65    64    1
    10    75    74    1
    11    75    76    2
    12    74    73    1
    13    10     9    1
    14     7     8    1
    15     7     6    1
    16     9     8    2
    17     9    11    1
    18    39    37   am
    19     5     6    1
    20     5     2    1
    21    63    61   ar
    22    36    37    1
    23    36    35    1
    24    21    20    1
    25    62    61   ar
    26    31    32    1
    27     1     2    1
    28    55    53   ar
    29    61    60    1
    30    37    38    2
    31    17    18    1
    32    17    16    1
    33    59    58    2
    34    18    19    1
    35     2     3    1
    36    35    32    1
    37    58    57    1
    38   163   162    1
    39    20    19    2
    40    20    22    1
    41    32    33    1
    42    53    52    1
    43    53    54   ar
    44    52    49    1
    45    60    57    1
    46    12     3   am
    47    12    13    1
    48     3     4    2
    49    16    13    1
    50   162   164    1
    51   162   159    1
    52    46    44    1
    53    57    56    1
    54    34    33    2
    55   161   160    2
    56    47    45    1
    57    13    14    1
    58    48    49    1
    59   129   128    1
    60    29    28    1
    61   160   159    1
    62    49    50    1
    63   117   116    1
    64    51    50    2
    65   159   158    1
    66    45    44    1
    67    44    41    1
    68   126   128   ar
    69   126   124   ar
    70    28    30    1
    71    28    27    1
    72   128   127   ar
    73   110   109    1
    74    14    15    2
    75   158   152   am
    76   116   113    1
    77   156   155   ar
    78    92    91    2
    79   104   102    1
    80    40    41    1
    81    41    42    1
    82   124   123   ar
    83    96    95    2
    84    27    24    1
    85   102    99    1
    86   102   103    1
    87   127   125   ar
    88    99   100    1
    89    99    98    1
    90   105   106    1
    91   105   100   am
    92   109   111    1
    93   109   106    1
    94   152   153    2
    95   152   151    1
    96   155   157   ar
    97   155   154    1
    98    23    24    1
    99    91    98   am
   100    91    90    1
   101   113   112    1
   102   113   114    1
   103   112   107   am
   104   107   106    1
   105   107   108    2
   106    95    94    1
   107    95    97   am
   108   100   101    2
   109   151   154    1
   110   151   150    1
   111    24    25    1
   112    42    43    2
   113    93    94    1
   114    93    90    1
   115   123   125   ar
   116   123   122    1
   117    86    84   ar
   118    86    87   ar
   119    90    89    1
   120    84    82   ar
   121    88    87    1
   122   114   115    2
   123   144   143    2
   124   150   143   am
   125    87    85   ar
   126   122   119    1
   127    25    26    2
   128    82    81    1
   129    82    83   ar
   130   143   142    1
   131    81    78    1
   132    85    83   ar
   133   148   147   ar
   134   119   118    1
   135   119   120    1
   136    80    79    2
   137   145   142    1
   138   145   146    1
   139   142   141    1
   140    79    78    1
   141    78    77    1
   142   147   146    1
   143   147   149   ar
   144   120   121    2
   145   141   132   am
   146   134   135    1
   147   134   131    1
   148   133   132    2
   149   136   135   ar
   150   136   138   ar
   151   132   131    1
   152   135   137   ar
   153   138   140   ar
   154   131   130    1
   155   137   139   ar
   156   140   139   ar
