@<TRIPOS>MOLECULE
tmp/3mevB00.pdb
 140 133 0 0 0
SMALL
GASTEIGER

@<TRIPOS>ATOM
      1  N        -39.1950   12.8320  -47.0090 N.3     3  ARG3       -0.1245
      2  CA       -38.1040   13.4660  -46.2540 C.3     3  ARG3        0.1563
      3  C        -38.5470   14.0060  -44.8830 C.2     3  ARG3        0.2260
      4  O        -37.9040   13.7280  -43.8680 O.2     3  ARG3       -0.2867
      5  CB       -37.4300   14.5690  -47.0780 C.3     3  ARG3        0.0307
      6  CG       -36.7510   13.9130  -48.3200 C.3     3  ARG3        0.0489
      7  CD       -35.3520   13.5550  -47.9120 C.3     3  ARG3        0.2205
      8  NE       -34.5840   12.7150  -48.7860 N.pl3   3  ARG3       -0.0865
      9  CZ       -34.8420   11.5080  -49.3050 C.cat   3  ARG3        0.5346
     10  NH1      -35.9080   10.7840  -48.9140 N.pl3   3  ARG3        0.1354
     11  NH2      -33.9980   11.0530  -50.2620 N.pl3   3  ARG3        0.1354
     12  N        -39.3630   11.2030  -42.4920 N.3     6  LEU6       -0.1245
     13  CA       -38.1120   10.6330  -42.0040 C.3     6  LEU6        0.1561
     14  C        -37.5550   11.4790  -40.8610 C.2     6  LEU6        0.2260
     15  O        -37.1210   10.9280  -39.8450 O.2     6  LEU6       -0.2867
     16  CB       -37.0800   10.4580  -43.1240 C.3     6  LEU6        0.0270
     17  CG       -35.6840    9.9220  -42.7600 C.3     6  LEU6        0.0019
     18  CD1      -35.7170    8.6010  -41.9840 C.3     6  LEU6        0.0001
     19  CD2      -34.8400    9.7910  -43.9990 C.3     6  LEU6        0.0001
     20  N        -18.1790   10.6100  -46.9030 N.3    59  GLN59      -0.1245
     21  CA       -19.2380   11.2150  -46.0880 C.3    59  GLN59       0.1566
     22  C        -19.7140   10.2630  -44.9950 C.2    59  GLN59       0.2260
     23  O        -20.0930    9.1390  -45.2940 O.2    59  GLN59      -0.2867
     24  CB       -20.4540   11.5850  -46.9490 C.3    59  GLN59       0.0367
     25  CG       -21.5860   12.2590  -46.1300 C.3    59  GLN59       0.0905
     26  CD       -21.1470   13.5970  -45.5000 C.2    59  GLN59       0.2608
     27  OE1      -20.7040   14.4990  -46.2170 O.2    59  GLN59      -0.2717
     28  NE2      -21.2590   13.7220  -44.1640 N.am   59  GLN59      -0.0878
     29  N        -22.5720    9.0000  -42.7850 N.3    61  ILE61      -0.1245
     30  CA       -24.0260    9.0270  -42.8700 C.3    61  ILE61       0.1561
     31  C        -24.6390    8.2080  -41.7630 C.2    61  ILE61       0.2260
     32  O        -23.9950    7.3480  -41.2180 O.2    61  ILE61      -0.2867
     33  CB       -24.5470    8.5440  -44.2470 C.3    61  ILE61       0.0252
     34  CG1      -24.4430    7.0280  -44.4030 C.3    61  ILE61       0.0019
     35  CG2      -23.8350    9.3040  -45.3660 C.3    61  ILE61       0.0019
     36  CD1      -25.1670    6.5320  -45.7350 C.3    61  ILE61       0.0001
     37  N        -28.3140    2.7140  -45.7140 N.3    79  ASP79      -0.1239
     38  CA       -28.5860    4.1430  -45.6700 C.3    79  ASP79       0.1674
     39  C        -30.0120    4.3830  -45.1810 C.2    79  ASP79       0.2266
     40  O        -30.9770    3.9180  -45.7980 O.2    79  ASP79      -0.2867
     41  CB       -28.4240    4.7240  -47.0770 C.3    79  ASP79       0.1410
     42  CG       -28.5600    6.2270  -47.1180 C.2    79  ASP79       0.3668
     43  OD1      -29.2550    6.8400  -46.2770 O.co2  79  ASP79      -0.2456
     44  OD2      -27.9680    6.8020  -48.0370 O.co2  79  ASP79      -0.2456
     45  N        -32.1840    6.6010  -45.2550 N.3    81  ASP81      -0.1239
     46  CA       -33.2590    7.2030  -46.0040 C.3    81  ASP81       0.1674
     47  C        -33.9370    6.1630  -46.9330 C.2    81  ASP81       0.2266
     48  O        -34.9830    6.4450  -47.5300 O.2    81  ASP81      -0.2867
     49  CB       -32.7910    8.4620  -46.7260 C.3    81  ASP81       0.1410
     50  CG       -32.0150    8.1680  -47.9740 C.2    81  ASP81       0.3668
     51  OD1      -32.0120    6.9900  -48.4170 O.co2  81  ASP81      -0.2456
     52  OD2      -31.4240    9.1320  -48.5210 O.co2  81  ASP81      -0.2456
     53  N        -26.1420   16.8370  -38.9200 N.3   123  TYR123     -0.1241
     54  CA       -26.5880   18.1900  -39.2020 C.3   123  TYR123      0.1605
     55  C        -28.1180   18.1930  -39.2080 C.2   123  TYR123      0.2264
     56  O        -28.7250   17.3050  -39.8060 O.2   123  TYR123     -0.2867
     57  CB       -26.0260   18.6760  -40.5380 C.3   123  TYR123      0.0534
     58  CG       -26.1290   20.1890  -40.7010 C.ar  123  TYR123     -0.0201
     59  CD1      -25.1770   21.0300  -40.1430 C.ar  123  TYR123     -0.0009
     60  CD2      -27.1900   20.7620  -41.3990 C.ar  123  TYR123     -0.0009
     61  CE1      -25.2710   22.4200  -40.2960 C.ar  123  TYR123      0.0417
     62  CE2      -27.3000   22.1420  -41.5660 C.ar  123  TYR123      0.0417
     63  CZ       -26.3360   22.9630  -41.0020 C.ar  123  TYR123      0.1957
     64  OH       -26.4220   24.3240  -41.1610 O.3   123  TYR123     -0.2866
     65  N        -31.9370   18.3670  -39.8790 N.3   125  GLN125     -0.1231
     66  CA       -32.7240   18.1730  -41.0940 C.3   125  GLN125      0.1698
     67  C        -31.9400   17.4520  -42.2020 C.2   125  GLN125      0.2593
     68  O        -32.3040   17.5280  -43.3850 O.2   125  GLN125     -0.2718
     69  CB       -33.2780   19.5180  -41.5890 C.3   125  GLN125      0.0381
     70  CG       -34.2890   20.1510  -40.6230 C.3   125  GLN125      0.0905
     71  CD       -35.5910   19.3870  -40.5990 C.2   125  GLN125      0.2608
     72  OE1      -36.0930   19.0590  -39.5330 O.2   125  GLN125     -0.2717
     73  NE2      -36.1300   19.0650  -41.7870 N.am  125  GLN125     -0.0878
     74  N        -30.8530   16.7750  -41.8170 N.am  126  THR126     -0.1939
     75  CA       -30.0910   15.8820  -42.7150 C.3   126  THR126      0.2028
     76  C        -29.9310   14.5010  -42.0640 C.2   126  THR126      0.2643
     77  O        -30.2650   14.3050  -40.8900 O.2   126  THR126     -0.2714
     78  CB       -28.6480   16.4270  -43.0870 C.3   126  THR126      0.1808
     79  OG1      -27.7310   16.1810  -42.0110 O.3   126  THR126     -0.2208
     80  CG2      -28.6200   17.9080  -43.4620 C.3   126  THR126      0.0379
     81  N        -29.3710   13.5600  -42.8200 N.am  127  THR127     -0.1936
     82  CA       -28.9420   12.2740  -42.2670 C.3   127  THR127      0.2028
     83  C        -27.4200   12.1250  -42.4240 C.2   127  THR127      0.2642
     84  O        -26.9130   11.0160  -42.5110 O.2   127  THR127     -0.2714
     85  CB       -29.6420   11.0580  -42.9410 C.3   127  THR127      0.1808
     86  OG1      -29.2240   10.9550  -44.3100 O.3   127  THR127     -0.2208
     87  CG2      -31.1520   11.1830  -42.8660 C.3   127  THR127      0.0379
     88  N        -26.7080   13.2500  -42.4790 N.am  128  CYS128     -0.1967
     89  CA       -25.2430   13.2580  -42.5940 C.3   128  CYS128      0.1712
     90  C        -24.5520   13.8520  -41.3630 C.2   128  CYS128      0.2296
     91  O        -24.9950   14.8690  -40.8300 O.2   128  CYS128     -0.2864
     92  CB       -24.8290   14.0640  -43.8030 C.3   128  CYS128      0.0983
     93  SG       -25.1590   13.1910  -45.3560 S.3   128  CYS128     -0.0798
     94  N        -21.1240   15.6110  -39.6500 N.3   130  TYR130     -0.1241
     95  CA       -20.0370   16.4980  -40.0090 C.3   130  TYR130      0.1605
     96  C        -19.2880   16.9170  -38.7690 C.2   130  TYR130      0.2264
     97  O        -19.8330   16.8670  -37.6620 O.2   130  TYR130     -0.2867
     98  CB       -20.5770   17.7670  -40.6460 C.3   130  TYR130      0.0534
     99  CG       -21.4080   17.5520  -41.8850 C.ar  130  TYR130     -0.0201
    100  CD1      -20.8250   17.5530  -43.1500 C.ar  130  TYR130     -0.0009
    101  CD2      -22.7930   17.3720  -41.7860 C.ar  130  TYR130     -0.0009
    102  CE1      -21.6030   17.3610  -44.2970 C.ar  130  TYR130      0.0417
    103  CE2      -23.5830   17.1890  -42.9210 C.ar  130  TYR130      0.0417
    104  CZ       -22.9760   17.1850  -44.1710 C.ar  130  TYR130      0.1957
    105  OH       -23.7750   16.9970  -45.2930 O.3   130  TYR130     -0.2866
    106  N        -20.9210   23.7630  -35.9460 N.3   149  PHE149     -0.1227
    107  CA       -20.4250   23.0440  -37.0980 C.3   149  PHE149      0.1736
    108  C        -19.3630   23.8390  -37.8340 C.2   149  PHE149      0.2595
    109  O        -19.4690   25.0400  -37.9610 O.2   149  PHE149     -0.2718
    110  CB       -21.5630   22.7440  -38.0880 C.3   149  PHE149      0.0547
    111  CG       -22.4770   21.6420  -37.6430 C.ar  149  PHE149     -0.0202
    112  CD1      -22.1360   20.3110  -37.9010 C.ar  149  PHE149     -0.0042
    113  CD2      -23.6520   21.9250  -36.9420 C.ar  149  PHE149     -0.0042
    114  CE1      -22.9440   19.2680  -37.5000 C.ar  149  PHE149     -0.0003
    115  CE2      -24.4980   20.8680  -36.5030 C.ar  149  PHE149     -0.0003
    116  CZ       -24.1510   19.5340  -36.7910 C.ar  149  PHE149     -0.0000
    117  N        -18.3600   23.1420  -38.3630 N.am  150  GLU150     -0.1965
    118  CA       -17.3980   23.7600  -39.2490 C.3   150  GLU150      0.1733
    119  C        -18.1900   24.0960  -40.5110 C.2   150  GLU150      0.2616
    120  O        -18.9590   23.2780  -41.0010 O.2   150  GLU150     -0.2715
    121  CB       -16.2270   22.8090  -39.5370 C.3   150  GLU150      0.0429
    122  CG       -15.2750   22.6130  -38.3460 C.3   150  GLU150      0.1163
    123  CD       -14.0880   21.6930  -38.6740 C.2   150  GLU150      0.3649
    124  OE1      -14.0240   21.1480  -39.7950 O.co2 150  GLU150     -0.2457
    125  OE2      -13.2120   21.5080  -37.8120 O.co2 150  GLU150     -0.2457
    126  N        -18.0540   25.3300  -40.9750 N.am  151  ASP151     -0.1957
    127  CA       -18.9040   25.8620  -42.0240 C.3   151  ASP151      0.1840
    128  C        -18.1690   27.0390  -42.6490 C.2   151  ASP151      0.2622
    129  O        -18.1200   28.1400  -42.0820 O.2   151  ASP151     -0.2715
    130  CB       -20.2640   26.3090  -41.4610 C.3   151  ASP151      0.1450
    131  CG       -21.2820   26.6160  -42.5450 C.2   151  ASP151      0.3671
    132  OD1      -20.8780   26.9460  -43.6820 O.co2 151  ASP151     -0.2456
    133  OD2      -22.4920   26.5150  -42.2640 O.co2 151  ASP151     -0.2456
    134  N        -17.5910   26.7870  -43.8160 N.am  152  THR152     -0.1951
    135  CA       -16.8320   27.8040  -44.5230 C.3   152  THR152      0.1897
    136  C        -17.6970   28.9190  -45.1240 C.2   152  THR152      0.2313
    137  O        -17.1500   29.9220  -45.5660 O.2   152  THR152     -0.2863
    138  CB       -15.9780   27.1940  -45.6310 C.3   152  THR152      0.1794
    139  OG1      -16.8280   26.5520  -46.5920 O.3   152  THR152     -0.2208
    140  CG2      -14.9770   26.1900  -45.0500 C.3   152  THR152      0.0378
@<TRIPOS>BOND
     1    11     9    1
     2     9    10    1
     3     9     8    2
     4     8     7    1
     5    52    50   ar
     6    51    50   ar
     7     6     7    1
     8     6     5    1
     9    44    42   ar
    10    50    49    1
    11    48    47    2
    12    42    41    1
    13    42    43   ar
    14     5     2    1
    15    41    38    1
    16     1     2    1
    17    24    25    1
    18    24    21    1
    19    47    46    1
    20    20    21    1
    21    49    46    1
    22   139   138    1
    23     2     3    1
    24    27    26    2
    25    25    26    1
    26    21    22    1
    27    46    45    1
    28    40    39    2
    29    36    34    1
    30    37    38    1
    31    38    39    1
    32   138   140    1
    33   138   135    1
    34   137   136    2
    35    26    28   am
    36    35    33    1
    37    93    92    1
    38    23    22    2
    39   105   104    1
    40   136   135    1
    41     3     4    2
    42   135   134    1
    43    34    33    1
    44    86    85    1
    45   102   104   ar
    46   102   100   ar
    47    33    30    1
    48   104   103   ar
    49    19    17    1
    50   134   128   am
    51    92    89    1
    52   132   131   ar
    53    80    78    1
    54    68    67    2
    55   100    99   ar
    56    16    17    1
    57    16    13    1
    58    78    75    1
    59    78    79    1
    60    85    87    1
    61    85    82    1
    62   103   101   ar
    63    30    29    1
    64    30    31    1
    65    81    82    1
    66    81    76   am
    67    17    18    1
    68    75    76    1
    69    75    74    1
    70   128   129    2
    71   128   127    1
    72    89    88    1
    73    89    90    1
    74   131   133   ar
    75   131   130    1
    76    84    83    2
    77    12    13    1
    78    88    83   am
    79    83    82    1
    80    67    74   am
    81    67    66    1
    82    76    77    2
    83   127   130    1
    84   127   126    1
    85    13    14    1
    86    99   101   ar
    87    99    98    1
    88    73    71   am
    89    31    32    2
    90    69    66    1
    91    69    70    1
    92    62    60   ar
    93    62    63   ar
    94    60    58   ar
    95    90    91    2
    96    64    63    1
    97    66    65    1
    98    63    61   ar
    99   120   119    2
   100   126   119   am
   101    14    15    2
   102    58    57    1
   103    58    59   ar
   104    98    95    1
   105    70    71    1
   106    71    72    2
   107    57    54    1
   108   119   118    1
   109    61    59   ar
   110    95    94    1
   111    95    96    1
   112    56    55    2
   113   124   123   ar
   114   121   118    1
   115   121   122    1
   116   118   117    1
   117    55    54    1
   118    54    53    1
   119    96    97    2
   120   123   122    1
   121   123   125   ar
   122   117   108   am
   123   110   111    1
   124   110   107    1
   125   109   108    2
   126   112   111   ar
   127   112   114   ar
   128   108   107    1
   129   111   113   ar
   130   114   116   ar
   131   107   106    1
   132   113   115   ar
   133   116   115   ar
