@<TRIPOS>MOLECULE
tmp/3meyB00.pdb
 163 152 0 0 0
SMALL
GASTEIGER

@<TRIPOS>ATOM
      1  N        120.2720   13.3490    0.4100 N.3    68  PHE68      -0.1241
      2  CA       119.2700   12.8190    1.3540 C.3    68  PHE68       0.1605
      3  C        117.9260   12.7540    0.7210 C.2    68  PHE68       0.2264
      4  O        116.9940   13.4000    1.2170 O.2    68  PHE68      -0.2867
      5  CB       119.1450   13.7150    2.5860 C.3    68  PHE68       0.0534
      6  CG       120.4900   14.0950    3.1500 C.ar   68  PHE68      -0.0203
      7  CD1      121.1410   13.2630    4.0640 C.ar   68  PHE68      -0.0042
      8  CD2      121.1280   15.2650    2.7450 C.ar   68  PHE68      -0.0042
      9  CE1      122.4090   13.5960    4.5670 C.ar   68  PHE68      -0.0003
     10  CE2      122.4040   15.5950    3.2360 C.ar   68  PHE68      -0.0003
     11  CZ       123.0380   14.7580    4.1500 C.ar   68  PHE68      -0.0000
     12  N        112.4540   17.4990    7.5530 N.3   142  ARG142     -0.1245
     13  CA       113.2720   16.3290    7.2400 C.3   142  ARG142      0.1563
     14  C        112.4560   15.1000    7.6330 C.2   142  ARG142      0.2260
     15  O        112.0510   14.9880    8.7840 O.2   142  ARG142     -0.2867
     16  CB       114.6230   16.3720    7.9690 C.3   142  ARG142      0.0307
     17  CG       115.6620   17.2560    7.2820 C.3   142  ARG142      0.0489
     18  CD       116.8490   17.5290    8.1730 C.3   142  ARG142      0.2205
     19  NE       117.6260   18.6790    7.7000 N.pl3 142  ARG142     -0.0865
     20  CZ       118.9270   18.8490    7.9270 C.cat 142  ARG142      0.5346
     21  NH1      119.6100   17.9520    8.6290 N.pl3 142  ARG142      0.1354
     22  NH2      119.5590   19.9060    7.4430 N.pl3 142  ARG142      0.1354
     23  N        112.3490   12.3120    9.0040 N.3   144  GLU144     -0.1196
     24  CA       113.0190   11.4130    9.9450 C.3   144  GLU144      0.1783
     25  C        112.1650   11.2130   11.1950 C.2   144  GLU144      0.2306
     26  O        112.4730   11.7570   12.2640 O.2   144  GLU144     -0.2863
     27  CB       114.4860   11.8090   10.2320 C.2   144  GLU144      0.0071
     28  CG       114.7750   13.2800   10.4900 C.2   144  GLU144      0.0834
     29  CD       116.2440   13.6770   10.5330 C.2   144  GLU144      0.3877
     30  OE1      116.5140   14.8910   10.4300 O.co2 144  GLU144     -0.2406
     31  OE2      117.1280   12.8020   10.6770 O.co2 144  GLU144     -0.2406
     32  N        114.8090   15.2710   20.5080 N.3   150  ASP150     -0.1225
     33  CA       115.8980   16.0140   19.9110 C.3   150  ASP150      0.1805
     34  C        116.0330   15.7040   18.4250 C.2   150  ASP150      0.2598
     35  O        116.9590   16.2090   17.7440 O.2   150  ASP150     -0.2718
     36  CB       117.2010   15.7600   20.6730 C.3   150  ASP150      0.1424
     37  CG       117.6590   14.3060   20.6540 C.2   150  ASP150      0.3668
     38  OD1      116.7610   13.4060   20.5820 O.co2 150  ASP150     -0.2456
     39  OD2      118.8910   14.0580   20.7340 O.co2 150  ASP150     -0.2456
     40  N        115.0610   14.9320   17.9180 N.am  151  ARG151     -0.1966
     41  CA       115.0430   14.5950   16.5280 C.3   151  ARG151      0.1729
     42  C        113.6090   14.7700   16.0050 C.2   151  ARG151      0.2616
     43  O        112.7450   13.8820   16.1670 O.2   151  ARG151     -0.2715
     44  CB       115.5790   13.1840   16.3480 C.3   151  ARG151      0.0348
     45  CG       115.2430   12.5980   15.0110 C.3   151  ARG151      0.0492
     46  CD       116.4060   11.7880   14.6060 C.3   151  ARG151      0.2205
     47  NE       117.3240   12.6530   13.8940 N.pl3 151  ARG151     -0.0865
     48  CZ       118.6010   12.8010   14.1820 C.cat 151  ARG151      0.5346
     49  NH1      119.1610   12.0900   15.1410 N.pl3 151  ARG151      0.1354
     50  NH2      119.3480   13.6230   13.4790 N.pl3 151  ARG151      0.1354
     51  N        113.3630   15.9490   15.3790 N.am  152  LEU152     -0.1977
     52  CA       112.0390   16.2980   14.8900 C.3   152  LEU152      0.1596
     53  C        111.9480   16.2000   13.3740 C.2   152  LEU152      0.2287
     54  O        112.9800   16.0510   12.7270 O.2   152  LEU152     -0.2864
     55  CB       111.6910   17.7000   15.3760 C.3   152  LEU152      0.0297
     56  CG       111.8690   17.9810   16.8730 C.3   152  LEU152      0.0022
     57  CD1      111.6240   19.4300   17.1810 C.3   152  LEU152      0.0001
     58  CD2      110.9410   17.1350   17.6870 C.3   152  LEU152      0.0001
     59  N        111.1960   21.4710   12.3880 N.3   155  PHE155     -0.1241
     60  CA       112.0600   22.1610   13.3600 C.3   155  PHE155      0.1605
     61  C        112.5980   23.4880   12.7930 C.2   155  PHE155      0.2264
     62  O        112.8040   23.5840   11.5920 O.2   155  PHE155     -0.2867
     63  CB       113.2210   21.2170   13.7910 C.3   155  PHE155      0.0534
     64  CG       114.1450   20.8190   12.6610 C.ar  155  PHE155     -0.0203
     65  CD1      113.8310   19.7420   11.8190 C.ar  155  PHE155     -0.0042
     66  CD2      115.3040   21.5390   12.4040 C.ar  155  PHE155     -0.0042
     67  CE1      114.6610   19.4090   10.7340 C.ar  155  PHE155     -0.0003
     68  CE2      116.1520   21.1770   11.3560 C.ar  155  PHE155     -0.0003
     69  CZ       115.8070   20.1330   10.5040 C.ar  155  PHE155     -0.0000
     70  N        115.3990   26.4360   12.1020 N.3   157  MET157     -0.1245
     71  CA       116.8230   26.5720   11.8660 C.3   157  MET157      0.1570
     72  C        117.1300   28.0380   11.6310 C.2   157  MET157      0.2261
     73  O        116.4750   28.6790   10.8080 O.2   157  MET157     -0.2867
     74  CB       117.2360   25.7340   10.6600 C.3   157  MET157      0.0387
     75  CG       118.7370   25.4490   10.5890 C.3   157  MET157      0.0595
     76  SD       119.1620   24.5670    9.0690 S.3   157  MET157     -0.1393
     77  CE       118.4280   22.9410    9.3720 C.3   157  MET157      0.0692
     78  N        133.1600   20.1460    8.2810 N.3   197  LYS197     -0.1245
     79  CA       131.9610   20.3770    9.0960 C.3   197  LYS197      0.1561
     80  C        132.2490   20.3100   10.5970 C.2   197  LYS197      0.2260
     81  O        132.6770   19.2700   11.0750 O.2   197  LYS197     -0.2867
     82  CB       130.8120   19.4160    8.7150 C.3   197  LYS197      0.0271
     83  CG       129.4390   19.8390    9.2670 C.3   197  LYS197      0.0035
     84  CD       128.3710   18.7840    9.0970 C.3   197  LYS197      0.0206
     85  CE       127.0370   19.2110    9.6540 C.3   197  LYS197      0.1093
     86  NZ       125.8980   18.5370    8.9520 N.3   197  LYS197     -0.1314
     87  N        130.6540   20.6530   14.5070 N.3   199  GLU199     -0.1245
     88  CA       129.4210   20.4910   15.2610 C.3   199  GLU199      0.1567
     89  C        129.7030   20.7980   16.7120 C.2   199  GLU199      0.2260
     90  O        130.7540   20.4280   17.2280 O.2   199  GLU199     -0.2867
     91  CB       128.7850   19.1080   15.1190 C.3   199  GLU199      0.0388
     92  CG       128.0520   18.8980   13.8080 C.3   199  GLU199      0.1160
     93  CD       127.3490   17.5640   13.6240 C.2   199  GLU199      0.3649
     94  OE1      127.7900   16.5590   14.2330 O.co2 199  GLU199     -0.2457
     95  OE2      126.3450   17.5270   12.8720 O.co2 199  GLU199     -0.2457
     96  N        124.0940   15.4280   21.1920 N.3   211  THR211     -0.1203
     97  CA       123.2810   15.9350   20.0830 C.3   211  THR211      0.1994
     98  C        123.9010   17.1740   19.4420 C.2   211  THR211      0.2618
     99  O        124.3380   18.0810   20.1520 O.2   211  THR211     -0.2717
    100  CB       121.8460   16.1290   20.5670 C.3   211  THR211      0.1784
    101  OG1      121.3530   14.8860   21.0840 O.3   211  THR211     -0.2211
    102  CG2      120.9220   16.6120   19.4860 C.3   211  THR211      0.0376
    103  N        123.9500   17.2030   18.0980 N.am  212  ALA212     -0.1965
    104  CA       124.4690   18.3460   17.3450 C.3   212  ALA212      0.1728
    105  C        123.4120   19.4720   17.4110 C.2   212  ALA212      0.2616
    106  O        122.3290   19.3340   16.8570 O.2   212  ALA212     -0.2715
    107  CB       124.7360   17.9450   15.9020 C.3   212  ALA212      0.0334
    108  N        123.7060   20.5280   18.1750 N.am  213  CYS213     -0.1954
    109  CA       122.8370   21.6870   18.3960 C.3   213  CYS213      0.1843
    110  C        123.2430   22.8750   17.5460 C.2   213  CYS213      0.2625
    111  O        122.4360   23.7730   17.3260 O.2   213  CYS213     -0.2714
    112  CB       122.7580   22.0420   19.8800 C.3   213  CYS213      0.0997
    113  SG       121.9950   20.7430   20.8970 S.3   213  CYS213     -0.0797
    114  N        124.4930   22.8740   17.0500 N.am  214  MET214     -0.1963
    115  CA       125.0350   23.8900   16.1310 C.3   214  MET214      0.1736
    116  C        125.9960   23.2190   15.1710 C.2   214  MET214      0.2617
    117  O        126.6120   22.2100   15.5360 O.2   214  MET214     -0.2715
    118  CB       125.7880   25.0200   16.8590 C.3   214  MET214      0.0427
    119  CG       125.0130   25.6780   17.9560 C.3   214  MET214      0.0599
    120  SD       125.9210   27.0510   18.6570 S.3   214  MET214     -0.1393
    121  CE       125.3280   27.0170   20.3010 C.3   214  MET214      0.0692
    122  N        126.1800   23.8100   13.9800 N.am  215  SER215     -0.1950
    123  CA       127.1060   23.2670   12.9880 C.3   215  SER215      0.1924
    124  C        127.6340   24.2870   12.0270 C.2   215  SER215      0.2314
    125  O        126.9360   25.2370   11.7010 O.2   215  SER215     -0.2863
    126  CB       126.4460   22.1340   12.2010 C.3   215  SER215      0.2116
    127  OG       125.5730   22.5960   11.1810 O.3   215  SER215     -0.2180
    128  N        128.8560   24.3730    8.1840 N.3   217  ASN217     -0.1240
    129  CA       128.8990   23.6450    6.9390 C.3   217  ASN217      0.1653
    130  C        129.6880   24.4680    5.9330 C.2   217  ASN217      0.2266
    131  O        129.4530   25.6690    5.7910 O.2   217  ASN217     -0.2867
    132  CB       127.4880   23.3990    6.4310 C.3   217  ASN217      0.1155
    133  CG       126.5350   22.8870    7.4810 C.2   217  ASN217      0.2627
    134  OD1      126.4570   21.6870    7.7450 O.2   217  ASN217     -0.2716
    135  ND2      125.7820   23.7900    8.1000 N.am  217  ASN217     -0.0877
    136  N        124.8640   27.1140   11.4640 N.3   243  ALA243     -0.1245
    137  CA       123.4800   26.7590   11.7550 C.3   243  ALA243      0.1562
    138  C        123.2460   26.5660   13.2410 C.2   243  ALA243      0.2260
    139  O        124.0410   25.9250   13.9200 O.2   243  ALA243     -0.2867
    140  CB       123.0940   25.4870   11.0160 C.3   243  ALA243      0.0290
    141  N        120.2400   25.0990   15.6950 N.3   245  GLY245     -0.1225
    142  CA       119.0410   24.2950   15.8430 C.3   245  GLY245      0.1811
    143  C        118.2400   24.8460   17.0010 C.2   245  GLY245      0.2280
    144  O        118.5330   24.5380   18.1610 O.2   245  GLY245     -0.2866
    145  N        115.1220   24.3720   18.0840 N.3   247  ASP247     -0.1225
    146  CA       114.4050   23.3810   18.8830 C.3   247  ASP247      0.1805
    147  C        115.3380   22.5810   19.7430 C.2   247  ASP247      0.2597
    148  O        115.0510   22.3750   20.9260 O.2   247  ASP247     -0.2718
    149  CB       113.5010   22.5040   18.0070 C.3   247  ASP247      0.1424
    150  CG       112.2590   23.2380   17.5420 C.2   247  ASP247      0.3668
    151  OD1      111.3720   23.5220   18.3940 O.co2 247  ASP247     -0.2456
    152  OD2      112.1770   23.5530   16.3440 O.co2 247  ASP247     -0.2456
    153  N        116.5030   22.2130   19.1910 N.am  248  ARG248     -0.1979
    154  CA       117.5330   21.4660   19.9170 C.3   248  ARG248      0.1597
    155  C        118.1400   22.2950   21.0360 C.2   248  ARG248      0.2287
    156  O        118.3510   21.7590   22.1250 O.2   248  ARG248     -0.2864
    157  CB       118.6090   20.9320   18.9620 C.3   248  ARG248      0.0334
    158  CG       118.2220   19.5840   18.4050 C.3   248  ARG248      0.0492
    159  CD       119.2360   19.0640   17.4170 C.3   248  ARG248      0.2205
    160  NE       118.8330   17.7460   16.9100 N.pl3 248  ARG248     -0.0865
    161  CZ       119.5590   17.0000   16.0860 C.cat 248  ARG248      0.5346
    162  NH1      120.7470   17.4190   15.6710 N.pl3 248  ARG248      0.1354
    163  NH2      119.0960   15.8390   15.6540 N.pl3 248  ARG248      0.1354
@<TRIPOS>BOND
     1     1     2    1
     2     3     4    2
     3     3     2    1
     4     2     5    1
     5     5     6    1
     6     8     6   ar
     7     8    10   ar
     8     6     7   ar
     9    10    11   ar
    10     7     9   ar
    11    11     9   ar
    12   131   130    2
    13   130   129    1
    14   132   129    1
    15   132   133    1
    16   129   128    1
    17    13    12    1
    18    13    14    1
    19    13    16    1
    20    17    16    1
    21    17    18    1
    22    22    20    1
    23   133   134    2
    24   133   135   am
    25    14    15    2
    26    19    20    2
    27    19    18    1
    28    20    21    1
    29    78    79    1
    30    82    79    1
    31    82    83    1
    32    86    85    1
    33    23    24    1
    34    76    77    1
    35    76    75    1
    36    79    80    1
    37    84    83    1
    38    84    85    1
    39    24    27    1
    40    24    25    1
    41    27    28    2
    42    30    29   ar
    43    28    29    1
    44    69    67   ar
    45    69    68   ar
    46    29    31   ar
    47    75    74    1
    48    80    81    2
    49    74    71    1
    50    67    65   ar
    51    73    72    2
    52   140   137    1
    53   127   126    1
    54    25    26    2
    55    68    66   ar
    56   136   137    1
    57    62    61    2
    58    72    71    1
    59   125   124    2
    60   137   138    1
    61    65    64   ar
    62    71    70    1
    63   124   123    1
    64   126   123    1
    65    59    60    1
    66    66    64   ar
    67    64    63    1
    68    54    53    2
    69    61    60    1
    70    95    93   ar
    71   123   122    1
    72   138   139    2
    73    60    63    1
    74    53    52    1
    75    50    48    1
    76    93    92    1
    77    93    94   ar
    78    92    91    1
    79    47    48    2
    80    47    46    1
    81   122   116   am
    82    48    49    1
    83    87    88    1
    84    46    45    1
    85    52    55    1
    86    52    51    1
    87    45    44    1
    88    91    88    1
    89   116   117    2
    90   116   115    1
    91    88    89    1
    92    55    56    1
    93    51    42   am
    94   163   161    1
    95   162   161    1
    96   141   142    1
    97   142   143    1
    98   107   104    1
    99    42    43    2
   100    42    41    1
   101   161   160    2
   102   115   118    1
   103   115   114    1
   104   152   150   ar
   105    44    41    1
   106    41    40    1
   107    89    90    2
   108   106   105    2
   109   118   119    1
   110    56    57    1
   111    56    58    1
   112   160   159    1
   113   143   144    2
   114   114   110   am
   115   111   110    2
   116   104   105    1
   117   104   103    1
   118   105   108   am
   119   159   158    1
   120   150   149    1
   121   150   151   ar
   122   110   109    1
   123    35    34    2
   124    40    34   am
   125   119   120    1
   126   149   146    1
   127   145   146    1
   128   103    98   am
   129   108   109    1
   130   109   112    1
   131   158   157    1
   132    34    33    1
   133   120   121    1
   134   146   147    1
   135   157   154    1
   136   153   147   am
   137   153   154    1
   138    98    97    1
   139    98    99    2
   140   102   100    1
   141   147   148    2
   142   112   113    1
   143    33    32    1
   144    33    36    1
   145   154   155    1
   146    97   100    1
   147    97    96    1
   148   100   101    1
   149    38    37   ar
   150    37    36    1
   151    37    39   ar
   152   155   156    2
