@<TRIPOS>MOLECULE
tmp/3mf1B00.pdb
 192 179 0 0 0
SMALL
GASTEIGER

@<TRIPOS>ATOM
      1  N        117.2320   22.5490    4.9140 N.3   112  ALA112     -0.1245
      2  CA       118.2590   23.3950    5.5500 C.3   112  ALA112      0.1562
      3  C        117.9330   24.8330    5.2090 C.2   112  ALA112      0.2260
      4  O        117.4790   25.0940    4.0960 O.2   112  ALA112     -0.2867
      5  CB       119.6470   23.0380    5.0500 C.3   112  ALA112      0.0290
      6  N        119.7690   27.6250    4.7370 N.3   114  CYS114     -0.1235
      7  CA       120.5890   28.4150    3.8030 C.3   114  CYS114      0.1677
      8  C        120.3540   28.2270    2.3050 C.2   114  CYS114      0.2270
      9  O        120.6320   29.1610    1.5650 O.2   114  CYS114     -0.2867
     10  CB       122.0650   28.2750    4.1480 C.3   114  CYS114      0.0956
     11  SG       122.7570   26.6670    3.7070 S.3   114  CYS114     -0.0801
     12  N        112.8670   17.3040    7.7080 N.3   142  ARG142     -0.1245
     13  CA       113.6510   16.1030    7.4320 C.3   142  ARG142      0.1563
     14  C        112.8030   14.9120    7.8140 C.2   142  ARG142      0.2260
     15  O        112.3390   14.8100    8.9540 O.2   142  ARG142     -0.2867
     16  CB       115.0150   16.1110    8.1350 C.3   142  ARG142      0.0307
     17  CG       116.0260   16.9750    7.3550 C.3   142  ARG142      0.0489
     18  CD       117.2860   17.1970    8.1300 C.3   142  ARG142      0.2205
     19  NE       117.9940   18.4040    7.6980 N.pl3 142  ARG142     -0.0865
     20  CZ       119.2290   18.7070    8.0810 C.cat 142  ARG142      0.5346
     21  NH1      119.8920   17.9030    8.9000 N.pl3 142  ARG142      0.1354
     22  NH2      119.8180   19.8070    7.6330 N.pl3 142  ARG142      0.1354
     23  N        112.6140   12.0880    9.1740 N.3   144  GLU144     -0.1196
     24  CA       113.2490   11.1690   10.1190 C.3   144  GLU144      0.1783
     25  C        112.4160   10.9730   11.3840 C.2   144  GLU144      0.2306
     26  O        112.7320   11.5310   12.4430 O.2   144  GLU144     -0.2863
     27  CB       114.7480   11.4660   10.3700 C.2   144  GLU144      0.0071
     28  CG       115.1190   12.9030   10.6780 C.2   144  GLU144      0.0834
     29  CD       116.6030   13.2260   10.6070 C.2   144  GLU144      0.3877
     30  OE1      116.9230   14.4020   10.3410 O.co2 144  GLU144     -0.2406
     31  OE2      117.4460   12.3350   10.8560 O.co2 144  GLU144     -0.2406
     32  N        115.0790   15.2000   20.7040 N.3   150  ASP150     -0.1225
     33  CA       116.1840   15.8660   20.0160 C.3   150  ASP150      0.1805
     34  C        116.3160   15.4200   18.5420 C.2   150  ASP150      0.2598
     35  O        117.2830   15.7810   17.8830 O.2   150  ASP150     -0.2718
     36  CB       117.4910   15.6650   20.7880 C.3   150  ASP150      0.1424
     37  CG       118.0310   14.2400   20.7620 C.2   150  ASP150      0.3668
     38  OD1      117.2230   13.2910   20.5810 O.co2 150  ASP150     -0.2456
     39  OD2      119.2520   14.0760   20.9100 O.co2 150  ASP150     -0.2456
     40  N        115.3310   14.6780   18.0290 N.am  151  ARG151     -0.1966
     41  CA       115.2900   14.2730   16.6280 C.3   151  ARG151      0.1729
     42  C        113.8680   14.5100   16.1440 C.2   151  ARG151      0.2616
     43  O        112.9680   13.6890   16.3630 O.2   151  ARG151     -0.2715
     44  CB       115.7410   12.8190   16.4060 C.3   151  ARG151      0.0348
     45  CG       115.6410   12.3910   14.9290 C.3   151  ARG151      0.0492
     46  CD       116.9850   12.1700   14.2910 C.3   151  ARG151      0.2205
     47  NE       117.5290   10.8570   14.6430 N.pl3 151  ARG151     -0.0865
     48  CZ       117.7210    9.8640   13.7800 C.cat 151  ARG151      0.5346
     49  NH1      117.4310   10.0250   12.4930 N.pl3 151  ARG151      0.1354
     50  NH2      118.2170    8.7050   14.1950 N.pl3 151  ARG151      0.1354
     51  N        113.6670   15.6620   15.5050 N.am  152  LEU152     -0.1977
     52  CA       112.3590   16.0690   15.0200 C.3   152  LEU152      0.1596
     53  C        112.2390   15.9500   13.5070 C.2   152  LEU152      0.2287
     54  O        113.2450   15.8280   12.8130 O.2   152  LEU152     -0.2864
     55  CB       112.1050   17.5220   15.4400 C.3   152  LEU152      0.0297
     56  CG       112.2540   17.8480   16.9390 C.3   152  LEU152      0.0022
     57  CD1      112.0290   19.3340   17.1770 C.3   152  LEU152      0.0001
     58  CD2      111.2890   17.0110   17.7780 C.3   152  LEU152      0.0001
     59  N        111.6540   21.3270   12.3830 N.3   155  PHE155     -0.1241
     60  CA       112.4870   22.0150   13.3760 C.3   155  PHE155      0.1605
     61  C        113.0590   23.3020   12.7950 C.2   155  PHE155      0.2264
     62  O        113.2370   23.4100   11.5780 O.2   155  PHE155     -0.2867
     63  CB       113.6130   21.0640   13.8560 C.3   155  PHE155      0.0534
     64  CG       114.5540   20.6410   12.7450 C.ar  155  PHE155     -0.0203
     65  CD1      114.2440   19.5640   11.9110 C.ar  155  PHE155     -0.0042
     66  CD2      115.7210   21.3580   12.4880 C.ar  155  PHE155     -0.0042
     67  CE1      115.0810   19.2210   10.8450 C.ar  155  PHE155     -0.0003
     68  CE2      116.5640   20.9970   11.4420 C.ar  155  PHE155     -0.0003
     69  CZ       116.2360   19.9340   10.6230 C.ar  155  PHE155     -0.0000
     70  N        115.8510   26.1360   12.0810 N.3   157  MET157     -0.1245
     71  CA       117.2700   26.2610   11.8510 C.3   157  MET157      0.1570
     72  C        117.5710   27.7180   11.6490 C.2   157  MET157      0.2261
     73  O        116.8430   28.4000   10.9390 O.2   157  MET157     -0.2867
     74  CB       117.7160   25.4380   10.6190 C.3   157  MET157      0.0387
     75  CG       119.2380   25.3480   10.4820 C.3   157  MET157      0.0595
     76  SD       119.7720   24.3680    9.0520 S.3   157  MET157     -0.1393
     77  CE       119.0820   22.7560    9.4740 C.3   157  MET157      0.0692
     78  N        120.9560   30.3550   10.7220 N.3   159  GLU159     -0.1245
     79  CA       122.3290   30.2830   10.2370 C.3   159  GLU159      0.1567
     80  C        122.9440   31.6060    9.8780 C.2   159  GLU159      0.2260
     81  O        122.2430   32.5220    9.4450 O.2   159  GLU159     -0.2867
     82  CB       122.4530   29.3800    8.9810 C.3   159  GLU159      0.0388
     83  CG       121.5730   28.1470    8.9150 C.3   159  GLU159      0.1160
     84  CD       121.9050   27.2550    7.7430 C.2   159  GLU159      0.3649
     85  OE1      123.0730   27.2740    7.2930 O.co2 159  GLU159     -0.2457
     86  OE2      120.9840   26.5730    7.2420 O.co2 159  GLU159     -0.2457
     87  N        133.1740   19.5510    7.9800 N.3   198  LYS198     -0.1245
     88  CA       132.0370   19.6390    8.8900 C.3   198  LYS198      0.1561
     89  C        132.4330   19.4310   10.3390 C.2   198  LYS198      0.2260
     90  O        132.9790   18.3860   10.7080 O.2   198  LYS198     -0.2867
     91  CB       130.8430   18.7510    8.4930 C.3   198  LYS198      0.0271
     92  CG       129.5920   19.0730    9.3280 C.3   198  LYS198      0.0035
     93  CD       128.4010   18.1790    9.0310 C.3   198  LYS198      0.0206
     94  CE       127.2130   18.5840    9.8680 C.3   198  LYS198      0.1093
     95  NZ       125.9710   17.8950    9.4420 N.3   198  LYS198     -0.1314
     96  N        130.8470   19.9370   14.4180 N.3   200  GLU200     -0.1245
     97  CA       129.6110   19.9890   15.1950 C.3   200  GLU200      0.1567
     98  C        129.9080   20.3190   16.6420 C.2   200  GLU200      0.2260
     99  O        130.9350   19.8920   17.1720 O.2   200  GLU200     -0.2867
    100  CB       128.8720   18.6550   15.1560 C.3   200  GLU200      0.0388
    101  CG       128.2380   18.3480   13.8120 C.3   200  GLU200      0.1160
    102  CD       127.6100   16.9750   13.7000 C.2   200  GLU200      0.3649
    103  OE1      128.1030   16.0280   14.3570 O.co2 200  GLU200     -0.2457
    104  OE2      126.6050   16.8510   12.9660 O.co2 200  GLU200     -0.2457
    105  N        124.3300   16.8300   18.2840 N.3   213  ALA213     -0.1231
    106  CA       124.8910   17.9410   17.5050 C.3   213  ALA213      0.1694
    107  C        123.8620   19.0820   17.4990 C.2   213  ALA213      0.2592
    108  O        122.7970   18.9450   16.9040 O.2   213  ALA213     -0.2718
    109  CB       125.1940   17.4830   16.0850 C.3   213  ALA213      0.0304
    110  N        124.1610   20.1690   18.2300 N.am  214  CYS214     -0.1956
    111  CA       123.2530   21.3080   18.3930 C.3   214  CYS214      0.1843
    112  C        123.5960   22.4960   17.5150 C.2   214  CYS214      0.2625
    113  O        122.7830   23.4190   17.3750 O.2   214  CYS214     -0.2714
    114  CB       123.1270   21.6920   19.8640 C.3   214  CYS214      0.0997
    115  SG       122.4040   20.3890   20.8860 S.3   214  CYS214     -0.0797
    116  N        124.7910   22.4650   16.9150 N.am  215  MET215     -0.1963
    117  CA       125.2780   23.4660   15.9620 C.3   215  MET215      0.1736
    118  C        126.1820   22.7550   14.9720 C.2   215  MET215      0.2617
    119  O        126.7630   21.7210   15.3110 O.2   215  MET215     -0.2715
    120  CB       126.1030   24.5810   16.6320 C.3   215  MET215      0.0427
    121  CG       125.4880   25.2030   17.8650 C.3   215  MET215      0.0599
    122  SD       126.5250   26.5610   18.3990 S.3   215  MET215     -0.1393
    123  CE       125.9180   26.8010   20.0370 C.3   215  MET215      0.0692
    124  N        126.3350   23.3190   13.7690 N.am  216  SER216     -0.1950
    125  CA       127.2320   22.7660   12.7500 C.3   216  SER216      0.1924
    126  C        128.0140   23.8900   12.1070 C.2   216  SER216      0.2314
    127  O        127.5430   25.0200   12.0740 O.2   216  SER216     -0.2863
    128  CB       126.4730   21.9330   11.7150 C.3   216  SER216      0.2116
    129  OG       125.6710   22.7080   10.8360 O.3   216  SER216     -0.2180
    130  N        129.8850   24.2590    8.6080 N.3   218  ASN218     -0.1240
    131  CA       129.9810   23.6410    7.2940 C.3   218  ASN218      0.1653
    132  C        130.7500   24.4290    6.2730 C.2   218  ASN218      0.2266
    133  O        130.6080   25.6500    6.1760 O.2   218  ASN218     -0.2867
    134  CB       128.5860   23.3620    6.7580 C.3   218  ASN218      0.1155
    135  CG       127.6780   22.8320    7.8270 C.2   218  ASN218      0.2627
    136  OD1      127.7720   21.6630    8.2110 O.2   218  ASN218     -0.2716
    137  ND2      126.8490   23.7100    8.4100 N.am  218  ASN218     -0.0877
    138  N        131.3050   24.2180    2.1260 N.3   220  HIS220     -0.1241
    139  CA       130.7380   23.6110    0.9270 C.3   220  HIS220      0.1621
    140  C        131.6810   23.6430   -0.2910 C.2   220  HIS220      0.2264
    141  O        131.2880   23.1640   -1.3520 O.2   220  HIS220     -0.2867
    142  CB       129.4000   24.3000    0.5630 C.3   220  HIS220      0.0745
    143  CG       128.6110   24.8230    1.7330 C.ar  220  HIS220      0.0817
    144  ND1      128.3310   26.1730    1.8690 N.ar  220  HIS220     -0.2268
    145  CD2      128.0390   24.1540    2.7660 C.ar  220  HIS220      0.1154
    146  CE1      127.6280   26.2850    2.9810 C.ar  220  HIS220      0.1986
    147  NE2      127.4250   25.1020    3.5560 N.ar  220  HIS220     -0.2212
    148  N        128.7530   27.8990    6.1590 N.3   242  CYS242     -0.1235
    149  CA       127.6480   28.3170    7.0160 C.3   242  CYS242      0.1677
    150  C        127.8240   27.8050    8.4390 C.2   242  CYS242      0.2270
    151  O        128.3800   26.7230    8.6430 O.2   242  CYS242     -0.2867
    152  CB       126.2970   27.9070    6.4270 C.3   242  CYS242      0.0956
    153  SG       126.0430   26.1200    6.3080 S.3   242  CYS242     -0.0801
    154  N        125.3810   26.8620   11.4800 N.3   244  ALA244     -0.1231
    155  CA       123.9710   26.5630   11.7140 C.3   244  ALA244      0.1694
    156  C        123.6630   26.2420   13.1600 C.2   244  ALA244      0.2592
    157  O        124.3620   25.4430   13.7700 O.2   244  ALA244     -0.2718
    158  CB       123.5070   25.4200   10.8060 C.3   244  ALA244      0.0304
    159  N        122.5930   26.8590   13.7030 N.am  245  PHE245     -0.1962
    160  CA       122.1400   26.6510   15.0670 C.3   245  PHE245      0.1771
    161  C        120.8210   25.8980   15.0160 C.2   245  PHE245      0.2620
    162  O        119.8870   26.3520   14.3680 O.2   245  PHE245     -0.2715
    163  CB       121.9550   28.0000   15.7950 C.3   245  PHE245      0.0574
    164  CG       123.1510   28.9230   15.7560 C.ar  245  PHE245     -0.0200
    165  CD1      124.0870   28.9170   16.7810 C.ar  245  PHE245     -0.0042
    166  CD2      123.3180   29.8310   14.7130 C.ar  245  PHE245     -0.0042
    167  CE1      125.2050   29.7800   16.7380 C.ar  245  PHE245     -0.0003
    168  CE2      124.4300   30.6890   14.6680 C.ar  245  PHE245     -0.0003
    169  CZ       125.3790   30.6450   15.6630 C.ar  245  PHE245     -0.0000
    170  N        120.7770   24.7380   15.6610 N.am  246  GLY246     -0.1954
    171  CA       119.5830   23.9200   15.7770 C.3   246  GLY246      0.1869
    172  C        118.7800   24.4950   16.9230 C.2   246  GLY246      0.2309
    173  O        119.0530   24.1760   18.0760 O.2   246  GLY246     -0.2863
    174  N        115.6710   24.1620   18.0580 N.3   248  ASP248     -0.1225
    175  CA       114.9330   23.2010   18.8660 C.3   248  ASP248      0.1805
    176  C        115.8650   22.3260   19.6900 C.2   248  ASP248      0.2597
    177  O        115.5610   22.0440   20.8560 O.2   248  ASP248     -0.2718
    178  CB       113.9570   22.3900   17.9970 C.3   248  ASP248      0.1424
    179  CG       112.7320   23.2020   17.5780 C.2   248  ASP248      0.3668
    180  OD1      111.8770   23.4760   18.4390 O.co2 248  ASP248     -0.2456
    181  OD2      112.6600   23.6140   16.4040 O.co2 248  ASP248     -0.2456
    182  N        117.0390   21.9490   19.1270 N.am  249  ARG249     -0.1979
    183  CA       118.0110   21.1480   19.8850 C.3   249  ARG249      0.1597
    184  C        118.6420   21.9570   21.0030 C.2   249  ARG249      0.2287
    185  O        118.8440   21.4190   22.0860 O.2   249  ARG249     -0.2864
    186  CB       119.0750   20.5260   18.9770 C.3   249  ARG249      0.0334
    187  CG       118.6090   19.2070   18.4060 C.3   249  ARG249      0.0492
    188  CD       119.6340   18.6010   17.4750 C.3   249  ARG249      0.2205
    189  NE       119.1540   17.3160   16.9640 N.pl3 249  ARG249     -0.0865
    190  CZ       119.8370   16.5300   16.1410 C.cat 249  ARG249      0.5346
    191  NH1      121.0500   16.8780   15.7360 N.pl3 249  ARG249      0.1354
    192  NH2      119.3060   15.3980   15.7050 N.pl3 249  ARG249      0.1354
@<TRIPOS>BOND
     1   141   140    2
     2   140   139    1
     3   142   139    1
     4   142   143    1
     5   139   138    1
     6     9     8    2
     7   143   144   ar
     8   143   145   ar
     9   144   146   ar
    10     8     7    1
    11   145   147   ar
    12   146   147   ar
    13    11    10    1
    14     7    10    1
    15     7     6    1
    16     4     3    2
    17     1     2    1
    18     5     2    1
    19     3     2    1
    20   148   149    1
    21   133   132    2
    22   132   131    1
    23   153   152    1
    24   152   149    1
    25   134   131    1
    26   134   135    1
    27   149   150    1
    28    86    84   ar
    29    85    84   ar
    30   131   130    1
    31    17    18    1
    32    17    16    1
    33    13    12    1
    34    13    14    1
    35    13    16    1
    36    22    20    1
    37    19    20    2
    38    19    18    1
    39    84    83    1
    40    14    15    2
    41   135   136    2
    42   135   137   am
    43    87    88    1
    44    20    21    1
    45   150   151    2
    46    91    88    1
    47    91    92    1
    48    88    89    1
    49    83    82    1
    50    82    79    1
    51    93    92    1
    52    93    94    1
    53    76    77    1
    54    76    75    1
    55    23    24    1
    56    95    94    1
    57    81    80    2
    58    80    79    1
    59    24    27    1
    60    24    25    1
    61    79    78    1
    62    89    90    2
    63    30    29   ar
    64    27    28    2
    65    75    74    1
    66    29    28    1
    67    29    31   ar
    68    74    71    1
    69    69    67   ar
    70    69    68   ar
    71   158   155    1
    72   129   128    1
    73    67    65   ar
    74    73    72    2
    75    25    26    2
    76    68    66   ar
    77   154   155    1
    78    62    61    2
    79    72    71    1
    80   155   156    1
    81   128   125    1
    82    71    70    1
    83    65    64   ar
    84   127   126    2
    85   126   125    1
    86    59    60    1
    87    66    64   ar
    88    49    48    1
    89    64    63    1
    90   125   124    1
    91    61    60    1
    92    54    53    2
    93   104   102   ar
    94   156   159   am
    95   156   157    2
    96    60    63    1
    97    53    52    1
    98   102   101    1
    99   102   103   ar
   100   159   160    1
   101   124   118   am
   102    48    50    1
   103    48    47    2
   104   101   100    1
   105    46    47    1
   106    46    45    1
   107   162   161    2
   108    96    97    1
   109   168   166   ar
   110   168   169   ar
   111   166   164   ar
   112    45    44    1
   113   118   119    2
   114   118   117    1
   115   161   160    1
   116   161   170   am
   117    52    55    1
   118    52    51    1
   119   160   163    1
   120   100    97    1
   121    97    98    1
   122    55    56    1
   123    51    42   am
   124   170   171    1
   125   169   167   ar
   126   192   190    1
   127   191   190    1
   128   164   163    1
   129   164   165   ar
   130   171   172    1
   131   117   120    1
   132   117   116    1
   133   109   106    1
   134   190   189    2
   135    42    43    2
   136    42    41    1
   137   181   179   ar
   138    44    41    1
   139    41    40    1
   140   120   121    1
   141    98    99    2
   142   167   165   ar
   143   108   107    2
   144   116   112   am
   145   172   173    2
   146    56    57    1
   147    56    58    1
   148   189   188    1
   149   113   112    2
   150   188   187    1
   151   107   106    1
   152   107   110   am
   153   106   105    1
   154   112   111    1
   155   179   178    1
   156   179   180   ar
   157   121   122    1
   158    35    34    2
   159   178   175    1
   160    40    34   am
   161   174   175    1
   162   110   111    1
   163   111   114    1
   164   122   123    1
   165   187   186    1
   166    34    33    1
   167   175   176    1
   168   186   183    1
   169   182   176   am
   170   182   183    1
   171   176   177    2
   172   114   115    1
   173   183   184    1
   174    33    32    1
   175    33    36    1
   176    38    37   ar
   177    37    36    1
   178    37    39   ar
   179   184   185    2
