@<TRIPOS>MOLECULE
tmp/3mf2A00.pdb
 176 166 0 0 0
SMALL
GASTEIGER

@<TRIPOS>ATOM
      1  N         95.2590   25.7800    8.0590 N.3   113  ALA113     -0.1245
      2  CA        94.8130   26.7720    9.0610 C.3   113  ALA113      0.1562
      3  C         95.4170   26.3900   10.3710 C.2   113  ALA113      0.2260
      4  O         95.6370   25.1970   10.6130 O.2   113  ALA113     -0.2867
      5  CB        93.2910   26.8220    9.1710 C.3   113  ALA113      0.0290
      6  N         98.4370   27.0850    1.5320 N.3   143  ARG143     -0.1245
      7  CA        97.2710   26.9800    0.6660 C.3   143  ARG143      0.1563
      8  C         97.7460   27.0080   -0.7560 C.2   143  ARG143      0.2260
      9  O         98.4990   27.8990   -1.1370 O.2   143  ARG143     -0.2867
     10  CB        96.2080   28.0540    0.9510 C.3   143  ARG143      0.0307
     11  CG        95.3800   27.6670    2.1640 C.3   143  ARG143      0.0489
     12  CD        94.3800   28.7160    2.5390 C.3   143  ARG143      0.2205
     13  NE        93.9450   28.5190    3.9140 N.pl3 143  ARG143     -0.0865
     14  CZ        93.0820   29.3140    4.5280 C.cat 143  ARG143      0.5346
     15  NH1       92.5590   30.3600    3.8910 N.pl3 143  ARG143      0.1354
     16  NH2       92.7390   29.0790    5.7830 N.pl3 143  ARG143      0.1354
     17  N         97.3700   28.0260   -3.7500 N.3   145  GLU145     -0.1196
     18  CA        96.7610   29.0450   -4.6140 C.3   145  GLU145      0.1783
     19  C         97.8560   29.9890   -5.1290 C.2   145  GLU145      0.2306
     20  O         98.0640   31.0660   -4.5720 O.2   145  GLU145     -0.2863
     21  CB        95.5550   29.7600   -3.9440 C.2   145  GLU145      0.0071
     22  CG        95.7660   30.3230   -2.5320 C.2   145  GLU145      0.0834
     23  CD        94.4930   30.6410   -1.7470 C.2   145  GLU145      0.3877
     24  OE1       93.4530   30.9490   -2.3740 O.co2 145  GLU145     -0.2406
     25  OE2       94.5420   30.6160   -0.4980 O.co2 145  GLU145     -0.2406
     26  N         99.2370   39.9330   -1.4570 N.3   151  ASP151     -0.1225
     27  CA        98.2620   39.5820   -0.4160 C.3   151  ASP151      0.1805
     28  C         97.6370   38.1880   -0.6710 C.2   151  ASP151      0.2598
     29  O         96.6630   37.8270   -0.0270 O.2   151  ASP151     -0.2718
     30  CB        97.1880   40.6890   -0.3070 C.3   151  ASP151      0.1424
     31  CG        96.2820   40.8200   -1.5220 C.2   151  ASP151      0.3668
     32  OD1       96.7140   40.4450   -2.6430 O.co2 151  ASP151     -0.2456
     33  OD2       95.1760   41.3260   -1.3670 O.co2 151  ASP151     -0.2456
     34  N         98.1690   37.4230   -1.6190 N.am  152  ARG152     -0.1966
     35  CA        97.6470   36.0820   -1.9060 C.3   152  ARG152      0.1729
     36  C         98.8680   35.1660   -1.9920 C.2   152  ARG152      0.2616
     37  O         99.4580   34.9980   -3.0490 O.2   152  ARG152     -0.2715
     38  CB        96.7680   36.0480   -3.1850 C.3   152  ARG152      0.0348
     39  CG        96.0600   34.7170   -3.4460 C.3   152  ARG152      0.0492
     40  CD        94.7210   34.6240   -2.7410 C.3   152  ARG152      0.2205
     41  NE        93.8710   33.5570   -3.2600 N.pl3 152  ARG152     -0.0865
     42  CZ        93.0550   33.6830   -4.3040 C.cat 152  ARG152      0.5346
     43  NH1       92.9890   34.8280   -4.9700 N.pl3 152  ARG152      0.1354
     44  NH2       92.3170   32.6560   -4.7050 N.pl3 152  ARG152      0.1354
     45  N         99.2610   34.6170   -0.8470 N.am  153  LEU153     -0.1977
     46  CA       100.4450   33.7810   -0.7330 C.3   153  LEU153      0.1596
     47  C        100.0950   32.3370   -0.6410 C.2   153  LEU153      0.2287
     48  O         98.9690   32.0040   -0.2620 O.2   153  LEU153     -0.2864
     49  CB       101.1780   34.1770    0.5660 C.3   153  LEU153      0.0297
     50  CG       101.5390   35.6700    0.7040 C.3   153  LEU153      0.0022
     51  CD1      102.2280   35.9370    2.0270 C.3   153  LEU153      0.0001
     52  CD2      102.4290   36.1450   -0.4690 C.3   153  LEU153      0.0001
     53  N        101.9950   31.3010    4.4530 N.3   156  PHE156     -0.1241
     54  CA       101.7520   32.5400    5.2020 C.3   156  PHE156      0.1605
     55  C        101.5170   32.1830    6.6690 C.2   156  PHE156      0.2264
     56  O        101.1780   31.0350    6.9700 O.2   156  PHE156     -0.2867
     57  CB       100.5030   33.2680    4.5800 C.3   156  PHE156      0.0534
     58  CG        99.2590   32.4130    4.5340 C.ar  156  PHE156     -0.0203
     59  CD1       98.3090   32.4940    5.5410 C.ar  156  PHE156     -0.0042
     60  CD2       99.0500   31.5020    3.4930 C.ar  156  PHE156     -0.0042
     61  CE1       97.1830   31.6720    5.5300 C.ar  156  PHE156     -0.0003
     62  CE2       97.9140   30.6800    3.4780 C.ar  156  PHE156     -0.0003
     63  CZ        96.9760   30.7830    4.4900 C.ar  156  PHE156     -0.0000
     64  N         99.5360   32.3580   10.2110 N.3   158  MET158     -0.1245
     65  CA        98.2100   32.5290   10.7630 C.3   158  MET158      0.1570
     66  C         98.3250   32.5290   12.2690 C.2   158  MET158      0.2261
     67  O         99.0940   31.7510   12.8160 O.2   158  MET158     -0.2867
     68  CB        97.2730   31.3810   10.3250 C.3   158  MET158      0.0387
     69  CG        95.7650   31.7160   10.5260 C.3   158  MET158      0.0595
     70  SD        94.5870   30.4350    9.9210 S.3   158  MET158     -0.1393
     71  CE        94.8210   30.5730    8.1280 C.3   158  MET158      0.0692
     72  N         83.7800   30.9660    3.2590 N.3   199  ASP199     -0.1225
     73  CA        85.0100   30.2630    2.9280 C.3   199  ASP199      0.1790
     74  C         85.0260   29.9580    1.4150 C.2   199  ASP199      0.2439
     75  O         83.9550   29.8660    0.8140 O.2   199  ASP199     -0.2733
     76  CB        85.0950   28.9890    3.7650 C.3   199  ASP199      0.1423
     77  CG        85.4060   29.2720    5.2080 C.2   199  ASP199      0.3668
     78  OD1       86.3420   30.0620    5.4740 O.co2 199  ASP199     -0.2456
     79  OD2       84.7500   28.6790    6.0780 O.co2 199  ASP199     -0.2456
     80  N         86.1930   29.8420    0.7460 N.am  200  PRO200     -0.2729
     81  CA        86.1560   29.5680   -0.6970 C.3   200  PRO200      0.1401
     82  C         85.9660   28.0610   -1.0100 C.2   200  PRO200      0.2269
     83  O         86.8360   27.4470   -1.6170 O.2   200  PRO200     -0.2865
     84  CB        87.4980   30.1380   -1.1870 C.3   200  PRO200      0.0296
     85  CG        88.4230   29.9470   -0.0330 C.3   200  PRO200      0.0237
     86  CD        87.5880   29.9330    1.2390 C.3   200  PRO200      0.0939
     87  N         80.5100   33.2780    9.3460 N.3   219  LYS219     -0.1245
     88  CA        81.7970   33.8800    9.0520 C.3   219  LYS219      0.1561
     89  C         81.6950   35.3740    8.7150 C.2   219  LYS219      0.2260
     90  O         80.9850   35.7710    7.7780 O.2   219  LYS219     -0.2867
     91  CB        82.4840   33.1390    7.8760 C.3   219  LYS219      0.0271
     92  CG        83.9300   33.5920    7.6240 C.3   219  LYS219      0.0035
     93  CD        84.4790   33.0620    6.2650 C.3   219  LYS219      0.0206
     94  CE        85.9830   33.1790    6.1650 C.3   219  LYS219      0.1093
     95  NZ        86.6340   32.3660    7.2430 N.3   219  LYS219     -0.1314
     96  N         84.4850   38.8160    8.0180 N.3   221  GLU221     -0.1245
     97  CA        85.8580   39.1810    7.7100 C.3   221  GLU221      0.1567
     98  C         86.0660   40.6480    7.9430 C.2   221  GLU221      0.2260
     99  O         85.1390   41.4410    7.7420 O.2   221  GLU221     -0.2867
    100  CB        86.2130   38.8450    6.2640 C.3   221  GLU221      0.0388
    101  CG        86.4910   37.3710    6.0420 C.3   221  GLU221      0.1160
    102  CD        86.5490   36.9710    4.5740 C.2   221  GLU221      0.3649
    103  OE1       85.9720   37.6870    3.7240 O.co2 221  GLU221     -0.2457
    104  OE2       87.2200   35.9630    4.2660 O.co2 221  GLU221     -0.2457
    105  N         90.6360   40.3450    2.9590 N.3   234  ALA234     -0.1231
    106  CA        90.2830   39.8350    4.2790 C.3   234  ALA234      0.1694
    107  C         91.5810   39.6350    5.0690 C.2   234  ALA234      0.2592
    108  O         92.4070   38.8030    4.6930 O.2   234  ALA234     -0.2718
    109  CB        89.5300   38.5170    4.1420 C.3   234  ALA234      0.0304
    110  N         91.7920   40.4390    6.1220 N.am  235  CYS235     -0.1956
    111  CA        93.0100   40.3640    6.9350 C.3   235  CYS235      0.1843
    112  C         92.7680   39.6950    8.2550 C.2   235  CYS235      0.2625
    113  O         93.7110   39.3520    8.9520 O.2   235  CYS235     -0.2714
    114  CB        93.6370   41.7420    7.0860 C.3   235  CYS235      0.0997
    115  SG        94.1660   42.4440    5.5100 S.3   235  CYS235     -0.0797
    116  N         91.4790   39.5020    8.5880 N.am  236  MET236     -0.1963
    117  CA        91.0390   38.8140    9.7870 C.3   236  MET236      0.1736
    118  C         89.7290   38.1450    9.4520 C.2   236  MET236      0.2617
    119  O         89.0000   38.6190    8.5860 O.2   236  MET236     -0.2715
    120  CB        90.8360   39.7440   11.0040 C.3   236  MET236      0.0427
    121  CG        91.9590   40.6870   11.2890 C.3   236  MET236      0.0599
    122  SD        91.5420   41.5690   12.8050 S.3   236  MET236     -0.1393
    123  CE        92.8100   42.9530   12.7390 C.3   236  MET236      0.0692
    124  N         89.4460   37.0120   10.1160 N.am  237  SER237     -0.1950
    125  CA        88.1750   36.3340    9.9630 C.3   237  SER237      0.1924
    126  C         87.6520   35.9790   11.3400 C.2   237  SER237      0.2314
    127  O         88.4500   35.7770   12.2620 O.2   237  SER237     -0.2863
    128  CB        88.2770   35.1180    9.0370 C.3   237  SER237      0.2116
    129  OG        88.9020   33.9880    9.6240 O.3   237  SER237     -0.2180
    130  N         84.9940   33.2850   12.7360 N.3   239  ASN239     -0.1240
    131  CA        84.3650   32.0350   12.3150 C.3   239  ASN239      0.1653
    132  C         83.6120   31.3260   13.4200 C.2   239  ASN239      0.2266
    133  O         84.1470   31.1170   14.5040 O.2   239  ASN239     -0.2867
    134  CB        85.4730   31.0780   11.7750 C.3   239  ASN239      0.1155
    135  CG        86.4530   31.7820   10.8970 C.2   239  ASN239      0.2627
    136  OD1       86.0790   32.2590    9.8430 O.2   239  ASN239     -0.2716
    137  ND2       87.6970   31.9920   11.3740 N.am  239  ASN239     -0.0877
    138  N         90.7260   34.6450   13.5100 N.3   265  ALA265     -0.1231
    139  CA        91.9610   34.3770   12.7770 C.3   265  ALA265      0.1694
    140  C         92.5880   35.6560   12.2740 C.2   265  ALA265      0.2592
    141  O         91.9040   36.4680   11.6780 O.2   265  ALA265     -0.2718
    142  CB        91.6890   33.4180   11.6200 C.3   265  ALA265      0.0304
    143  N         93.8910   35.8350   12.5250 N.am  266  PHE266     -0.1962
    144  CA        94.6460   37.0010   12.0780 C.3   266  PHE266      0.1771
    145  C         95.6070   36.5340   10.9870 C.2   266  PHE266      0.2620
    146  O         96.4380   35.6690   11.2470 O.2   266  PHE266     -0.2715
    147  CB        95.4430   37.6010   13.2540 C.3   266  PHE266      0.0574
    148  CG        94.6290   38.0310   14.4420 C.ar  266  PHE266     -0.0200
    149  CD1       94.1760   39.3380   14.5570 C.ar  266  PHE266     -0.0042
    150  CD2       94.3290   37.1320   15.4670 C.ar  266  PHE266     -0.0042
    151  CE1       93.4000   39.7420   15.6740 C.ar  266  PHE266     -0.0003
    152  CE2       93.5540   37.5320   16.5750 C.ar  266  PHE266     -0.0003
    153  CZ        93.0870   38.8320   16.6640 C.ar  266  PHE266     -0.0000
    154  N         95.4750   37.0820    9.7800 N.am  267  GLY267     -0.1954
    155  CA        96.4160   36.7950    8.6990 C.3   267  GLY267      0.1869
    156  C         97.6210   37.7010    8.9100 C.2   267  GLY267      0.2309
    157  O         97.5610   38.8880    8.5920 O.2   267  GLY267     -0.2863
    158  N        100.7140   37.9050    7.5920 N.3   269  ASP269     -0.1225
    159  CA       101.2950   38.4300    6.3620 C.3   269  ASP269      0.1805
    160  C        100.4190   39.4550    5.6860 C.2   269  ASP269      0.2597
    161  O        100.9470   40.4450    5.1940 O.2   269  ASP269     -0.2718
    162  CB       101.7240   37.3010    5.4040 C.3   269  ASP269      0.1424
    163  CG       102.9540   36.5670    5.9410 C.2   269  ASP269      0.3668
    164  OD1      104.0370   37.2010    6.0320 O.co2 269  ASP269     -0.2456
    165  OD2      102.8070   35.4240    6.3930 O.co2 269  ASP269     -0.2456
    166  N         99.0840   39.2630    5.6920 N.am  270  ARG270     -0.1979
    167  CA        98.1650   40.2580    5.1150 C.3   270  ARG270      0.1597
    168  C         98.1530   41.5300    5.9470 C.2   270  ARG270      0.2287
    169  O         98.1760   42.6150    5.3770 O.2   270  ARG270     -0.2864
    170  CB        96.7500   39.6950    4.9670 C.3   270  ARG270      0.0334
    171  CG        96.6580   38.8440    3.6990 C.3   270  ARG270      0.0492
    172  CD        95.3040   38.2070    3.5430 C.3   270  ARG270      0.2205
    173  NE        95.1970   37.6160    2.2150 N.pl3 270  ARG270     -0.0865
    174  CZ        94.1080   37.0490    1.7080 C.cat 270  ARG270      0.5346
    175  NH1       92.9880   36.9900    2.4170 N.pl3 270  ARG270      0.1354
    176  NH2       94.1310   36.5380    0.4920 N.pl3 270  ARG270      0.1354
@<TRIPOS>BOND
     1    19    18    1
     2    19    20    2
     3    43    42    1
     4    44    42    1
     5    18    21    1
     6    18    17    1
     7    42    41    2
     8    21    22    2
     9    39    38    1
    10    39    40    1
    11    41    40    1
    12    38    35    1
    13    37    36    2
    14    32    31   ar
    15    22    23    1
    16    24    23   ar
    17    36    35    1
    18    36    45   am
    19    35    34    1
    20    23    25   ar
    21    34    28   am
    22    83    82    2
    23    31    33   ar
    24    31    30    1
    25    26    27    1
    26    84    81    1
    27    84    85    1
    28     9     8    2
    29    82    81    1
    30    45    46    1
    31     8     7    1
    32    46    47    1
    33    46    49    1
    34    81    80    1
    35    28    27    1
    36    28    29    2
    37    47    48    2
    38    52    50    1
    39    27    30    1
    40    85    86    1
    41   176   174    1
    42    49    50    1
    43     7    10    1
    44     7     6    1
    45    50    51    1
    46    80    86    1
    47    80    74   am
    48    75    74    2
    49    10    11    1
    50    74    73    1
    51   174   173    2
    52   174   175    1
    53    11    12    1
    54   173   172    1
    55    12    13    1
    56    73    72    1
    57    73    76    1
    58   105   106    1
    59    62    60   ar
    60    62    63   ar
    61    60    58   ar
    62   172   171    1
    63   171   170    1
    64   103   102   ar
    65    76    77    1
    66    15    14    1
    67    13    14    2
    68   109   106    1
    69   104   102   ar
    70   106   107    1
    71    53    54    1
    72    63    61   ar
    73    14    16    1
    74    58    57    1
    75    58    59   ar
    76   102   101    1
    77    57    54    1
    78   108   107    2
    79   170   167    1
    80   107   110   am
    81   167   166    1
    82   167   168    1
    83   161   160    2
    84    54    55    1
    85    77    78   ar
    86    77    79   ar
    87   169   168    2
    88   162   163    1
    89   162   159    1
    90   115   114    1
    91    61    59   ar
    92   160   166   am
    93   160   159    1
    94   163   164   ar
    95   163   165   ar
    96   101   100    1
    97   110   111    1
    98    94    93    1
    99    94    95    1
   100   100    97    1
   101    93    92    1
   102   159   158    1
   103    55    56    2
   104   111   114    1
   105   111   112    1
   106    92    91    1
   107    97    98    1
   108    97    96    1
   109    99    98    2
   110    90    89    2
   111    91    88    1
   112     1     2    1
   113    71    70    1
   114   112   116   am
   115   112   113    2
   116   119   118    2
   117   116   117    1
   118   157   156    2
   119   155   156    1
   120   155   154    1
   121    89    88    1
   122   128   129    1
   123   128   125    1
   124    88    87    1
   125     2     5    1
   126     2     3    1
   127   118   117    1
   128   118   124   am
   129   154   145   am
   130   117   120    1
   131   136   135    2
   132    70    69    1
   133   125   124    1
   134   125   126    1
   135    64    65    1
   136    68    69    1
   137    68    65    1
   138     3     4    2
   139    65    66    1
   140   135   137   am
   141   135   134    1
   142   145   146    2
   143   145   144    1
   144   120   121    1
   145   121   122    1
   146   126   127    2
   147   142   139    1
   148   141   140    2
   149   134   131    1
   150   144   143    1
   151   144   147    1
   152    66    67    2
   153   140   143   am
   154   140   139    1
   155   131   130    1
   156   131   132    1
   157   123   122    1
   158   139   138    1
   159   147   148    1
   160   132   133    2
   161   148   149   ar
   162   148   150   ar
   163   149   151   ar
   164   150   152   ar
   165   151   153   ar
   166   152   153   ar
