@<TRIPOS>MOLECULE
tmp/3mf5B00.pdb
 133 127 0 0 0
SMALL
GASTEIGER

@<TRIPOS>ATOM
      1  N        120.0180   67.8260   26.4850 N.3   414  LEU414     -0.1245
      2  CA       119.2330   68.3330   27.6110 C.3   414  LEU414      0.1561
      3  C        117.7340   67.9840   27.4050 C.2   414  LEU414      0.2260
      4  O        117.0990   67.5030   28.3220 O.2   414  LEU414     -0.2867
      5  CB       119.4280   69.8700   27.7050 C.3   414  LEU414      0.0270
      6  CG       118.5450   70.6600   28.6710 C.3   414  LEU414      0.0019
      7  CD1      118.8770   70.3330   30.1100 C.3   414  LEU414      0.0001
      8  CD2      118.7040   72.1560   28.4230 C.3   414  LEU414      0.0001
      9  N        116.7930   63.9010   27.4080 N.3   417  ARG417     -0.1231
     10  CA       116.9140   63.4070   28.7770 C.3   417  ARG417      0.1694
     11  C        115.8290   63.9680   29.6840 C.2   417  ARG417      0.2591
     12  O        115.1870   63.2160   30.4040 O.2   417  ARG417     -0.2718
     13  CB       118.2970   63.8170   29.3420 C.3   417  ARG417      0.0321
     14  CG       119.4370   63.1030   28.6560 C.3   417  ARG417      0.0489
     15  CD       120.7850   63.6980   29.0340 C.3   417  ARG417      0.2205
     16  NE       121.2030   63.2650   30.3650 N.pl3 417  ARG417     -0.0865
     17  CZ       122.0140   63.9500   31.1570 C.cat 417  ARG417      0.5346
     18  NH1      122.5100   65.1210   30.7640 N.pl3 417  ARG417      0.1354
     19  NH2      122.3510   63.4690   32.3360 N.pl3 417  ARG417      0.1354
     20  N        115.6760   65.2990   29.7110 N.am  418  MET418     -0.1979
     21  CA       114.7440   65.9470   30.6550 C.3   418  MET418      0.1605
     22  C        113.3020   65.6360   30.3530 C.2   418  MET418      0.2287
     23  O        112.5210   65.3930   31.2730 O.2   418  MET418     -0.2864
     24  CB       114.9710   67.4860   30.6600 C.3   418  MET418      0.0413
     25  CG       114.0940   68.2500   31.6470 C.3   418  MET418      0.0598
     26  SD       114.3670   70.0580   31.6300 S.3   418  MET418     -0.1393
     27  CE       113.7170   70.5290   30.0630 C.3   418  MET418      0.0692
     28  N        126.0830   64.4560   31.5220 N.3   469  LEU469     -0.1231
     29  CA       126.2400   65.8030   30.9570 C.3   469  LEU469      0.1693
     30  C        125.4460   66.8650   31.7080 C.2   469  LEU469      0.2592
     31  O        124.3520   66.5890   32.1960 O.2   469  LEU469     -0.2718
     32  CB       125.9270   65.8630   29.4610 C.3   469  LEU469      0.0284
     33  CG       126.8330   65.0730   28.4900 C.3   469  LEU469      0.0019
     34  CD1      126.4800   65.4070   27.0630 C.3   469  LEU469      0.0001
     35  CD2      128.3290   65.3960   28.7080 C.3   469  LEU469      0.0001
     36  N        126.0220   68.0680   31.8090 N.am  470  HIS470     -0.1962
     37  CA       125.4770   69.2570   32.4780 C.3   470  HIS470      0.1787
     38  C        126.3080   70.4520   31.9840 C.2   470  HIS470      0.2621
     39  O        127.2160   70.2580   31.1580 O.2   470  HIS470     -0.2715
     40  CB       125.5330   69.1100   34.0290 C.3   470  HIS470      0.0785
     41  CG       126.9300   69.0730   34.5700 C.ar  470  HIS470      0.0821
     42  ND1      127.5300   70.2070   35.0860 N.ar  470  HIS470     -0.2267
     43  CD2      127.8340   68.0610   34.5720 C.ar  470  HIS470      0.1154
     44  CE1      128.7590   69.8430   35.4120 C.ar  470  HIS470      0.1986
     45  NE2      128.9860   68.5630   35.1260 N.ar  470  HIS470     -0.2212
     46  N        125.9960   71.6830   32.4560 N.am  471  SER471     -0.1936
     47  CA       126.6670   72.9130   32.0120 C.3   471  SER471      0.2055
     48  C        126.6430   72.9870   30.4760 C.2   471  SER471      0.2643
     49  O        127.6960   73.0330   29.8130 O.2   471  SER471     -0.2714
     50  CB       128.0890   73.0260   32.5680 C.3   471  SER471      0.2130
     51  OG       128.0780   73.0590   33.9850 O.3   471  SER471     -0.2179
     52  N        125.3980   72.9620   29.9250 N.am  472  TYR472     -0.1973
     53  CA       125.1130   73.0370   28.5060 C.3   472  TYR472      0.1639
     54  C        125.4220   74.4470   28.0360 C.2   472  TYR472      0.2290
     55  O        125.5630   75.3500   28.8690 O.2   472  TYR472     -0.2864
     56  CB       123.6430   72.6320   28.2260 C.3   472  TYR472      0.0560
     57  CG       123.3960   71.1360   28.3530 C.ar  472  TYR472     -0.0198
     58  CD1      123.0000   70.5740   29.5610 C.ar  472  TYR472     -0.0009
     59  CD2      123.5500   70.2870   27.2570 C.ar  472  TYR472     -0.0009
     60  CE1      122.7760   69.1990   29.6830 C.ar  472  TYR472      0.0417
     61  CE2      123.3130   68.9150   27.3610 C.ar  472  TYR472      0.0417
     62  CZ       122.9090   68.3780   28.5700 C.ar  472  TYR472      0.1957
     63  OH       122.6760   67.0320   28.6490 O.3   472  TYR472     -0.2866
     64  N        120.8350   76.1350   25.7060 N.3   477  ILE477     -0.1245
     65  CA       119.9030   76.4590   26.7900 C.3   477  ILE477      0.1561
     66  C        118.8300   77.4310   26.2690 C.2   477  ILE477      0.2260
     67  O        117.6440   77.1980   26.5050 O.2   477  ILE477     -0.2867
     68  CB       120.6950   77.0560   27.9940 C.3   477  ILE477      0.0252
     69  CG1      121.5340   75.9680   28.7010 C.3   477  ILE477      0.0019
     70  CG2      119.7740   77.8120   28.9770 C.3   477  ILE477      0.0019
     71  CD1      122.6600   76.5250   29.6330 C.3   477  ILE477      0.0001
     72  N        116.3770   75.5910   23.7560 N.3   480  VAL480     -0.1231
     73  CA       115.4850   74.6740   24.4660 C.3   480  VAL480      0.1692
     74  C        114.4200   75.4710   25.2460 C.2   480  VAL480      0.2591
     75  O        113.2290   75.2150   25.0500 O.2   480  VAL480     -0.2718
     76  CB       116.2410   73.6380   25.3300 C.3   480  VAL480      0.0266
     77  CG1      115.2680   72.8290   26.1950 C.3   480  VAL480      0.0020
     78  CG2      117.0730   72.7010   24.4520 C.3   480  VAL480      0.0020
     79  N        114.8400   76.4850   26.0530 N.am  481  ALA481     -0.1980
     80  CA       113.8960   77.3220   26.8150 C.3   481  ALA481      0.1597
     81  C        112.8940   77.9610   25.8720 C.2   481  ALA481      0.2287
     82  O        111.6920   77.9150   26.1420 O.2   481  ALA481     -0.2864
     83  CB       114.6320   78.4080   27.5960 C.3   481  ALA481      0.0319
     84  N        110.3600   75.4760   24.7640 N.3   484  LEU484     -0.1245
     85  CA       109.3820   75.1220   25.8110 C.3   484  LEU484      0.1561
     86  C        108.2870   76.1930   25.9110 C.2   484  LEU484      0.2260
     87  O        107.1030   75.8690   26.0380 O.2   484  LEU484     -0.2867
     88  CB       110.0290   74.8610   27.1900 C.3   484  LEU484      0.0270
     89  CG       111.2180   73.8530   27.2190 C.3   484  LEU484      0.0019
     90  CD1      111.5290   73.4200   28.6130 C.3   484  LEU484      0.0001
     91  CD2      110.9670   72.6400   26.3300 C.3   484  LEU484      0.0001
     92  N        111.6430   72.9690   33.9160 N.3   492  LEU492     -0.1245
     93  CA       112.5670   72.0180   34.5420 C.3   492  LEU492      0.1561
     94  C        112.0730   71.4230   35.8600 C.2   492  LEU492      0.2260
     95  O        112.1330   70.1940   36.0280 O.2   492  LEU492     -0.2867
     96  CB       113.9580   72.6780   34.7390 C.3   492  LEU492      0.0270
     97  CG       114.9870   71.9710   35.6580 C.3   492  LEU492      0.0019
     98  CD1      115.3990   70.5950   35.1120 C.3   492  LEU492      0.0001
     99  CD2      116.2140   72.8430   35.8740 C.3   492  LEU492      0.0001
    100  N        112.0450   67.5450   36.5200 N.3   496  ARG496     -0.1245
    101  CA       112.9050   66.9860   37.5850 C.3   496  ARG496      0.1563
    102  C        112.0880   66.1870   38.6210 C.2   496  ARG496      0.2260
    103  O        112.4780   65.0710   38.9870 O.2   496  ARG496     -0.2867
    104  CB       113.7680   68.0880   38.2260 C.3   496  ARG496      0.0307
    105  CG       114.7030   67.5800   39.3240 C.3   496  ARG496      0.0489
    106  CD       115.5420   68.6920   39.9130 C.3   496  ARG496      0.2205
    107  NE       116.7460   68.9220   39.1150 N.pl3 496  ARG496     -0.0865
    108  CZ       117.1140   70.1030   38.6300 C.cat 496  ARG496      0.5346
    109  NH1      116.3800   71.1810   38.8630 N.pl3 496  ARG496      0.1354
    110  NH2      118.2230   70.2140   37.9120 N.pl3 496  ARG496      0.1354
    111  N        120.5540   62.2830   36.6450 N.3   523  TRP523     -0.1241
    112  CA       120.5710   63.7490   36.6190 C.3   523  TRP523      0.1605
    113  C        119.5660   64.3780   37.5900 C.2   523  TRP523      0.2264
    114  O        119.7140   65.5540   37.9560 O.2   523  TRP523     -0.2867
    115  CB       120.2770   64.2800   35.1950 C.3   523  TRP523      0.0550
    116  CG       118.9500   63.8320   34.6120 C.ar  523  TRP523      0.0003
    117  CD1      118.7390   62.7490   33.8020 C.ar  523  TRP523      0.0946
    118  CD2      117.6730   64.4840   34.7480 C.ar  523  TRP523      0.0152
    119  NE1      117.4080   62.6640   33.4600 N.ar  523  TRP523     -0.2442
    120  CE2      116.7380   63.7340   33.9940 C.ar  523  TRP523      0.0810
    121  CE3      117.2300   65.6470   35.4190 C.ar  523  TRP523      0.0012
    122  CZ2      115.3920   64.1110   33.8780 C.ar  523  TRP523      0.0191
    123  CZ3      115.8970   66.0230   35.3010 C.ar  523  TRP523      0.0001
    124  CH2      114.9970   65.2730   34.5250 C.ar  523  TRP523      0.0015
    125  N        123.9580   61.8860   43.5140 N.3   528  LYS528     -0.1245
    126  CA       124.2080   61.1310   42.2860 C.3   528  LYS528      0.1561
    127  C        124.9710   59.8330   42.5290 C.2   528  LYS528      0.2260
    128  O        125.8640   59.7640   43.3850 O.2   528  LYS528     -0.2867
    129  CB       124.9470   61.9960   41.2540 C.3   528  LYS528      0.0271
    130  CG       124.0240   62.7750   40.3230 C.3   528  LYS528      0.0035
    131  CD       123.7580   64.1930   40.8060 C.3   528  LYS528      0.0206
    132  CE       123.0020   64.9900   39.7730 C.3   528  LYS528      0.1093
    133  NZ       122.6470   66.3440   40.2700 N.3   528  LYS528     -0.1314
@<TRIPOS>BOND
     1    72    73    1
     2    78    76    1
     3    73    74    1
     4    73    76    1
     5    84    85    1
     6    75    74    2
     7    74    79   am
     8    76    77    1
     9    64    65    1
    10    85    86    1
    11    85    88    1
    12    81    82    2
    13    81    80    1
    14    86    87    2
    15    79    80    1
    16    66    67    2
    17    66    65    1
    18    91    89    1
    19     1     2    1
    20    65    68    1
    21    80    83    1
    22    34    33    1
    23    88    89    1
    24    89    90    1
    25    59    61   ar
    26    59    57   ar
    27    61    62   ar
    28     3     2    1
    29     3     4    2
    30     9    10    1
    31     2     5    1
    32     5     6    1
    33    68    69    1
    34    68    70    1
    35    54    53    1
    36    54    55    2
    37    56    57    1
    38    56    53    1
    39    57    58   ar
    40     8     6    1
    41    33    35    1
    42    33    32    1
    43    53    52    1
    44    62    63    1
    45    62    60   ar
    46    14    15    1
    47    14    13    1
    48     6     7    1
    49    69    71    1
    50    10    13    1
    51    10    11    1
    52    15    16    1
    53    32    29    1
    54    58    60   ar
    55    11    20   am
    56    11    12    2
    57    20    21    1
    58    49    48    2
    59    52    48   am
    60    27    26    1
    61    22    21    1
    62    22    23    2
    63    16    17    2
    64    48    47    1
    65    21    24    1
    66    24    25    1
    67    18    17    1
    68    29    28    1
    69    29    30    1
    70    17    19    1
    71    39    38    2
    72    26    25    1
    73    30    36   am
    74    30    31    2
    75    36    37    1
    76    38    46   am
    77    38    37    1
    78    47    46    1
    79    47    50    1
    80    37    40    1
    81    50    51    1
    82   119   117   ar
    83   119   120   ar
    84   117   116   ar
    85   122   120   ar
    86   122   124   ar
    87    92    93    1
    88   120   118   ar
    89    40    41    1
    90   124   123   ar
    91    93    96    1
    92    93    94    1
    93    41    43   ar
    94    41    42   ar
    95    43    45   ar
    96   116   118   ar
    97   116   115    1
    98    96    97    1
    99   118   121   ar
   100    42    44   ar
   101    98    97    1
   102    45    44   ar
   103   115   112    1
   104   123   121   ar
   105    97    99    1
   106    94    95    2
   107   100   101    1
   108   112   111    1
   109   112   113    1
   110   101   104    1
   111   101   102    1
   112   113   114    2
   113   110   108    1
   114   104   105    1
   115   102   103    2
   116   108   109    1
   117   108   107    2
   118   107   106    1
   119   105   106    1
   120   132   133    1
   121   132   131    1
   122   130   131    1
   123   130   129    1
   124   129   126    1
   125   126   127    1
   126   126   125    1
   127   127   128    2
