@<TRIPOS>MOLECULE
tmp/3mfdA00.pdb
 88 82 0 0 0
SMALL
GASTEIGER

@<TRIPOS>ATOM
      1  N         -9.3950   37.4050   42.0170 N.3    32  ALA32      -0.1231
      2  CA       -10.5430   38.3110   42.0040 C.3    32  ALA32       0.1694
      3  C        -10.1170   39.7940   41.8430 C.2    32  ALA32       0.2592
      4  O         -9.1830   40.1020   41.1020 O.2    32  ALA32      -0.2718
      5  CB       -11.4450   38.0950   43.3040 C.3    32  ALA32       0.0304
      6  N        -10.7730   40.7090   42.5590 N.am   33  SER33      -0.1952
      7  CA       -10.7010   42.1280   42.2400 C.3    33  SER33       0.1924
      8  C         -9.4280   42.8100   42.6730 C.2    33  SER33       0.2314
      9  O         -9.2470   43.9880   42.3320 O.2    33  SER33      -0.2863
     10  CB       -11.9250   42.9040   42.7570 C.3    33  SER33       0.2116
     11  OG       -13.1220   42.4780   42.1610 O.3    33  SER33      -0.2180
     12  N         -7.5810   44.6960   40.0590 N.3    36  LYS36      -0.1245
     13  CA        -7.8740   46.0700   39.7020 C.3    36  LYS36       0.1561
     14  C         -6.7490   47.0300   40.0960 C.2    36  LYS36       0.2260
     15  O         -6.6810   48.1350   39.5600 O.2    36  LYS36      -0.2867
     16  CB        -9.2100   46.5010   40.2760 C.3    36  LYS36       0.0271
     17  CG       -10.3670   45.7430   39.7230 C.3    36  LYS36       0.0035
     18  CD       -11.6830   46.1790   40.3650 C.3    36  LYS36       0.0206
     19  CE       -12.8870   45.5920   39.6180 C.3    36  LYS36       0.1093
     20  NZ       -13.3680   44.2670   40.0950 N.3    36  LYS36      -0.1314
     21  N        -19.9190   43.4710   40.7360 N.3    63  SER63      -0.1217
     22  CA       -19.9530   44.8370   41.2880 C.3    63  SER63       0.1889
     23  C        -19.9880   45.8690   40.1410 C.2    63  SER63       0.2288
     24  O        -19.3450   45.7020   39.1110 O.2    63  SER63      -0.2866
     25  CB       -18.7270   45.0730   42.1410 C.3    63  SER63       0.2089
     26  OG       -18.5660   44.1790   43.2600 O.3    63  SER63      -0.2183
     27  N        -15.0760   48.7040   43.3720 N.3    85  SER85      -0.1217
     28  CA       -14.7590   47.5080   42.5720 C.3    85  SER85       0.1889
     29  C        -15.6500   47.4100   41.3100 C.2    85  SER85       0.2288
     30  O        -16.0280   46.3220   40.8740 O.2    85  SER85      -0.2866
     31  CB       -14.9260   46.2610   43.4540 C.3    85  SER85       0.2089
     32  OG       -14.0670   45.2090   43.0260 O.3    85  SER85      -0.2183
     33  N        -16.8730   46.7330   37.9020 N.3    87  ASN87      -0.1240
     34  CA       -16.3630   45.9670   36.7550 C.3    87  ASN87       0.1653
     35  C        -16.6390   46.6950   35.4420 C.2    87  ASN87       0.2266
     36  O        -15.8500   46.6130   34.5020 O.2    87  ASN87      -0.2867
     37  CB       -16.9010   44.5210   36.7780 C.3    87  ASN87       0.1155
     38  CG       -16.3760   43.7300   37.9770 C.2    87  ASN87       0.2627
     39  OD1      -15.2500   43.9040   38.3740 O.2    87  ASN87      -0.2716
     40  ND2      -17.2050   42.8580   38.5580 N.am   87  ASN87      -0.0877
     41  N        -14.9440   50.4550   49.9980 N.3   169  LYS169     -0.1245
     42  CA       -15.2940   49.1800   50.5640 C.3   169  LYS169      0.1561
     43  C        -14.2210   48.5700   51.4850 C.2   169  LYS169      0.2260
     44  O        -14.4420   47.5150   52.0890 O.2   169  LYS169     -0.2867
     45  CB       -15.6170   48.1950   49.4330 C.3   169  LYS169      0.0271
     46  CG       -16.9360   48.4770   48.7550 C.3   169  LYS169      0.0035
     47  CD       -17.0460   47.5710   47.5340 C.3   169  LYS169      0.0206
     48  CE       -18.4430   47.4780   47.0400 C.3   169  LYS169      0.1093
     49  NZ       -18.5630   46.6660   45.7810 N.3   169  LYS169     -0.1314
     50  N         -7.3350   47.0090   48.7680 N.3   183  LYS183     -0.1231
     51  CA        -8.3450   46.6290   47.7750 C.3   183  LYS183      0.1693
     52  C         -8.8180   45.2270   48.1130 C.2   183  LYS183      0.2593
     53  O         -7.9870   44.3400   48.3070 O.2   183  LYS183     -0.2718
     54  CB        -7.7500   46.5950   46.3720 C.3   183  LYS183      0.0285
     55  CG        -8.7370   46.2460   45.2310 C.3   183  LYS183      0.0035
     56  CD        -9.8080   47.3370   45.0450 C.3   183  LYS183      0.0206
     57  CE       -10.9850   46.8970   44.1640 C.3   183  LYS183      0.1093
     58  NZ       -11.9210   46.0320   44.9180 N.3   183  LYS183     -0.1314
     59  N        -10.1370   45.0460   48.1490 N.am  184  THR184     -0.1939
     60  CA       -10.7660   43.7440   48.4120 C.3   184  THR184      0.2028
     61  C        -11.0920   43.0060   47.1010 C.2   184  THR184      0.2643
     62  O        -11.1240   43.6230   46.0210 O.2   184  THR184     -0.2714
     63  CB       -12.1320   43.8930   49.1330 C.3   184  THR184      0.1808
     64  OG1      -13.0620   44.6350   48.3170 O.3   184  THR184     -0.2208
     65  CG2      -11.9470   44.6460   50.4580 C.3   184  THR184      0.0379
     66  N        -11.3010   41.6930   47.2060 N.am  185  GLY185     -0.1939
     67  CA       -11.8420   40.9050   46.1170 C.3   185  GLY185      0.2014
     68  C        -12.6000   39.7050   46.6300 C.2   185  GLY185      0.2639
     69  O        -12.2880   39.1620   47.7100 O.2   185  GLY185     -0.2714
     70  N        -13.6040   39.2960   45.8580 N.am  186  TYR186     -0.1959
     71  CA       -14.3040   38.0710   46.1380 C.3   186  TYR186      0.1771
     72  C        -14.8960   37.5470   44.8420 C.2   186  TYR186      0.2620
     73  O        -15.5600   38.3050   44.1520 O.2   186  TYR186     -0.2715
     74  CB       -15.4410   38.2820   47.1470 C.3   186  TYR186      0.0574
     75  CG       -16.0740   36.9580   47.5040 C.ar  186  TYR186     -0.0198
     76  CD1      -15.4750   36.1060   48.4160 C.ar  186  TYR186     -0.0009
     77  CD2      -17.2570   36.5540   46.9140 C.ar  186  TYR186     -0.0009
     78  CE1      -16.0390   34.9080   48.7460 C.ar  186  TYR186      0.0417
     79  CE2      -17.8150   35.3410   47.2240 C.ar  186  TYR186      0.0417
     80  CZ       -17.1840   34.5060   48.1170 C.ar  186  TYR186      0.1957
     81  OH       -17.7710   33.3050   48.4370 O.3   186  TYR186     -0.2866
     82  N        -14.6270   36.2900   44.5230 N.am  187  THR187     -0.1951
     83  CA       -15.5070   35.5360   43.6110 C.3   187  THR187      0.1897
     84  C        -15.7920   34.1870   44.2520 C.2   187  THR187      0.2313
     85  O        -15.1050   33.7710   45.1730 O.2   187  THR187     -0.2863
     86  CB       -14.8810   35.3040   42.2050 C.3   187  THR187      0.1794
     87  OG1      -13.8040   34.3590   42.2870 O.3   187  THR187     -0.2208
     88  CG2      -14.4050   36.5980   41.5380 C.3   187  THR187      0.0378
@<TRIPOS>BOND
     1    36    35    2
     2    35    34    1
     3    34    37    1
     4    34    33    1
     5    37    38    1
     6    38    39    2
     7    38    40   am
     8    24    23    2
     9    15    14    2
    10    19    20    1
    11    19    18    1
    12    13    12    1
    13    13    14    1
    14    13    16    1
    15    17    16    1
    16    17    18    1
    17    23    22    1
    18    21    22    1
    19    30    29    2
    20     4     3    2
    21    22    25    1
    22    29    28    1
    23    88    86    1
    24     3     2    1
    25     3     6   am
    26     2     1    1
    27     2     5    1
    28    25    26    1
    29    11    10    1
    30    86    87    1
    31    86    83    1
    32     7     6    1
    33     7     8    1
    34     7    10    1
    35     9     8    2
    36    28    27    1
    37    28    31    1
    38    32    31    1
    39    83    84    1
    40    83    82    1
    41    73    72    2
    42    57    58    1
    43    57    56    1
    44    84    85    2
    45    82    72   am
    46    72    71    1
    47    56    55    1
    48    55    54    1
    49    49    48    1
    50    70    71    1
    51    70    68   am
    52    62    61    2
    53    67    68    1
    54    67    66    1
    55    71    74    1
    56    54    51    1
    57    68    69    2
    58    77    79   ar
    59    77    75   ar
    60    48    47    1
    61    61    66   am
    62    61    60    1
    63    74    75    1
    64    79    80   ar
    65    75    76   ar
    66    47    46    1
    67    51    52    1
    68    51    50    1
    69    52    59   am
    70    52    53    2
    71    80    81    1
    72    80    78   ar
    73    59    60    1
    74    64    63    1
    75    60    63    1
    76    76    78   ar
    77    46    45    1
    78    63    65    1
    79    45    42    1
    80    41    42    1
    81    42    43    1
    82    43    44    2
