@<TRIPOS>MOLECULE
tmp/3mfvB00.pdb
 135 124 0 0 0
SMALL
GASTEIGER

@<TRIPOS>ATOM
      1  N        -19.2250   22.8310  -41.1320 N.3    96  HIS96      -0.1241
      2  CA       -19.0140   22.8270  -39.6840 C.3    96  HIS96       0.1621
      3  C        -17.7160   22.1950  -39.1550 C.2    96  HIS96       0.2264
      4  O        -17.4550   22.2400  -37.9510 O.2    96  HIS96      -0.2867
      5  CB       -20.2280   22.1850  -38.9990 C.3    96  HIS96       0.0745
      6  CG       -20.7570   22.9720  -37.8360 C.ar   96  HIS96       0.0817
      7  ND1      -22.0140   22.7660  -37.3070 N.ar   96  HIS96      -0.2268
      8  CD2      -20.1990   23.9630  -37.0980 C.ar   96  HIS96       0.1154
      9  CE1      -22.2090   23.5960  -36.2970 C.ar   96  HIS96       0.1986
     10  NE2      -21.1230   24.3330  -36.1490 N.ar   96  HIS96      -0.2212
     11  N        -27.8050   17.9310  -36.0980 N.3   121  HIS121     -0.1241
     12  CA       -26.8140   16.8790  -35.8500 C.3   121  HIS121      0.1621
     13  C        -25.8870   17.1760  -34.6630 C.2   121  HIS121      0.2264
     14  O        -25.6920   18.3260  -34.2920 O.2   121  HIS121     -0.2867
     15  CB       -25.9700   16.6680  -37.1090 C.3   121  HIS121      0.0745
     16  CG       -26.7670   16.7100  -38.3760 C.ar  121  HIS121      0.0817
     17  ND1      -26.9560   17.8690  -39.1000 N.ar  121  HIS121     -0.2268
     18  CD2      -27.4740   15.7480  -39.0160 C.ar  121  HIS121      0.1154
     19  CE1      -27.7450   17.6190  -40.1290 C.ar  121  HIS121      0.1986
     20  NE2      -28.0740   16.3400  -40.1010 N.ar  121  HIS121     -0.2212
     21  N        -22.6130   16.0500  -34.5720 N.3   123  ASP123     -0.1239
     22  CA       -21.2700   16.2690  -35.1000 C.3   123  ASP123      0.1674
     23  C        -20.2160   15.8280  -34.0940 C.2   123  ASP123      0.2266
     24  O        -19.2050   16.4990  -33.9010 O.2   123  ASP123     -0.2867
     25  CB       -21.0860   17.7500  -35.4210 C.3   123  ASP123      0.1410
     26  CG       -21.9160   18.1860  -36.6010 C.2   123  ASP123      0.3668
     27  OD1      -22.7380   17.3670  -37.0740 O.co2 123  ASP123     -0.2456
     28  OD2      -21.7430   19.3400  -37.0540 O.co2 123  ASP123     -0.2456
     29  N        -18.9750   12.4880  -34.1040 N.3   125  ASN125     -0.1240
     30  CA       -18.3960   11.2280  -34.5490 C.3   125  ASN125      0.1653
     31  C        -16.8840   11.3770  -34.4680 C.2   125  ASN125      0.2266
     32  O        -16.3640   12.4860  -34.5740 O.2   125  ASN125     -0.2867
     33  CB       -18.7920   10.9160  -35.9980 C.3   125  ASN125      0.1155
     34  CG       -20.0080   10.0120  -36.0940 C.2   125  ASN125      0.2627
     35  OD1      -20.0290    8.9270  -35.5270 O.2   125  ASN125     -0.2716
     36  ND2      -21.0200   10.4560  -36.8210 N.am  125  ASN125     -0.0877
     37  N        -17.1250    7.2180  -37.4140 N.3   130  THR130     -0.1203
     38  CA       -17.8140    7.8100  -38.5490 C.3   130  THR130      0.1994
     39  C        -18.0140    6.7440  -39.6220 C.2   130  THR130      0.2619
     40  O        -17.2240    5.8020  -39.7320 O.2   130  THR130     -0.2717
     41  CB       -17.0170    8.9810  -39.1600 C.3   130  THR130      0.1784
     42  OG1      -17.8270    9.6430  -40.1420 O.3   130  THR130     -0.2211
     43  CG2      -15.7370    8.4760  -39.8190 C.3   130  THR130      0.0376
     44  N        -19.0790    6.8890  -40.4020 N.am  131  THR131     -0.1938
     45  CA       -19.3740    5.9480  -41.4700 C.3   131  THR131      0.2028
     46  C        -19.2460    6.6640  -42.8080 C.2   131  THR131      0.2642
     47  O        -18.9270    6.0530  -43.8250 O.2   131  THR131     -0.2714
     48  CB       -20.8010    5.3760  -41.3320 C.3   131  THR131      0.1808
     49  OG1      -21.7190    6.4410  -41.0570 O.3   131  THR131     -0.2208
     50  CG2      -20.8610    4.3510  -40.2120 C.3   131  THR131      0.0379
     51  N        -19.4820    7.9710  -42.7950 N.am  132  SER132     -0.1949
     52  CA       -19.4000    8.7760  -44.0040 C.3   132  SER132      0.1924
     53  C        -17.9770    9.2680  -44.2710 C.2   132  SER132      0.2314
     54  O        -17.6020    9.5050  -45.4200 O.2   132  SER132     -0.2863
     55  CB       -20.3450    9.9750  -43.8920 C.3   132  SER132      0.2116
     56  OG       -19.9720   10.8070  -42.8060 O.3   132  SER132     -0.2180
     57  N        -16.8730   12.0770  -43.5100 N.3   134  ASN134     -0.1240
     58  CA       -16.9110   13.5270  -43.6790 C.3   134  ASN134      0.1653
     59  C        -16.6220   14.1980  -42.3460 C.2   134  ASN134      0.2266
     60  O        -17.3200   13.9680  -41.3570 O.2   134  ASN134     -0.2867
     61  CB       -18.2780   13.9710  -44.1970 C.3   134  ASN134      0.1155
     62  CG       -18.6640   13.2710  -45.4800 C.2   134  ASN134      0.2627
     63  OD1      -17.8430   13.1070  -46.3780 O.2   134  ASN134     -0.2716
     64  ND2      -19.9190   12.8640  -45.5770 N.am  134  ASN134     -0.0877
     65  N        -17.1070   17.2400  -41.3140 N.3   136  HIS136     -0.1226
     66  CA       -18.0580   18.2220  -40.7880 C.3   136  HIS136      0.1752
     67  C        -19.0440   17.5490  -39.8340 C.2   136  HIS136      0.2596
     68  O        -19.9750   18.1850  -39.3420 O.2   136  HIS136     -0.2718
     69  CB       -18.8360   18.9330  -41.9130 C.3   136  HIS136      0.0759
     70  CG       -19.9250   18.1060  -42.5360 C.ar  136  HIS136      0.0818
     71  ND1      -20.9890   18.6700  -43.2070 N.ar  136  HIS136     -0.2268
     72  CD2      -20.1040   16.7650  -42.6150 C.ar  136  HIS136      0.1154
     73  CE1      -21.7750   17.7140  -43.6710 C.ar  136  HIS136      0.1986
     74  NE2      -21.2610   16.5490  -43.3240 N.ar  136  HIS136     -0.2212
     75  N        -18.8350   16.2560  -39.5880 N.am  137  GLY137     -0.1957
     76  CA       -19.6950   15.5110  -38.6840 C.3   137  GLY137      0.1869
     77  C        -18.8910   14.9090  -37.5440 C.2   137  GLY137      0.2309
     78  O        -19.3300   13.9510  -36.9040 O.2   137  GLY137     -0.2863
     79  N        -31.2390   14.0740  -35.9130 N.3   176  ASP176     -0.1239
     80  CA       -30.6100   13.0760  -36.7860 C.3   176  ASP176      0.1674
     81  C        -29.2220   12.7650  -36.2250 C.2   176  ASP176      0.2266
     82  O        -28.2080   13.2470  -36.7330 O.2   176  ASP176     -0.2867
     83  CB       -30.4960   13.5920  -38.2250 C.3   176  ASP176      0.1410
     84  CG       -29.9950   12.5240  -39.1890 C.2   176  ASP176      0.3668
     85  OD1      -30.5930   11.4300  -39.2380 O.co2 176  ASP176     -0.2456
     86  OD2      -29.0060   12.7780  -39.9020 O.co2 176  ASP176     -0.2456
     87  N        -26.3440    9.8590  -35.1210 N.3   178  ASP178     -0.1239
     88  CA       -25.8740    8.4980  -35.4070 C.3   178  ASP178      0.1674
     89  C        -25.8720    7.6300  -34.1420 C.2   178  ASP178      0.2266
     90  O        -25.6610    8.1360  -33.0430 O.2   178  ASP178     -0.2867
     91  CB       -24.4600    8.5530  -36.0180 C.3   178  ASP178      0.1410
     92  CG       -24.4690    8.8820  -37.5140 C.2   178  ASP178      0.3668
     93  OD1      -25.3320    9.6600  -37.9600 O.co2 178  ASP178     -0.2456
     94  OD2      -23.6010    8.3710  -38.2500 O.co2 178  ASP178     -0.2456
     95  N        -23.0540    8.2820  -32.0370 N.3   181  GLU181     -0.1245
     96  CA       -23.0920    9.6330  -31.5050 C.3   181  GLU181      0.1567
     97  C        -24.0180    9.7020  -30.2970 C.2   181  GLU181      0.2260
     98  O        -23.7710   10.4760  -29.3730 O.2   181  GLU181     -0.2867
     99  CB       -23.5660   10.6170  -32.5710 C.3   181  GLU181      0.0388
    100  CG       -22.5630   10.8530  -33.6790 C.3   181  GLU181      0.1160
    101  CD       -23.0600   11.8520  -34.6950 C.2   181  GLU181      0.3649
    102  OE1      -24.0960   11.5790  -35.3360 O.co2 181  GLU181     -0.2457
    103  OE2      -22.4200   12.9110  -34.8520 O.co2 181  GLU181     -0.2457
    104  N        -25.4440   25.8730  -36.9670 N.3   227  ASP227     -0.1239
    105  CA       -25.5470   25.1690  -38.2390 C.3   227  ASP227      0.1674
    106  C        -26.9600   25.4970  -38.7250 C.2   227  ASP227      0.2266
    107  O        -27.9440   25.1520  -38.0590 O.2   227  ASP227     -0.2867
    108  CB       -25.4150   23.6600  -38.0320 C.3   227  ASP227      0.1410
    109  CG       -25.5330   22.8650  -39.3310 C.2   227  ASP227      0.3668
    110  OD1      -26.1970   23.3270  -40.2800 O.co2 227  ASP227     -0.2456
    111  OD2      -24.9720   21.7490  -39.3950 O.co2 227  ASP227     -0.2456
    112  N        -28.7320   24.1510  -40.7510 N.3   229  ASP229     -0.1239
    113  CA       -29.5890   22.9880  -40.9290 C.3   229  ASP229      0.1674
    114  C        -30.2400   22.6000  -39.6000 C.2   229  ASP229      0.2266
    115  O        -30.8840   21.5540  -39.4900 O.2   229  ASP229     -0.2867
    116  CB       -28.8080   21.8130  -41.5420 C.3   229  ASP229      0.1410
    117  CG       -27.8520   21.1480  -40.5680 C.2   229  ASP229      0.3668
    118  OD1      -26.9460   20.4330  -41.0500 O.co2 229  ASP229     -0.2456
    119  OD2      -28.0040   21.3130  -39.3390 O.co2 229  ASP229     -0.2456
    120  N        -27.2100   19.0910  -45.7180 N.3   241  THR241     -0.1218
    121  CA       -27.9690   17.9880  -45.1390 C.3   241  THR241      0.1862
    122  C        -29.1910   18.4820  -44.3560 C.2   241  THR241      0.2287
    123  O        -29.1440   18.6440  -43.1320 O.2   241  THR241     -0.2866
    124  CB       -27.0610   17.1550  -44.2100 C.3   241  THR241      0.1770
    125  OG1      -26.5760   17.9870  -43.1500 O.3   241  THR241     -0.2211
    126  CG2      -25.8650   16.6180  -44.9820 C.3   241  THR241      0.0375
    127  N        -22.7310   25.9730  -42.7080 N.3   272  GLU272     -0.1245
    128  CA       -23.5020   25.1820  -43.6620 C.3   272  GLU272      0.1567
    129  C        -24.4160   25.8600  -44.6790 C.2   272  GLU272      0.2260
    130  O        -25.2670   25.1940  -45.2650 O.2   272  GLU272     -0.2867
    131  CB       -24.3040   24.1110  -42.9150 C.3   272  GLU272      0.0388
    132  CG       -23.4630   23.1590  -42.0520 C.3   272  GLU272      0.1160
    133  CD       -22.6210   22.1890  -42.8680 C.2   272  GLU272      0.3649
    134  OE1      -23.1340   21.6750  -43.8870 O.co2 272  GLU272     -0.2457
    135  OE2      -21.4560   21.9250  -42.4830 O.co2 272  GLU272     -0.2457
@<TRIPOS>BOND
     1    63    62    2
     2   120   121    1
     3    64    62   am
     4    62    61    1
     5    54    53    2
     6   130   129    2
     7   121   122    1
     8   121   124    1
     9   126   124    1
    10   129   128    1
    11   122   123    2
    12    53    52    1
    13   124   125    1
    14    61    58    1
    15    52    55    1
    16    52    51    1
    17    55    56    1
    18   134   133   ar
    19    47    46    2
    20    58    57    1
    21    58    59    1
    22    73    74   ar
    23    73    71   ar
    24   128   131    1
    25   128   127    1
    26    74    72   ar
    27    71    70   ar
    28   131   132    1
    29   133   135   ar
    30   133   132    1
    31    46    51   am
    32    46    45    1
    33    72    70   ar
    34    70    69    1
    35    59    60    2
    36    69    66    1
    37   116   113    1
    38   116   117    1
    39    45    48    1
    40    45    44    1
    41    48    49    1
    42    48    50    1
    43    65    66    1
    44     1     2    1
    45   118   117   ar
    46   113   112    1
    47   113   114    1
    48    66    67    1
    49   117   119   ar
    50    44    39   am
    51   110   109   ar
    52    42    41    1
    53    19    20   ar
    54    19    17   ar
    55    20    18   ar
    56    86    84   ar
    57    67    75   am
    58    67    68    2
    59    43    41    1
    60    40    39    2
    61     2     3    1
    62     2     5    1
    63    39    38    1
    64   114   115    2
    65    75    76    1
    66   111   109   ar
    67   109   108    1
    68    85    84   ar
    69    84    83    1
    70    41    38    1
    71     3     4    2
    72    17    16   ar
    73    18    16   ar
    74     5     6    1
    75   106   105    1
    76   106   107    2
    77    76    77    1
    78    38    37    1
    79    16    15    1
    80    94    92   ar
    81   105   108    1
    82   105   104    1
    83    83    80    1
    84    93    92   ar
    85     6     7   ar
    86     6     8   ar
    87    77    78    2
    88    92    91    1
    89     7     9   ar
    90    15    12    1
    91     8    10   ar
    92    27    26   ar
    93    28    26   ar
    94    36    34   am
    95    80    81    1
    96    80    79    1
    97    82    81    2
    98    26    25    1
    99     9    10   ar
   100    11    12    1
   101    34    33    1
   102    34    35    2
   103    91    88    1
   104    33    30    1
   105    12    13    1
   106    25    22    1
   107    88    87    1
   108    88    89    1
   109   102   101   ar
   110    22    21    1
   111    22    23    1
   112   103   101   ar
   113   101   100    1
   114    13    14    2
   115    32    31    2
   116    30    31    1
   117    30    29    1
   118    89    90    2
   119    23    24    2
   120   100    99    1
   121    99    96    1
   122    95    96    1
   123    96    97    1
   124    97    98    2
