@<TRIPOS>MOLECULE
tmp/3mfwB00.pdb
 125 114 0 0 0
SMALL
GASTEIGER

@<TRIPOS>ATOM
      1  N          1.6830   32.8100   -1.1900 N.3   122  HIS122     -0.1241
      2  CA         1.2720   31.4190   -0.9590 C.3   122  HIS122      0.1621
      3  C          1.9390   30.8080    0.2810 C.2   122  HIS122      0.2264
      4  O          3.0560   31.2140    0.5630 O.2   122  HIS122     -0.2867
      5  CB         1.6030   30.5510   -2.1920 C.3   122  HIS122      0.0745
      6  CG         1.1490   31.2710   -3.4500 C.ar  122  HIS122      0.0817
      7  ND1        1.9900   31.9740   -4.2940 N.ar  122  HIS122     -0.2268
      8  CD2       -0.0950   31.3440   -3.9800 C.ar  122  HIS122      0.1154
      9  CE1        1.2520   32.4650   -5.2680 C.ar  122  HIS122      0.1986
     10  NE2       -0.0130   32.1110   -5.1260 N.ar  122  HIS122     -0.2212
     11  N          2.6130   27.5190    0.3360 N.3   124  ASP124     -0.1239
     12  CA         3.5080   26.4890   -0.1660 C.3   124  ASP124      0.1674
     13  C          3.6260   25.2890    0.7940 C.2   124  ASP124      0.2266
     14  O          4.7220   24.7540    0.9470 O.2   124  ASP124     -0.2867
     15  CB         4.9120   27.0480   -0.4510 C.3   124  ASP124      0.1410
     16  CG         4.8940   27.9910   -1.6830 C.2   124  ASP124      0.3668
     17  OD1        3.8040   28.1510   -2.2570 O.co2 124  ASP124     -0.2456
     18  OD2        5.9680   28.5510   -1.9710 O.co2 124  ASP124     -0.2456
     19  N          1.1870   22.7030    0.8930 N.3   126  ASN126     -0.1240
     20  CA         0.5300   21.4250    0.5830 C.3   126  ASN126      0.1653
     21  C          1.4470   20.2380    0.7790 C.2   126  ASN126      0.2266
     22  O          2.6240   20.3240    0.5580 O.2   126  ASN126     -0.2867
     23  CB         0.0750   21.4220   -0.8860 C.3   126  ASN126      0.1155
     24  CG        -1.3140   22.0020   -1.0130 C.2   126  ASN126      0.2627
     25  OD1       -2.2670   21.5580   -0.3670 O.2   126  ASN126     -0.2716
     26  ND2       -1.4420   23.0390   -1.8480 N.am  126  ASN126     -0.0877
     27  N         -2.2140   18.4810   -2.2050 N.3   131  THR131     -0.1203
     28  CA        -2.0840   19.2750   -3.4250 C.3   131  THR131      0.1994
     29  C         -3.1560   18.9400   -4.4600 C.2   131  THR131      0.2619
     30  O         -3.4520   17.7650   -4.6950 O.2   131  THR131     -0.2717
     31  CB        -0.7070   19.0400   -4.0630 C.3   131  THR131      0.1784
     32  OG1       -0.5350   19.9150   -5.1730 O.3   131  THR131     -0.2211
     33  CG2       -0.5610   17.6270   -4.6170 C.3   131  THR131      0.0376
     34  N         -3.7290   19.9800   -5.0620 N.am  132  THR132     -0.1938
     35  CA        -4.6880   19.7820   -6.1350 C.3   132  THR132      0.2028
     36  C         -3.9470   19.9460   -7.4580 C.2   132  THR132      0.2642
     37  O         -4.3450   19.4740   -8.5160 O.2   132  THR132     -0.2714
     38  CB        -5.8440   20.7870   -6.0830 C.3   132  THR132      0.1808
     39  OG1       -5.3130   22.0630   -5.7110 O.3   132  THR132     -0.2208
     40  CG2       -6.8680   20.4160   -5.0270 C.3   132  THR132      0.0379
     41  N         -2.8070   20.6370   -7.4250 N.am  133  SER133     -0.1949
     42  CA        -2.1730   20.9200   -8.7250 C.3   133  SER133      0.1924
     43  C         -1.0850   19.9280   -9.0370 C.2   133  SER133      0.2314
     44  O         -0.7140   19.6160  -10.1730 O.2   133  SER133     -0.2863
     45  CB        -1.6270   22.3600   -8.6500 C.3   133  SER133      0.2116
     46  OG        -0.5220   22.3250   -7.7350 O.3   133  SER133     -0.2180
     47  N          2.0010   20.5520   -8.3480 N.3   135  ASN135     -0.1240
     48  CA         3.2640   21.2600   -8.5330 C.3   135  ASN135      0.1653
     49  C          4.0010   21.3420   -7.1940 C.2   135  ASN135      0.2266
     50  O          3.4340   21.8510   -6.2130 O.2   135  ASN135     -0.2867
     51  CB         3.0170   22.6500   -9.1080 C.3   135  ASN135      0.1155
     52  CG         2.2120   22.6370  -10.4180 C.2   135  ASN135      0.2627
     53  OD1        2.4100   21.7440  -11.2270 O.2   135  ASN135     -0.2716
     54  ND2        1.3410   23.6210  -10.5500 N.am  135  ASN135     -0.0877
     55  N          6.2220   23.2480   -6.2220 N.3   137  HIS137     -0.1226
     56  CA         6.5980   24.5490   -5.6200 C.3   137  HIS137      0.1752
     57  C          5.5160   24.9630   -4.6290 C.2   137  HIS137      0.2596
     58  O          5.6940   25.9020   -3.8330 O.2   137  HIS137     -0.2718
     59  CB         6.8970   25.6020   -6.6980 C.3   137  HIS137      0.0759
     60  CG         5.7100   26.2050   -7.3690 C.ar  137  HIS137      0.0818
     61  ND1        5.7420   27.4890   -7.8870 N.ar  137  HIS137     -0.2268
     62  CD2        4.4510   25.7570   -7.6430 C.ar  137  HIS137      0.1154
     63  CE1        4.5670   27.7820   -8.4220 C.ar  137  HIS137      0.1986
     64  NE2        3.7550   26.7490   -8.2960 N.ar  137  HIS137     -0.2212
     65  N          4.3720   24.2760   -4.6080 N.am  138  GLY138     -0.1957
     66  CA         3.2920   24.5270   -3.6790 C.3   138  GLY138      0.1869
     67  C          3.3870   23.6050   -2.4580 C.2   138  GLY138      0.2309
     68  O          2.4690   23.7200   -1.6460 O.2   138  GLY138     -0.2863
     69  N         -3.2720   33.8780   -1.1230 N.3   177  ASP177     -0.1239
     70  CA        -3.8320   32.8160   -1.9650 C.3   177  ASP177      0.1674
     71  C         -3.5290   31.4620   -1.3170 C.2   177  ASP177      0.2266
     72  O         -2.5540   30.8720   -1.7760 O.2   177  ASP177     -0.2867
     73  CB        -3.2350   32.8310   -3.3720 C.3   177  ASP177      0.1410
     74  CG        -3.9930   31.9110   -4.3290 C.2   177  ASP177      0.3668
     75  OD1       -5.0370   31.3710   -3.9080 O.co2 177  ASP177     -0.2456
     76  OD2       -3.5740   31.7640   -5.4950 O.co2 177  ASP177     -0.2456
     77  N         -4.7700   27.6140   -0.1690 N.3   179  ASP179     -0.1239
     78  CA        -5.7840   26.5850   -0.4140 C.3   179  ASP179      0.1674
     79  C         -6.5050   26.1620    0.8690 C.2   179  ASP179      0.2266
     80  O         -5.9820   26.3530    1.9730 O.2   179  ASP179     -0.2867
     81  CB        -5.1620   25.3420   -1.0400 C.3   179  ASP179      0.1410
     82  CG        -4.5070   25.5300   -2.3890 C.2   179  ASP179      0.3668
     83  OD1       -4.8790   26.4880   -3.0990 O.co2 179  ASP179     -0.2456
     84  OD2       -3.6290   24.7070   -2.7290 O.co2 179  ASP179     -0.2456
     85  N         -4.4500   23.8850    2.9250 N.3   182  GLU182     -0.1245
     86  CA        -3.3190   24.6420    3.4400 C.3   182  GLU182      0.1567
     87  C         -3.7350   25.4440    4.6710 C.2   182  GLU182      0.2260
     88  O         -2.9660   25.5610    5.6280 O.2   182  GLU182     -0.2867
     89  CB        -2.7830   25.5560    2.3460 C.3   182  GLU182      0.0388
     90  CG        -1.8380   24.8170    1.3700 C.3   182  GLU182      0.1160
     91  CD        -1.2290   25.8230    0.4190 C.2   182  GLU182      0.3649
     92  OE1       -2.0240   26.4670   -0.3060 O.co2 182  GLU182     -0.2457
     93  OE2        0.0210   25.9490    0.4210 O.co2 182  GLU182     -0.2457
     94  N          9.8430   34.7630   -2.0050 N.3   228  ASP228     -0.1239
     95  CA         9.1530   34.6060   -3.2940 C.3   228  ASP228      0.1674
     96  C          8.7680   35.9850   -3.8040 C.2   228  ASP228      0.2266
     97  O          8.0370   36.7530   -3.1500 O.2   228  ASP228     -0.2867
     98  CB         7.9660   33.6970   -3.0620 C.3   228  ASP228      0.1410
     99  CG         7.2060   33.3140   -4.3240 C.2   228  ASP228      0.3668
    100  OD1        7.3650   34.0380   -5.3430 O.co2 228  ASP228     -0.2456
    101  OD2        6.4360   32.3240   -4.2800 O.co2 228  ASP228     -0.2456
    102  N          6.6050   36.7480   -5.7960 N.3   230  ASP230     -0.1239
    103  CA         5.1580   36.9140   -5.8930 C.3   230  ASP230      0.1674
    104  C          4.5260   37.3570   -4.5810 C.2   230  ASP230      0.2266
    105  O          3.3390   37.6690   -4.4990 O.2   230  ASP230     -0.2867
    106  CB         4.4250   35.6910   -6.4300 C.3   230  ASP230      0.1410
    107  CG         4.3580   34.4390   -5.5860 C.2   230  ASP230      0.3668
    108  OD1        4.1720   33.3230   -6.1610 O.co2 230  ASP230     -0.2456
    109  OD2        4.3850   34.5580   -4.3370 O.co2 230  ASP230     -0.2456
    110  N          2.7900   33.0630  -10.8470 N.3   242  THR242     -0.1218
    111  CA         1.4300   33.2310  -10.3470 C.3   242  THR242      0.1862
    112  C          1.3040   34.5190   -9.5430 C.2   242  THR242      0.2287
    113  O          1.3880   34.4900   -8.3170 O.2   242  THR242     -0.2866
    114  CB         0.9880   32.0170   -9.5100 C.3   242  THR242      0.1770
    115  OG1        1.9240   31.7620   -8.4530 O.3   242  THR242     -0.2211
    116  CG2        0.9980   30.7450  -10.3560 C.3   242  THR242      0.0375
    117  N         11.3200   32.5610   -7.8210 N.3   273  GLU273     -0.1245
    118  CA        10.1890   32.6940   -8.7200 C.3   273  GLU273      0.1567
    119  C         10.2690   33.8960   -9.6680 C.2   273  GLU273      0.2260
    120  O          9.2670   34.2540  -10.3040 O.2   273  GLU273     -0.2867
    121  CB         8.8330   32.6700   -7.9950 C.3   273  GLU273      0.0388
    122  CG         8.6590   31.3780   -7.1880 C.3   273  GLU273      0.1160
    123  CD         8.1090   30.2170   -8.0140 C.2   273  GLU273      0.3649
    124  OE1        7.7990   30.4340   -9.2100 O.co2 273  GLU273     -0.2457
    125  OE2        7.9660   29.0980   -7.4640 O.co2 273  GLU273     -0.2457
@<TRIPOS>BOND
     1    53    52    2
     2   110   111    1
     3    54    52   am
     4    52    51    1
     5   116   114    1
     6   111   112    1
     7   111   114    1
     8   120   119    2
     9    44    43    2
    10   119   118    1
    11   112   113    2
    12   114   115    1
    13   124   123   ar
    14    51    48    1
    15    43    42    1
    16    42    45    1
    17    42    41    1
    18   118   121    1
    19   118   117    1
    20    45    46    1
    21    48    47    1
    22    48    49    1
    23    37    36    2
    24    63    64   ar
    25    63    61   ar
    26    64    62   ar
    27   123   125   ar
    28   123   122    1
    29   121   122    1
    30    61    60   ar
    31    62    60   ar
    32    36    41   am
    33    36    35    1
    34    60    59    1
    35    49    50    2
    36    59    56    1
    37   106   103    1
    38   106   107    1
    39    55    56    1
    40   108   107   ar
    41    35    38    1
    42    35    34    1
    43    38    39    1
    44    38    40    1
    45   103   102    1
    46   103   104    1
    47    56    57    1
    48   107   109   ar
    49    76    74   ar
    50   100    99   ar
    51     9    10   ar
    52     9     7   ar
    53    32    31    1
    54    10     8   ar
    55    34    29   am
    56    30    29    2
    57    57    65   am
    58    57    58    2
    59    33    31    1
    60    65    66    1
    61   104   105    2
    62    29    28    1
    63    74    75   ar
    64    74    73    1
    65    99   101   ar
    66    99    98    1
    67     7     6   ar
    68    31    28    1
    69     8     6   ar
    70    96    95    1
    71    96    97    2
    72    66    67    1
    73     6     5    1
    74    28    27    1
    75    73    70    1
    76    95    98    1
    77    95    94    1
    78    83    82   ar
    79    84    82   ar
    80    67    68    2
    81    82    81    1
    82    17    16   ar
    83     5     2    1
    84    18    16   ar
    85    70    71    1
    86    70    69    1
    87    26    24   am
    88    72    71    2
    89    16    15    1
    90     1     2    1
    91    81    78    1
    92    24    23    1
    93    24    25    2
    94     2     3    1
    95    23    20    1
    96    15    12    1
    97    78    77    1
    98    78    79    1
    99    92    91   ar
   100    12    11    1
   101    12    13    1
   102     3     4    2
   103    91    93   ar
   104    91    90    1
   105    22    21    2
   106    20    21    1
   107    20    19    1
   108    13    14    2
   109    79    80    2
   110    90    89    1
   111    89    86    1
   112    85    86    1
   113    86    87    1
   114    87    88    2
