@<TRIPOS>MOLECULE
tmp/3mg4L00.pdb
 103 99 0 0 0
SMALL
GASTEIGER

@<TRIPOS>ATOM
      1  N         15.5830 -127.6040   27.3410 N.3   101  ARG101     -0.1245
      2  CA        15.9330 -128.6180   26.3430 C.3   101  ARG101      0.1563
      3  C         17.1330 -129.4640   26.7610 C.2   101  ARG101      0.2260
      4  O         17.2920 -130.5880   26.3050 O.2   101  ARG101     -0.2867
      5  CB        16.1280 -127.9810   24.9590 C.3   101  ARG101      0.0307
      6  CG        16.8290 -128.8270   23.9100 C.3   101  ARG101      0.0489
      7  CD        16.0440 -130.0590   23.4600 C.3   101  ARG101      0.2205
      8  NE        16.7570 -130.7410   22.3800 N.pl3 101  ARG101     -0.0865
      9  CZ        17.7570 -131.6060   22.5490 C.cat 101  ARG101      0.5346
     10  NH1       18.1670 -131.9280   23.7650 N.pl3 101  ARG101      0.1354
     11  NH2       18.3520 -132.1520   21.4940 N.pl3 101  ARG101      0.1354
     12  N         15.4720 -131.7080   30.5490 N.3   104  PRO104     -0.2116
     13  CA        14.0530 -131.7390   30.2190 C.3   104  PRO104      0.1372
     14  C         13.1220 -131.9370   31.3940 C.2   104  PRO104      0.2244
     15  O         13.5130 -132.4990   32.4120 O.2   104  PRO104     -0.2868
     16  CB        13.9550 -132.9290   29.2650 C.3   104  PRO104      0.0268
     17  CG        15.2580 -132.9540   28.6100 C.3   104  PRO104      0.0207
     18  CD        16.2140 -132.6740   29.7210 C.3   104  PRO104      0.0892
     19  N          5.1810 -136.3780   29.4930 N.3   108  HIS108     -0.1241
     20  CA         4.2750 -136.2530   28.3590 C.3   108  HIS108      0.1621
     21  C          3.0960 -135.3960   28.8200 C.2   108  HIS108      0.2264
     22  O          2.4060 -135.7200   29.7920 O.2   108  HIS108     -0.2867
     23  CB         3.8130 -137.6170   27.8200 C.3   108  HIS108      0.0745
     24  CG         2.9030 -137.5200   26.6280 C.ar  108  HIS108      0.0817
     25  ND1        3.2940 -136.9490   25.4290 N.ar  108  HIS108     -0.2268
     26  CD2        1.6210 -137.9200   26.4490 C.ar  108  HIS108      0.1154
     27  CE1        2.2920 -137.0010   24.5670 C.ar  108  HIS108      0.1986
     28  NE2        1.2660 -137.5880   25.1610 N.ar  108  HIS108     -0.2212
     29  N         -0.9130 -132.2150   22.3470 N.3   124  SER124     -0.1217
     30  CA         0.0170 -133.0910   23.0750 C.3   124  SER124      0.1889
     31  C          1.4930 -132.7420   22.8400 C.2   124  SER124      0.2288
     32  O          1.8820 -132.3120   21.7500 O.2   124  SER124     -0.2866
     33  CB        -0.2670 -134.5840   22.8110 C.3   124  SER124      0.2089
     34  OG         0.3610 -135.0760   21.6320 O.3   124  SER124     -0.2183
     35  N          5.7280 -133.7830   23.5850 N.3   126  ASP126     -0.1225
     36  CA         6.8190 -134.6270   24.0540 C.3   126  ASP126      0.1790
     37  C          7.5500 -133.9170   25.2230 C.2   126  ASP126      0.2440
     38  O          7.1260 -132.8310   25.6310 O.2   126  ASP126     -0.2733
     39  CB         7.7280 -135.0600   22.8820 C.3   126  ASP126      0.1423
     40  CG         8.7720 -134.0230   22.5010 C.2   126  ASP126      0.3668
     41  OD1        9.5430 -134.2910   21.5490 O.co2 126  ASP126     -0.2456
     42  OD2        8.8420 -132.9500   23.1380 O.co2 126  ASP126     -0.2456
     43  N          8.6120 -134.5290   25.7940 N.am  127  PRO127     -0.2718
     44  CA         9.2600 -133.8520   26.9270 C.3   127  PRO127      0.1535
     45  C         10.0000 -132.5500   26.5990 C.2   127  PRO127      0.2598
     46  O         10.1500 -131.7010   27.4810 O.2   127  PRO127     -0.2715
     47  CB        10.2390 -134.9050   27.4410 C.3   127  PRO127      0.0310
     48  CG         9.6430 -136.1920   27.0180 C.3   127  PRO127      0.0237
     49  CD         9.0660 -135.9260   25.6800 C.3   127  PRO127      0.0939
     50  N         10.4480 -132.3880   25.3550 N.am  128  VAL128     -0.1978
     51  CA        11.1910 -131.1820   24.9580 C.3   128  VAL128      0.1596
     52  C         10.3910 -130.1470   24.1330 C.2   128  VAL128      0.2287
     53  O         10.9570 -129.1760   23.6230 O.2   128  VAL128     -0.2864
     54  CB        12.5520 -131.5110   24.2740 C.3   128  VAL128      0.0276
     55  CG1       13.6220 -131.7910   25.3180 C.3   128  VAL128      0.0022
     56  CG2       12.4110 -132.6730   23.3070 C.3   128  VAL128      0.0022
     57  N          7.8520 -130.5890   21.4700 N.3   130  SER130     -0.1202
     58  CA         7.3070 -130.8530   20.1550 C.3   130  SER130      0.2020
     59  C          5.8120 -131.1050   20.2860 C.2   130  SER130      0.2619
     60  O          5.3940 -131.8190   21.1960 O.2   130  SER130     -0.2717
     61  CB         7.9970 -132.0740   19.5730 C.3   130  SER130      0.2103
     62  OG         7.4100 -132.4400   18.3480 O.3   130  SER130     -0.2182
     63  N          5.0030 -130.5260   19.3940 N.am  131  TYR131     -0.1961
     64  CA         3.5360 -130.6340   19.5260 C.3   131  TYR131      0.1771
     65  C          2.7070 -130.6730   18.2400 C.2   131  TYR131      0.2619
     66  O          3.1500 -130.2620   17.1760 O.2   131  TYR131     -0.2715
     67  CB         2.9900 -129.5550   20.4860 C.3   131  TYR131      0.0574
     68  CG         2.8360 -128.1470   19.9160 C.ar  131  TYR131     -0.0198
     69  CD1        1.5720 -127.5840   19.7380 C.ar  131  TYR131     -0.0009
     70  CD2        3.9490 -127.3740   19.5780 C.ar  131  TYR131     -0.0009
     71  CE1        1.4220 -126.3020   19.2260 C.ar  131  TYR131      0.0417
     72  CE2        3.8050 -126.0920   19.0620 C.ar  131  TYR131      0.0417
     73  CZ         2.5410 -125.5640   18.8930 C.ar  131  TYR131      0.1957
     74  OH         2.3920 -124.2920   18.3910 O.3   131  TYR131     -0.2866
     75  N          1.4870 -131.1780   18.3730 N.am  132  GLU132     -0.1977
     76  CA         0.5240 -131.2260   17.2840 C.3   132  GLU132      0.1602
     77  C         -0.8740 -131.0550   17.8640 C.2   132  GLU132      0.2287
     78  O         -1.1060 -131.3680   19.0270 O.2   132  GLU132     -0.2864
     79  CB         0.6070 -132.5760   16.5760 C.3   132  GLU132      0.0415
     80  CG         0.1870 -132.5420   15.1090 C.3   132  GLU132      0.1163
     81  CD         1.3460 -132.1880   14.1590 C.2   132  GLU132      0.3649
     82  OE1        1.0740 -131.8990   12.9610 O.co2 132  GLU132     -0.2457
     83  OE2        2.5240 -132.2070   14.6050 O.co2 132  GLU132     -0.2457
     84  N         -4.3910 -132.6800   17.9450 N.3   134  GLU134     -0.1245
     85  CA        -4.7820 -134.0550   17.6980 C.3   134  GLU134      0.1567
     86  C         -6.2300 -134.3080   18.0350 C.2   134  GLU134      0.2260
     87  O         -6.8350 -133.5550   18.7990 O.2   134  GLU134     -0.2867
     88  CB        -3.8810 -135.0120   18.4740 C.3   134  GLU134      0.0388
     89  CG        -2.7020 -135.5270   17.6470 C.3   134  GLU134      0.1160
     90  CD        -1.4740 -135.8880   18.4840 C.2   134  GLU134      0.3649
     91  OE1       -0.3930 -136.0640   17.8700 O.co2 134  GLU134     -0.2457
     92  OE2       -1.5820 -135.9980   19.7350 O.co2 134  GLU134     -0.2457
     93  N         -5.6200 -138.3210   22.3450 N.3   137  ARG137     -0.1245
     94  CA        -4.2760 -138.7300   22.7280 C.3   137  ARG137      0.1563
     95  C         -4.2150 -139.2750   24.1550 C.2   137  ARG137      0.2260
     96  O         -4.7460 -138.6780   25.0930 O.2   137  ARG137     -0.2867
     97  CB        -3.2980 -137.5680   22.5320 C.3   137  ARG137      0.0307
     98  CG        -1.9410 -137.7260   23.1870 C.3   137  ARG137      0.0489
     99  CD        -1.0900 -138.7340   22.4680 C.3   137  ARG137      0.2205
    100  NE        -0.8800 -138.3900   21.0700 N.pl3 137  ARG137     -0.0865
    101  CZ        -0.3780 -139.2300   20.1710 C.cat 137  ARG137      0.5346
    102  NH1       -0.0390 -140.4690   20.5210 N.pl3 137  ARG137      0.1354
    103  NH2       -0.2230 -138.8390   18.9150 N.pl3 137  ARG137      0.1354
@<TRIPOS>BOND
     1    82    81   ar
     2    81    83   ar
     3    81    80    1
     4    80    79    1
     5    79    76    1
     6    66    65    2
     7    76    77    1
     8    76    75    1
     9    89    88    1
    10    89    90    1
    11    85    84    1
    12    85    86    1
    13    85    88    1
    14    77    78    2
    15    91    90   ar
    16    86    87    2
    17    65    75   am
    18    65    64    1
    19    62    61    1
    20    74    73    1
    21    90    92   ar
    22    73    72   ar
    23    73    71   ar
    24   103   101    1
    25    72    70   ar
    26    71    69   ar
    27    63    64    1
    28    63    59   am
    29    64    67    1
    30    61    58    1
    31    70    68   ar
    32    69    68   ar
    33    68    67    1
    34    58    59    1
    35    58    57    1
    36   101   102    1
    37   101   100    2
    38    59    60    2
    39   100    99    1
    40    11     9    1
    41    41    40   ar
    42    34    33    1
    43    32    31    2
    44    93    94    1
    45    29    30    1
    46     8     9    2
    47     8     7    1
    48    99    98    1
    49    40    39    1
    50    40    42   ar
    51    97    94    1
    52    97    98    1
    53     9    10    1
    54    94    95    1
    55    33    30    1
    56    31    30    1
    57    39    36    1
    58    56    54    1
    59     7     6    1
    60    35    36    1
    61    53    52    2
    62     6     5    1
    63    36    37    1
    64    52    51    1
    65    95    96    2
    66    54    51    1
    67    54    55    1
    68    27    28   ar
    69    27    25   ar
    70    51    50    1
    71     5     2    1
    72    28    26   ar
    73    37    38    2
    74    37    43   am
    75    50    45   am
    76    25    24   ar
    77    49    43    1
    78    49    48    1
    79    43    44    1
    80     4     3    2
    81     2     3    1
    82     2     1    1
    83    26    24   ar
    84    45    44    1
    85    45    46    2
    86    24    23    1
    87    44    47    1
    88    48    47    1
    89    23    20    1
    90    20    21    1
    91    20    19    1
    92    17    16    1
    93    17    18    1
    94    21    22    2
    95    16    13    1
    96    18    12    1
    97    13    12    1
    98    13    14    1
    99    14    15    2
