@<TRIPOS>MOLECULE
tmp/3mg4K00.pdb
 139 132 0 0 0
SMALL
GASTEIGER

@<TRIPOS>ATOM
      1  N         11.3370 -141.5790    9.3600 N.3     1  THR1       -0.1218
      2  CA        10.9320 -140.4090    8.5220 C.3     1  THR1        0.1862
      3  C         11.5480 -140.4530    7.1340 C.2     1  THR1        0.2287
      4  O         12.7320 -140.7490    6.9750 O.2     1  THR1       -0.2866
      5  CB        11.3590 -139.0830    9.1770 C.3     1  THR1        0.1770
      6  OG1       10.6900 -138.9350   10.4330 O.3     1  THR1       -0.2211
      7  CG2       11.0130 -137.9080    8.2900 C.3     1  THR1        0.0375
      8  N          4.9160 -140.2670    9.7920 N.3    19  ARG19      -0.1231
      9  CA         5.0300 -141.1890   10.9220 C.3    19  ARG19       0.1694
     10  C          6.0150 -140.6710   11.9550 C.2    19  ARG19       0.2592
     11  O          7.1140 -140.2350   11.6180 O.2    19  ARG19      -0.2718
     12  CB         5.4120 -142.6060   10.4580 C.3    19  ARG19       0.0321
     13  CG         5.5980 -143.6260   11.5970 C.3    19  ARG19       0.0489
     14  CD         5.8680 -145.0280   11.0860 C.3    19  ARG19       0.2205
     15  NE         4.6270 -145.7310   10.7680 N.pl3  19  ARG19      -0.0865
     16  CZ         4.5530 -146.9660   10.2680 C.cat  19  ARG19       0.5346
     17  NH1        5.6560 -147.6690   10.0110 N.pl3  19  ARG19       0.1354
     18  NH2        3.3620 -147.5030   10.0210 N.pl3  19  ARG19       0.1354
     19  N          5.6050 -140.7200   13.2150 N.am   20  ALA20      -0.1966
     20  CA         6.4670 -140.3390   14.3160 C.3    20  ALA20       0.1728
     21  C          6.5270 -141.4600   15.3400 C.2    20  ALA20       0.2617
     22  O          5.4950 -142.0080   15.7380 O.2    20  ALA20      -0.2715
     23  CB         5.9660 -139.0680   14.9540 C.3    20  ALA20       0.0334
     24  N          7.7420 -141.7830   15.7720 N.am   21  THR21      -0.1937
     25  CA         7.9830 -142.9440   16.6390 C.3    21  THR21       0.2028
     26  C          8.6940 -142.6140   17.9590 C.2    21  THR21       0.2642
     27  O          9.3820 -141.6020   18.0810 O.2    21  THR21      -0.2714
     28  CB         8.8130 -144.0380   15.8960 C.3    21  THR21       0.1808
     29  OG1        9.9910 -143.4480   15.3170 O.3    21  THR21      -0.2208
     30  CG2        7.9820 -144.7140   14.8050 C.3    21  THR21       0.0379
     31  N          8.5090 -143.4800   18.9480 N.am   22  ALA22      -0.1963
     32  CA         9.3320 -143.4740   20.1530 C.3    22  ALA22       0.1728
     33  C          9.7920 -144.9210   20.3850 C.2    22  ALA22       0.2616
     34  O          9.0500 -145.7490   20.9220 O.2    22  ALA22      -0.2715
     35  CB         8.5490 -142.9220   21.3490 C.3    22  ALA22       0.0334
     36  N         11.0080 -145.2280   19.9420 N.am   23  GLY23      -0.1955
     37  CA        11.4760 -146.6050   19.9330 C.3    23  GLY23       0.1869
     38  C         10.7760 -147.3560   18.8160 C.2    23  GLY23       0.2309
     39  O         10.9990 -147.0600   17.6390 O.2    23  GLY23      -0.2863
     40  N          3.9210 -143.2690   17.6290 N.3    27  ALA27      -0.1231
     41  CA         3.3080 -142.2330   18.4570 C.3    27  ALA27       0.1694
     42  C          2.2320 -141.4800   17.7020 C.2    27  ALA27       0.2592
     43  O          1.1630 -141.2000   18.2510 O.2    27  ALA27      -0.2718
     44  CB         4.3530 -141.2790   18.9660 C.3    27  ALA27       0.0304
     45  N          2.5160 -141.1570   16.4440 N.am   28  SER28      -0.1952
     46  CA         1.5460 -140.4970   15.5860 C.3    28  SER28       0.1924
     47  C          1.8180 -140.8080   14.1220 C.2    28  SER28       0.2314
     48  O          2.9680 -141.0270   13.7240 O.2    28  SER28      -0.2863
     49  CB         1.5660 -138.9850   15.8250 C.3    28  SER28       0.2116
     50  OG         0.5630 -138.3210   15.0730 O.3    28  SER28      -0.2180
     51  N          1.3270 -136.4310   11.3900 N.3    31  VAL31      -0.1231
     52  CA         2.2960 -135.4190   11.8150 C.3    31  VAL31       0.1692
     53  C          2.7790 -134.5600   10.6410 C.2    31  VAL31       0.2592
     54  O          3.1720 -135.0900    9.5940 O.2    31  VAL31      -0.2718
     55  CB         3.4910 -136.0730   12.5700 C.3    31  VAL31       0.0266
     56  CG1        4.6400 -135.1090   12.7180 C.3    31  VAL31       0.0020
     57  CG2        3.0540 -136.5480   13.9380 C.3    31  VAL31       0.0020
     58  N          2.7390 -133.2390   10.8110 N.am   32  LYS32      -0.1966
     59  CA         3.2010 -132.3280    9.7630 C.3    32  LYS32       0.1728
     60  C          4.7110 -132.1590    9.8090 C.2    32  LYS32       0.2616
     61  O          5.2500 -131.6440   10.7840 O.2    32  LYS32      -0.2715
     62  CB         2.5010 -130.9700    9.8570 C.3    32  LYS32       0.0311
     63  CG         1.2910 -130.8210    8.9470 C.3    32  LYS32       0.0038
     64  CD        -0.0190 -131.0870    9.6760 C.3    32  LYS32       0.0206
     65  CE        -1.2040 -130.8310    8.7420 C.3    32  LYS32       0.1093
     66  NZ        -2.3330 -130.1430    9.4520 N.3    32  LYS32      -0.1314
     67  N          5.3860 -132.5990    8.7530 N.am   33  LYS33      -0.1977
     68  CA         6.8470 -132.5430    8.6990 C.3    33  LYS33       0.1596
     69  C          7.3640 -131.4640    7.7480 C.2    33  LYS33       0.2287
     70  O          8.5730 -131.3390    7.5330 O.2    33  LYS33      -0.2864
     71  CB         7.4340 -133.9130    8.3480 C.3    33  LYS33       0.0298
     72  CG         7.3600 -134.9250    9.4800 C.3    33  LYS33       0.0038
     73  CD         7.8600 -136.2810    9.0370 C.3    33  LYS33       0.0206
     74  CE         7.5360 -137.3440   10.0600 C.3    33  LYS33       0.1093
     75  NZ         8.0010 -138.6900    9.6300 N.3    33  LYS33      -0.1314
     76  N         11.3600 -131.7170    7.9300 N.3    45  MET45      -0.1230
     77  CA        11.7230 -132.1020    9.2990 C.3    45  MET45       0.1702
     78  C         12.0750 -133.5810    9.4750 C.2    45  MET45       0.2592
     79  O         11.2810 -134.4630    9.1670 O.2    45  MET45      -0.2718
     80  CB        10.6450 -131.6400   10.2890 C.3    45  MET45       0.0401
     81  CG        10.2770 -130.1750   10.0810 C.3    45  MET45       0.0596
     82  SD         9.5620 -129.2910   11.4680 S.3    45  MET45      -0.1393
     83  CE         7.8330 -129.7350   11.3060 C.3    45  MET45       0.0692
     84  N         13.2930 -133.8290    9.9520 N.am   46  ALA46      -0.1966
     85  CA        13.8040 -135.1640   10.2350 C.3    46  ALA46       0.1728
     86  C         14.7910 -135.0180   11.3790 C.2    46  ALA46       0.2617
     87  O         15.3960 -133.9580   11.5340 O.2    46  ALA46      -0.2715
     88  CB        14.4900 -135.7360    9.0190 C.3    46  ALA46       0.0334
     89  N         14.9640 -136.0720   12.1710 N.am   47  GLY47      -0.1940
     90  CA        15.7400 -135.9900   13.4080 C.3    47  GLY47       0.2014
     91  C         14.7870 -135.7980   14.5740 C.2    47  GLY47       0.2639
     92  O         13.6740 -136.3240   14.5650 O.2    47  GLY47      -0.2714
     93  N         15.2190 -135.0450   15.5800 N.am   48  GLY48      -0.1939
     94  CA        14.3600 -134.7140   16.7190 C.3    48  GLY48       0.2014
     95  C         13.1970 -133.8340   16.2970 C.2    48  GLY48       0.2639
     96  O         13.3760 -132.8620   15.5620 O.2    48  GLY48      -0.2714
     97  N         11.9990 -134.1820   16.7510 N.am   49  ALA49      -0.1963
     98  CA        10.8050 -133.4250   16.4010 C.3    49  ALA49       0.1728
     99  C         10.8190 -132.0200   17.0030 C.2    49  ALA49       0.2616
    100  O         10.5220 -131.0480   16.3170 O.2    49  ALA49      -0.2715
    101  CB         9.5790 -134.1690   16.8300 C.3    49  ALA49       0.0334
    102  N         11.1710 -131.9150   18.2820 N.am   50  ALA50      -0.1963
    103  CA        11.2900 -130.6130   18.9270 C.3    50  ALA50       0.1728
    104  C         12.3700 -129.7670   18.2580 C.2    50  ALA50       0.2616
    105  O         12.1150 -128.6390   17.8680 O.2    50  ALA50      -0.2715
    106  CB        11.5660 -130.7690   20.4090 C.3    50  ALA50       0.0334
    107  N         13.5650 -130.3210   18.0970 N.am   51  ASP51      -0.1957
    108  CA        14.6720 -129.5730   17.5050 C.3    51  ASP51       0.1840
    109  C         14.3520 -129.0260   16.1200 C.2    51  ASP51       0.2622
    110  O         14.8890 -127.9940   15.7270 O.2    51  ASP51      -0.2715
    111  CB        15.9410 -130.4200   17.4640 C.3    51  ASP51       0.1450
    112  CG        16.4150 -130.8100   18.8440 C.2    51  ASP51       0.3671
    113  OD1       16.9990 -131.9020   18.9800 O.co2  51  ASP51      -0.2456
    114  OD2       16.1920 -130.0290   19.7970 O.co2  51  ASP51      -0.2456
    115  N         13.4760 -129.7070   15.3870 N.am   52  CYS52      -0.1954
    116  CA        13.0620 -129.2380   14.0680 C.3    52  CYS52       0.1843
    117  C         11.9620 -128.1890   14.1470 C.2    52  CYS52       0.2625
    118  O         12.1180 -127.1030   13.5910 O.2    52  CYS52      -0.2714
    119  CB        12.6260 -130.3990   13.1960 C.3    52  CYS52       0.0997
    120  SG        13.9980 -131.3600   12.6470 S.3    52  CYS52      -0.0797
    121  N         10.8640 -128.5190   14.8300 N.am   53  GLN53      -0.1977
    122  CA         9.7370 -127.6050   15.0240 C.3    53  GLN53       0.1601
    123  C         10.1560 -126.2600   15.5990 C.2    53  GLN53       0.2287
    124  O          9.8110 -125.2130   15.0610 O.2    53  GLN53      -0.2864
    125  CB         8.7240 -128.2130   15.9770 C.3    53  GLN53       0.0394
    126  CG         7.6410 -129.0170   15.3350 C.3    53  GLN53       0.0908
    127  CD         6.4510 -129.2020   16.2630 C.2    53  GLN53       0.2608
    128  OE1        6.5190 -128.9130   17.4650 O.2    53  GLN53      -0.2717
    129  NE2        5.3470 -129.6780   15.7060 N.am   53  GLN53      -0.0878
    130  N         24.1730 -131.8330   21.1510 N.3    94  GLY94      -0.1225
    131  CA        23.2780 -132.9320   20.8340 C.3    94  GLY94       0.1811
    132  C         21.9500 -132.5950   20.1750 C.2    94  GLY94       0.2280
    133  O         21.0200 -133.3910   20.2390 O.2    94  GLY94      -0.2866
    134  N         19.5130 -132.7250   17.2440 N.3    96  SER96      -0.1217
    135  CA        19.3910 -133.7070   16.1740 C.3    96  SER96       0.1889
    136  C         18.3580 -133.2650   15.1500 C.2    96  SER96       0.2288
    137  O         17.1580 -133.2400   15.4290 O.2    96  SER96      -0.2866
    138  CB        19.0350 -135.0810   16.7390 C.3    96  SER96       0.2089
    139  OG        18.7600 -136.0030   15.6990 O.3    96  SER96      -0.2183
@<TRIPOS>BOND
     1     4     3    2
     2     3     2    1
     3    70    69    2
     4    69    68    1
     5    76    77    1
     6     7     5    1
     7    71    68    1
     8    71    72    1
     9     2     5    1
    10     2     1    1
    11    68    67    1
    12    65    66    1
    13    65    64    1
    14    67    60   am
    15    63    64    1
    16    63    62    1
    17    88    85    1
    18    73    72    1
    19    73    74    1
    20    79    78    2
    21     5     6    1
    22    77    78    1
    23    77    80    1
    24    78    84   am
    25    54    53    2
    26    75    74    1
    27    59    60    1
    28    59    62    1
    29    59    58    1
    30     8     9    1
    31    60    61    2
    32    84    85    1
    33    17    16    1
    34    18    16    1
    35    81    80    1
    36    81    82    1
    37    85    86    1
    38    16    15    2
    39    12     9    1
    40    12    13    1
    41    53    58   am
    42    53    52    1
    43    15    14    1
    44     9    10    1
    45    14    13    1
    46    83    82    1
    47    86    87    2
    48    86    89   am
    49    51    52    1
    50    11    10    2
    51    52    55    1
    52    10    19   am
    53    89    90    1
    54    55    56    1
    55    55    57    1
    56   120   119    1
    57   119   116    1
    58    19    20    1
    59    90    91    1
    60   118   117    2
    61    48    47    2
    62   116   117    1
    63   116   115    1
    64    47    46    1
    65   117   121   am
    66    20    23    1
    67    20    21    1
    68    92    91    2
    69    91    93   am
    70    30    28    1
    71   121   122    1
    72   122   123    1
    73   122   125    1
    74   124   123    2
    75    50    49    1
    76   136   137    2
    77   136   135    1
    78    29    28    1
    79   126   125    1
    80   126   127    1
    81    21    22    2
    82    21    24   am
    83   115   109   am
    84    96    95    2
    85    93    94    1
    86    46    49    1
    87    46    45    1
    88   139   138    1
    89   129   127   am
    90   110   109    2
    91    24    25    1
    92    28    25    1
    93   109   108    1
    94   135   138    1
    95   135   134    1
    96   127   128    2
    97    95    94    1
    98    95    97   am
    99   100    99    2
   100    98    97    1
   101    98   101    1
   102    98    99    1
   103    45    42   am
   104    25    26    1
   105    99   102   am
   106   111   108    1
   107   111   112    1
   108   108   107    1
   109    40    41    1
   110    39    38    2
   111    42    43    2
   112    42    41    1
   113   105   104    2
   114    26    27    2
   115    26    31   am
   116   107   104   am
   117   104   103    1
   118   102   103    1
   119    41    44    1
   120    38    37    1
   121   112   113   ar
   122   112   114   ar
   123   103   106    1
   124    31    32    1
   125    37    36    1
   126    36    33   am
   127    32    33    1
   128    32    35    1
   129   132   133    2
   130   132   131    1
   131    33    34    2
   132   131   130    1
