@<TRIPOS>MOLECULE
tmp/3mg6K00.pdb
 133 126 0 0 0
SMALL
GASTEIGER

@<TRIPOS>ATOM
      1  N         11.7940 -140.2850    9.1070 N.3     1  THR1       -0.1218
      2  CA        11.5460 -139.1220    8.2260 C.3     1  THR1        0.1862
      3  C         12.1550 -139.3260    6.8540 C.2     1  THR1        0.2287
      4  O         13.2930 -139.8250    6.7180 O.2     1  THR1       -0.2866
      5  CB        12.1170 -137.8080    8.8100 C.3     1  THR1        0.1770
      6  OG1       11.3590 -137.4310    9.9530 O.3     1  THR1       -0.2211
      7  CG2       12.0060 -136.6860    7.8190 C.3     1  THR1        0.0375
      8  N          5.4240 -138.7010    9.5130 N.3    19  ARG19      -0.1231
      9  CA         5.4920 -139.6030   10.6720 C.3    19  ARG19       0.1694
     10  C          6.4220 -139.1000   11.7810 C.2    19  ARG19       0.2592
     11  O          7.5540 -138.7000   11.5250 O.2    19  ARG19      -0.2718
     12  CB         5.8930 -141.0200   10.2240 C.3    19  ARG19       0.0321
     13  CG         6.3900 -141.9050   11.3650 C.3    19  ARG19       0.0489
     14  CD         6.4140 -143.3530   11.0080 C.3    19  ARG19       0.2205
     15  NE         5.0830 -143.8370   10.6800 N.pl3  19  ARG19      -0.0865
     16  CZ         4.8120 -145.0910   10.3530 C.cat  19  ARG19       0.5346
     17  NH1        5.7820 -145.9970   10.3340 N.pl3  19  ARG19       0.1354
     18  NH2        3.5670 -145.4290   10.0500 N.pl3  19  ARG19       0.1354
     19  N          5.9340 -139.1280   13.0120 N.am   20  ALA20      -0.1966
     20  CA         6.7620 -138.8200   14.1710 C.3    20  ALA20       0.1728
     21  C          6.9300 -140.0690   15.0550 C.2    20  ALA20       0.2617
     22  O          5.9450 -140.7120   15.4110 O.2    20  ALA20      -0.2715
     23  CB         6.1340 -137.6780   14.9790 C.3    20  ALA20       0.0334
     24  N          8.1640 -140.3900   15.4260 N.am   21  THR21      -0.1937
     25  CA         8.4360 -141.5390   16.3060 C.3    21  THR21       0.2028
     26  C          9.2600 -141.2060   17.5600 C.2    21  THR21       0.2642
     27  O         10.0940 -140.2850   17.5490 O.2    21  THR21      -0.2714
     28  CB         9.1990 -142.6640   15.5520 C.3    21  THR21       0.1808
     29  OG1       10.4170 -142.1360   15.0110 O.3    21  THR21      -0.2208
     30  CG2        8.3520 -143.2570   14.4270 C.3    21  THR21       0.0379
     31  N          9.0300 -141.9680   18.6270 N.am   22  ALA22      -0.1963
     32  CA         9.9550 -142.0120   19.7760 C.3    22  ALA22       0.1728
     33  C         10.3200 -143.4800   20.0310 C.2    22  ALA22       0.2616
     34  O          9.4940 -144.2700   20.5250 O.2    22  ALA22      -0.2715
     35  CB         9.3370 -141.3680   21.0310 C.3    22  ALA22       0.0334
     36  N         11.5490 -143.8480   19.6850 N.am   23  GLY23      -0.1955
     37  CA        11.9160 -145.2520   19.6890 C.3    23  GLY23       0.1869
     38  C         11.1160 -145.9100   18.5810 C.2    23  GLY23       0.2309
     39  O         11.1290 -145.4370   17.4340 O.2    23  GLY23      -0.2863
     40  N          4.5190 -141.7970   17.2380 N.3    27  ALA27      -0.1245
     41  CA         4.0110 -140.6860   18.0550 C.3    27  ALA27       0.1562
     42  C          2.8610 -139.9530   17.3700 C.2    27  ALA27       0.2260
     43  O          1.8540 -139.6310   18.0080 O.2    27  ALA27      -0.2867
     44  CB         5.1310 -139.7140   18.3850 C.3    27  ALA27       0.0290
     45  N          2.0850 -135.0220   11.3970 N.3    31  VAL31      -0.1231
     46  CA         3.0060 -133.9630   11.7390 C.3    31  VAL31       0.1692
     47  C          3.3290 -133.1230   10.4860 C.2    31  VAL31       0.2592
     48  O          3.2910 -133.6480    9.3800 O.2    31  VAL31      -0.2718
     49  CB         4.2410 -134.6190   12.4140 C.3    31  VAL31       0.0266
     50  CG1        5.4990 -134.3190   11.6930 C.3    31  VAL31       0.0020
     51  CG2        4.2990 -134.2960   13.8990 C.3    31  VAL31       0.0020
     52  N          3.6000 -131.8190   10.6670 N.am   32  LYS32      -0.1966
     53  CA         3.9690 -130.9040    9.5710 C.3    32  LYS32       0.1728
     54  C          5.4720 -130.6970    9.4040 C.2    32  LYS32       0.2616
     55  O          6.0980 -130.0040   10.1850 O.2    32  LYS32      -0.2715
     56  CB         3.3150 -129.5430    9.7880 C.3    32  LYS32       0.0311
     57  CG         2.1520 -129.2280    8.8620 C.3    32  LYS32       0.0038
     58  CD         0.9600 -130.1840    9.0440 C.3    32  LYS32       0.0206
     59  CE        -0.2130 -129.8170    8.0810 C.3    32  LYS32       0.1093
     60  NZ        -0.9910 -131.0210    7.6230 N.3    32  LYS32      -0.1314
     61  N          6.0530 -131.2640    8.3630 N.am   33  LYS33      -0.1977
     62  CA         7.4990 -131.2180    8.2100 C.3    33  LYS33       0.1596
     63  C          7.9750 -130.1470    7.2370 C.2    33  LYS33       0.2287
     64  O          9.1760 -130.0090    6.9740 O.2    33  LYS33      -0.2864
     65  CB         8.0440 -132.6060    7.8360 C.3    33  LYS33       0.0298
     66  CG         7.8510 -133.6540    8.9370 C.3    33  LYS33       0.0038
     67  CD         8.6170 -134.9240    8.6380 C.3    33  LYS33       0.0206
     68  CE         8.2620 -136.0210    9.6170 C.3    33  LYS33       0.1093
     69  NZ         8.7240 -137.3340    9.1140 N.3    33  LYS33      -0.1314
     70  N         11.9340 -130.3140    7.4780 N.3    45  MET45      -0.1230
     71  CA        12.4390 -130.7400    8.7730 C.3    45  MET45       0.1702
     72  C         12.7160 -132.2540    8.9010 C.2    45  MET45       0.2592
     73  O         11.8190 -133.0810    8.6940 O.2    45  MET45      -0.2718
     74  CB        11.4570 -130.2960    9.8630 C.3    45  MET45       0.0401
     75  CG        11.1550 -128.7930    9.9250 C.3    45  MET45       0.0596
     76  SD         9.7750 -128.6010   11.0690 S.3    45  MET45      -0.1393
     77  CE         8.9820 -127.0750   10.5570 C.3    45  MET45       0.0692
     78  N         13.9570 -132.6060    9.2510 N.am   46  ALA46      -0.1966
     79  CA        14.2960 -133.9750    9.6990 C.3    46  ALA46       0.1728
     80  C         15.2450 -133.9780   10.9030 C.2    46  ALA46       0.2617
     81  O         16.1100 -133.0790   11.0410 O.2    46  ALA46      -0.2715
     82  CB        14.8800 -134.7780    8.5770 C.3    46  ALA46       0.0334
     83  N         15.0900 -134.9970   11.7550 N.am   47  GLY47      -0.1940
     84  CA        15.8270 -135.1250   13.0160 C.3    47  GLY47       0.2014
     85  C         14.9330 -134.8880   14.2180 C.2    47  GLY47       0.2639
     86  O         13.7860 -135.3400   14.2560 O.2    47  GLY47      -0.2714
     87  N         15.4640 -134.1730   15.2060 N.am   48  GLY48      -0.1939
     88  CA        14.7050 -133.7710   16.3840 C.3    48  GLY48       0.2014
     89  C         13.5370 -132.8760   16.0110 C.2    48  GLY48       0.2639
     90  O         13.7070 -131.7860   15.4250 O.2    48  GLY48      -0.2714
     91  N         12.3390 -133.3560   16.3250 N.am   49  ALA49      -0.1963
     92  CA        11.1310 -132.5930   16.0670 C.3    49  ALA49       0.1728
     93  C         11.2520 -131.1790   16.6630 C.2    49  ALA49       0.2616
     94  O         11.2350 -130.1930   15.9290 O.2    49  ALA49      -0.2715
     95  CB         9.9130 -133.3250   16.6120 C.3    49  ALA49       0.0334
     96  N         11.4060 -131.0930   17.9810 N.am   50  ALA50      -0.1963
     97  CA        11.5170 -129.8160   18.6780 C.3    50  ALA50       0.1728
     98  C         12.6010 -128.9160   18.0820 C.2    50  ALA50       0.2616
     99  O         12.3220 -127.7850   17.7240 O.2    50  ALA50      -0.2715
    100  CB        11.7660 -130.0430   20.1540 C.3    50  ALA50       0.0334
    101  N         13.8260 -129.4260   17.9800 N.am   51  ASP51      -0.1957
    102  CA        14.9400 -128.7000   17.3960 C.3    51  ASP51       0.1840
    103  C         14.5620 -128.0960   16.0660 C.2    51  ASP51       0.2622
    104  O         14.8220 -126.9290   15.8330 O.2    51  ASP51      -0.2715
    105  CB        16.1310 -129.6210   17.1590 C.3    51  ASP51       0.1450
    106  CG        16.8660 -129.9750   18.4160 C.2    51  ASP51       0.3671
    107  OD1       17.8120 -130.7890   18.2850 O.co2  51  ASP51      -0.2456
    108  OD2       16.5260 -129.4580   19.5190 O.co2  51  ASP51      -0.2456
    109  N         13.9780 -128.9020   15.1830 N.am   52  CYS52      -0.1954
    110  CA        13.5710 -128.4340   13.8650 C.3    52  CYS52       0.1843
    111  C         12.4560 -127.3540   13.9300 C.2    52  CYS52       0.2625
    112  O         12.6260 -126.2500   13.4230 O.2    52  CYS52      -0.2714
    113  CB        13.1200 -129.6150   13.0170 C.3    52  CYS52       0.0997
    114  SG        14.4560 -130.5650   12.3300 S.3    52  CYS52      -0.0797
    115  N         11.3370 -127.6860   14.5600 N.am   53  GLN53      -0.1977
    116  CA        10.2040 -126.7740   14.6930 C.3    53  GLN53       0.1601
    117  C         10.6320 -125.4430   15.3040 C.2    53  GLN53       0.2287
    118  O         10.2880 -124.3790   14.7980 O.2    53  GLN53      -0.2864
    119  CB         9.1210 -127.4020   15.5750 C.3    53  GLN53       0.0394
    120  CG         7.7110 -127.0870   15.1540 C.3    53  GLN53       0.0908
    121  CD         6.6920 -127.8560   15.9760 C.2    53  GLN53       0.2608
    122  OE1        6.6320 -127.7310   17.2030 O.2    53  GLN53      -0.2717
    123  NE2        5.8800 -128.6520   15.3000 N.am   53  GLN53      -0.0878
    124  N         24.4520 -131.2050   20.9970 N.3    94  GLY94      -0.1225
    125  CA        23.4770 -132.2560   20.7680 C.3    94  GLY94       0.1811
    126  C         22.2390 -131.8450   19.9960 C.2    94  GLY94       0.2280
    127  O         21.2290 -132.5420   20.0330 O.2    94  GLY94      -0.2866
    128  N         19.9940 -131.7840   16.7930 N.3    96  SER96      -0.1217
    129  CA        19.8790 -132.8500   15.8020 C.3    96  SER96       0.1889
    130  C         18.8860 -132.4640   14.7070 C.2    96  SER96       0.2288
    131  O         17.6640 -132.5610   14.8870 O.2    96  SER96      -0.2866
    132  CB        19.4580 -134.1570   16.4890 C.3    96  SER96       0.2089
    133  OG        19.6090 -135.2600   15.6190 O.3    96  SER96      -0.2183
@<TRIPOS>BOND
     1     4     3    2
     2     3     2    1
     3    64    63    2
     4    63    62    1
     5    70    71    1
     6    60    59    1
     7     7     5    1
     8    65    62    1
     9    65    66    1
    10    59    58    1
    11    62    61    1
    12     2     5    1
    13     2     1    1
    14    61    54   am
    15    82    79    1
    16    67    66    1
    17    67    68    1
    18    73    72    2
    19    71    72    1
    20    71    74    1
    21     5     6    1
    22    57    58    1
    23    57    56    1
    24    72    78   am
    25    69    68    1
    26    78    79    1
    27    48    47    2
    28    54    53    1
    29    54    55    2
    30     8     9    1
    31    53    56    1
    32    53    52    1
    33    79    80    1
    34    74    75    1
    35    75    76    1
    36    18    16    1
    37    12     9    1
    38    12    13    1
    39    17    16    1
    40    16    15    2
    41    47    52   am
    42    47    46    1
    43    77    76    1
    44     9    10    1
    45    15    14    1
    46    80    81    2
    47    80    83   am
    48    14    13    1
    49    45    46    1
    50    11    10    2
    51    50    49    1
    52    46    49    1
    53    83    84    1
    54    10    19   am
    55   114   113    1
    56    49    51    1
    57    19    20    1
    58    84    85    1
    59   113   110    1
    60   112   111    2
    61   110   111    1
    62   110   109    1
    63   111   115   am
    64    20    23    1
    65    20    21    1
    66    85    86    2
    67    85    87   am
    68    30    28    1
    69   115   116    1
    70   116   117    1
    71   116   119    1
    72   130   131    2
    73   130   129    1
    74   118   117    2
    75    29    28    1
    76    21    22    2
    77    21    24   am
    78   120   119    1
    79   120   121    1
    80   109   103   am
    81    87    88    1
    82   123   121   am
    83    90    89    2
    84    24    25    1
    85    28    25    1
    86   133   132    1
    87   129   132    1
    88   129   128    1
    89   104   103    2
    90    94    93    2
    91   121   122    2
    92    89    91   am
    93    89    88    1
    94   103   102    1
    95    92    91    1
    96    92    95    1
    97    92    93    1
    98    25    26    1
    99    93    96   am
   100   105   102    1
   101   105   106    1
   102    40    41    1
   103    42    43    2
   104    42    41    1
   105   102   101    1
   106    39    38    2
   107    27    26    2
   108    26    31   am
   109    99    98    2
   110   101    98   am
   111    96    97    1
   112    41    44    1
   113    98    97    1
   114   107   106   ar
   115   106   108   ar
   116    38    37    1
   117    31    32    1
   118    97   100    1
   119    36    37    1
   120    36    33   am
   121    32    33    1
   122    32    35    1
   123   126   127    2
   124   126   125    1
   125    33    34    2
   126   125   124    1
