@<TRIPOS>MOLECULE
tmp/3mg7Y00.pdb
 121 114 0 0 0
SMALL
GASTEIGER

@<TRIPOS>ATOM
      1  N         56.9990 -152.9160    8.2070 N.3     1  THR1       -0.1218
      2  CA        57.2800 -153.9220    7.1450 C.3     1  THR1        0.1862
      3  C         56.6720 -153.5010    5.8270 C.2     1  THR1        0.2287
      4  O         55.5820 -152.9320    5.7850 O.2     1  THR1       -0.2866
      5  CB        56.7260 -155.3200    7.5170 C.3     1  THR1        0.1770
      6  OG1       57.4560 -155.8410    8.6310 O.3     1  THR1       -0.2211
      7  CG2       56.8640 -156.3000    6.3670 C.3     1  THR1        0.0375
      8  N         63.2760 -154.4970    8.1630 N.3    19  ARG19      -0.1231
      9  CA        63.1740 -153.8180    9.4710 C.3    19  ARG19       0.1694
     10  C         62.2150 -154.4970   10.4590 C.2    19  ARG19       0.2592
     11  O         61.0880 -154.8490   10.1120 O.2    19  ARG19      -0.2718
     12  CB        62.8280 -152.3290    9.3170 C.3    19  ARG19       0.0321
     13  CG        62.7030 -151.5900   10.6480 C.3    19  ARG19       0.0489
     14  CD        62.5250 -150.0950   10.4690 C.3    19  ARG19       0.2205
     15  NE        63.7780 -149.4580   10.0820 N.pl3  19  ARG19      -0.0865
     16  CZ        63.9740 -148.1460   10.0320 C.cat  19  ARG19       0.5346
     17  NH1       62.9960 -147.3120   10.3550 N.pl3  19  ARG19       0.1354
     18  NH2       65.1570 -147.6670    9.6640 N.pl3  19  ARG19       0.1354
     19  N         62.6910 -154.6850   11.6860 N.am   20  ALA20      -0.1966
     20  CA        61.8730 -155.2370   12.7520 C.3    20  ALA20       0.1728
     21  C         61.7660 -154.2000   13.8480 C.2    20  ALA20       0.2617
     22  O         62.7760 -153.6740   14.3160 O.2    20  ALA20      -0.2715
     23  CB        62.4720 -156.5290   13.2860 C.3    20  ALA20       0.0334
     24  N         60.5310 -153.8990   14.2380 N.am   21  THR21      -0.1937
     25  CA        60.2650 -152.8980   15.2690 C.3    21  THR21       0.2028
     26  C         59.4340 -153.4620   16.4230 C.2    21  THR21       0.2642
     27  O         58.7110 -154.4480   16.2650 O.2    21  THR21      -0.2714
     28  CB        59.5640 -151.6430   14.6810 C.3    21  THR21       0.1808
     29  OG1       58.4500 -152.0460   13.8780 O.3    21  THR21      -0.2208
     30  CG2       60.5200 -150.8150   13.8230 C.3    21  THR21       0.0379
     31  N         59.5780 -152.8440   17.5910 N.am   22  ALA22      -0.1963
     32  CA        58.6940 -153.0650   18.7350 C.3    22  ALA22       0.1728
     33  C         58.4100 -151.6860   19.2810 C.2    22  ALA22       0.2616
     34  O         59.3020 -151.0360   19.8270 O.2    22  ALA22      -0.2715
     35  CB        59.3620 -153.9060   19.7780 C.3    22  ALA22       0.0334
     36  N         57.1720 -151.2310   19.1120 N.am   23  GLY23      -0.1955
     37  CA        56.8190 -149.8480   19.4070 C.3    23  GLY23       0.1869
     38  C         57.5560 -148.9460   18.4370 C.2    23  GLY23       0.2309
     39  O         57.5780 -149.2130   17.2290 O.2    23  GLY23      -0.2863
     40  N         64.2830 -152.6320   16.2780 N.3    27  ALA27      -0.1245
     41  CA        64.8600 -153.8360   16.8920 C.3    27  ALA27       0.1562
     42  C         66.0080 -154.4230   16.0720 C.2    27  ALA27       0.2260
     43  O         67.0450 -154.8060   16.6280 O.2    27  ALA27      -0.2867
     44  CB        63.7820 -154.8830   17.1420 C.3    27  ALA27       0.0290
     45  N         66.8800 -158.3030    9.0080 N.3    31  VAL31      -0.1231
     46  CA        65.9750 -159.4180    9.2540 C.3    31  VAL31       0.1692
     47  C         65.4960 -160.0660    7.9450 C.2    31  VAL31       0.2592
     48  O         65.3440 -159.3870    6.9260 O.2    31  VAL31      -0.2718
     49  CB        64.8160 -158.9580   10.1990 C.3    31  VAL31       0.0266
     50  CG1       63.4700 -159.0330    9.5430 C.3    31  VAL31       0.0020
     51  CG2       64.8540 -159.7200   11.5100 C.3    31  VAL31       0.0020
     52  N         65.2870 -161.3820    7.9710 N.am   32  LYS32      -0.1966
     53  CA        64.8830 -162.1270    6.7840 C.3    32  LYS32       0.1728
     54  C         63.3730 -162.3020    6.7390 C.2    32  LYS32       0.2616
     55  O         62.8140 -163.1050    7.4900 O.2    32  LYS32      -0.2715
     56  CB        65.5680 -163.4980    6.7470 C.3    32  LYS32       0.0311
     57  CG        66.8860 -163.5500    5.9740 C.3    32  LYS32       0.0038
     58  CD        68.0570 -162.8210    6.6840 C.3    32  LYS32       0.0206
     59  CE        69.3370 -162.8130    5.8260 C.3    32  LYS32       0.1093
     60  NZ        69.0880 -162.2690    4.4490 N.3    32  LYS32      -0.1314
     61  N         62.7140 -161.5610    5.8520 N.am   33  LYS33      -0.1977
     62  CA        61.2570 -161.6150    5.7450 C.3    33  LYS33       0.1596
     63  C         60.7580 -162.5140    4.6100 C.2    33  LYS33       0.2287
     64  O         59.5450 -162.6250    4.3790 O.2    33  LYS33      -0.2864
     65  CB        60.6720 -160.2080    5.6270 C.3    33  LYS33       0.0298
     66  CG        60.8680 -159.3630    6.8710 C.3    33  LYS33       0.0038
     67  CD        60.2180 -158.0070    6.7190 C.3    33  LYS33       0.0206
     68  CE        60.7840 -157.0220    7.7150 C.3    33  LYS33       0.1093
     69  NZ        60.1070 -155.7030    7.6330 N.3    33  LYS33      -0.1314
     70  N         56.6310 -162.4270    4.7760 N.3    45  MET45      -0.1230
     71  CA        56.1980 -162.2520    6.1570 C.3    45  MET45       0.1702
     72  C         55.9310 -160.7970    6.4940 C.2    45  MET45       0.2592
     73  O         56.8100 -159.9470    6.3300 O.2    45  MET45      -0.2718
     74  CB        57.2770 -162.7770    7.1090 C.3    45  MET45       0.0401
     75  CG        57.6950 -164.2210    6.8630 C.3    45  MET45       0.0596
     76  SD        58.5590 -164.9260    8.2740 S.3    45  MET45      -0.1393
     77  CE        60.2410 -164.3910    7.9950 C.3    45  MET45       0.0692
     78  N         54.7240 -160.5110    6.9720 N.am   46  ALA46      -0.1966
     79  CA        54.4240 -159.2140    7.5830 C.3    46  ALA46       0.1728
     80  C         53.5060 -159.4130    8.7780 C.2    46  ALA46       0.2617
     81  O         52.6390 -160.2790    8.7570 O.2    46  ALA46      -0.2715
     82  CB        53.7980 -158.2810    6.5860 C.3    46  ALA46       0.0334
     83  N         53.7040 -158.6110    9.8170 N.am   47  GLY47      -0.1940
     84  CA        52.9020 -158.6970   11.0300 C.3    47  GLY47       0.2014
     85  C         53.7930 -159.1430   12.1570 C.2    47  GLY47       0.2639
     86  O         54.9290 -158.6900   12.2710 O.2    47  GLY47      -0.2714
     87  N         53.2890 -160.0480   12.9860 N.am   48  GLY48      -0.1939
     88  CA        54.0580 -160.5480   14.1120 C.3    48  GLY48       0.2014
     89  C         55.1410 -161.4940   13.6580 C.2    48  GLY48       0.2639
     90  O         54.8460 -162.5660   13.1180 O.2    48  GLY48      -0.2714
     91  N         56.3920 -161.0930   13.8830 N.am   49  ALA49      -0.1963
     92  CA        57.5680 -161.8860   13.5200 C.3    49  ALA49       0.1728
     93  C         57.4460 -163.3490   13.9260 C.2    49  ALA49       0.2616
     94  O         57.5790 -164.2340   13.0690 O.2    49  ALA49      -0.2715
     95  CB        58.8290 -161.2750   14.0880 C.3    49  ALA49       0.0334
     96  N         57.1670 -163.6070   15.2040 N.am   50  ALA50      -0.1977
     97  CA        57.0110 -164.9780   15.6860 C.3    50  ALA50       0.1597
     98  C         55.9250 -165.7370   14.9250 C.2    50  ALA50       0.2287
     99  O         56.1640 -166.8480   14.4540 O.2    50  ALA50      -0.2864
    100  CB        56.7410 -165.0060   17.1800 C.3    50  ALA50       0.0319
    101  N         54.4350 -165.3430   11.8760 N.3    52  CYS52      -0.1221
    102  CA        54.8860 -165.6230   10.5140 C.3    52  CYS52       0.1808
    103  C         56.0380 -166.6150   10.5030 C.2    52  CYS52       0.2601
    104  O         56.0070 -167.6040    9.7850 O.2    52  CYS52      -0.2717
    105  CB        55.3610 -164.3410    9.8300 C.3    52  CYS52       0.0970
    106  SG        54.1030 -163.1360    9.4570 S.3    52  CYS52      -0.0800
    107  N         57.0610 -166.3310   11.2960 N.am   53  GLN53      -0.1979
    108  CA        58.2510 -167.1640   11.3500 C.3    53  GLN53       0.1601
    109  C         57.9000 -168.6080   11.7360 C.2    53  GLN53       0.2287
    110  O         58.2860 -169.5480   11.0450 O.2    53  GLN53      -0.2864
    111  CB        59.2430 -166.5690   12.3420 C.3    53  GLN53       0.0394
    112  CG        60.6040 -166.3030   11.7700 C.3    53  GLN53       0.0908
    113  CD        61.5770 -165.7690   12.8050 C.2    53  GLN53       0.2608
    114  OE1       61.8860 -166.4360   13.8040 O.2    53  GLN53      -0.2717
    115  NE2       62.0720 -164.5640   12.5690 N.am   53  GLN53      -0.0878
    116  N         48.6720 -162.5740   14.2460 N.3    96  SER96      -0.1217
    117  CA        48.7780 -161.3820   13.4400 C.3    96  SER96       0.1889
    118  C         49.8380 -161.5890   12.3760 C.2    96  SER96       0.2288
    119  O         51.0420 -161.5160   12.6510 O.2    96  SER96      -0.2866
    120  CB        49.1230 -160.1840   14.3190 C.3    96  SER96       0.2089
    121  OG        49.4000 -159.0480   13.5280 O.3    96  SER96      -0.2183
@<TRIPOS>BOND
     1    64    63    2
     2    60    59    1
     3    63    62    1
     4    70    71    1
     5    65    62    1
     6    65    66    1
     7    62    61    1
     8     4     3    2
     9    59    58    1
    10     3     2    1
    11    61    54   am
    12    57    58    1
    13    57    56    1
    14    71    72    1
    15    71    74    1
    16    73    72    2
    17     7     5    1
    18    72    78   am
    19    82    79    1
    20    67    66    1
    21    67    68    1
    22    54    53    1
    23    54    55    2
    24    56    53    1
    25    53    52    1
    26    75    74    1
    27    75    76    1
    28    48    47    2
    29    78    79    1
    30     2     5    1
    31     2     1    1
    32     5     6    1
    33    79    80    1
    34    69    68    1
    35    47    52   am
    36    47    46    1
    37    77    76    1
    38     8     9    1
    39    81    80    2
    40    80    83   am
    41    45    46    1
    42    46    49    1
    43    12     9    1
    44    12    13    1
    45   106   105    1
    46     9    10    1
    47    50    49    1
    48    18    16    1
    49   104   103    2
    50    83    84    1
    51   105   102    1
    52    16    15    2
    53    16    17    1
    54    15    14    1
    55    11    10    2
    56    49    51    1
    57    10    19   am
    58    14    13    1
    59   103   102    1
    60   103   107   am
    61   102   101    1
    62    84    85    1
    63   110   109    2
    64   107   108    1
    65   108   109    1
    66   108   111    1
    67    19    20    1
    68   112   111    1
    69   112   113    1
    70    85    86    2
    71    85    87   am
    72   118   119    2
    73   118   117    1
    74   115   113   am
    75    20    23    1
    76    20    21    1
    77   113   114    2
    78    87    88    1
    79    94    93    2
    80    90    89    2
    81   117   116    1
    82   117   120    1
    83    92    91    1
    84    92    93    1
    85    92    95    1
    86   121   120    1
    87    89    91   am
    88    89    88    1
    89    30    28    1
    90    21    24   am
    91    21    22    2
    92    29    28    1
    93    93    96   am
    94    24    25    1
    95    99    98    2
    96    28    25    1
    97    98    97    1
    98    96    97    1
    99    25    26    1
   100    97   100    1
   101    42    43    2
   102    42    41    1
   103    27    26    2
   104    40    41    1
   105    26    31   am
   106    41    44    1
   107    39    38    2
   108    31    32    1
   109    38    37    1
   110    32    33    1
   111    32    35    1
   112    36    33   am
   113    36    37    1
   114    33    34    2
