@<TRIPOS>MOLECULE
tmp/3mg8K00.pdb
 127 120 0 0 0
SMALL
GASTEIGER

@<TRIPOS>ATOM
      1  N         11.5380 -140.0760    9.4390 N.3     1  THR1       -0.1218
      2  CA        11.3040 -138.8580    8.6250 C.3     1  THR1        0.1862
      3  C         11.9200 -138.9650    7.2350 C.2     1  THR1        0.2287
      4  O         13.0520 -139.4380    7.0610 O.2     1  THR1       -0.2866
      5  CB        11.8680 -137.6090    9.3200 C.3     1  THR1        0.1770
      6  OG1       11.0940 -137.3420   10.4900 O.3     1  THR1       -0.2211
      7  CG2       11.8040 -136.3950    8.4170 C.3     1  THR1        0.0375
      8  N          5.1520 -138.3220    9.8740 N.3    19  ARG19      -0.1231
      9  CA         5.2290 -139.1830   11.0590 C.3    19  ARG19       0.1694
     10  C          6.1700 -138.6240   12.1200 C.2    19  ARG19       0.2592
     11  O          7.2850 -138.1950   11.8150 O.2    19  ARG19      -0.2718
     12  CB         5.6480 -140.6090   10.6770 C.3    19  ARG19       0.0321
     13  CG         5.8710 -141.5230   11.8690 C.3    19  ARG19       0.0489
     14  CD         6.0700 -142.9620   11.4560 C.3    19  ARG19       0.2205
     15  NE         4.8390 -143.5420   10.9340 N.pl3  19  ARG19      -0.0865
     16  CZ         4.6730 -144.8260   10.6440 C.cat  19  ARG19       0.5346
     17  NH1        5.6630 -145.6960   10.8300 N.pl3  19  ARG19       0.1354
     18  NH2        3.5090 -145.2410   10.1660 N.pl3  19  ARG19       0.1354
     19  N          5.7000 -138.6130   13.3630 N.am   20  ALA20      -0.1966
     20  CA         6.5570 -138.3270   14.5080 C.3    20  ALA20       0.1728
     21  C          6.8000 -139.6200   15.2760 C.2    20  ALA20       0.2617
     22  O          5.8490 -140.3500   15.5880 O.2    20  ALA20      -0.2715
     23  CB         5.9250 -137.2790   15.4140 C.3    20  ALA20       0.0334
     24  N          8.0640 -139.9010   15.5740 N.am   21  THR21      -0.1937
     25  CA         8.4230 -141.0700   16.3850 C.3    21  THR21       0.2028
     26  C          9.2080 -140.7120   17.6570 C.2    21  THR21       0.2642
     27  O          9.9590 -139.7280   17.6990 O.2    21  THR21      -0.2714
     28  CB         9.2140 -142.1430   15.5600 C.3    21  THR21       0.1808
     29  OG1       10.3840 -141.5560   14.9630 O.3    21  THR21      -0.2208
     30  CG2        8.3420 -142.7440   14.4530 C.3    21  THR21       0.0379
     31  N          9.0100 -141.5180   18.6950 N.am   22  ALA22      -0.1963
     32  CA         9.8290 -141.4690   19.9010 C.3    22  ALA22       0.1728
     33  C         10.1830 -142.9120   20.2250 C.2    22  ALA22       0.2616
     34  O          9.3630 -143.6570   20.7710 O.2    22  ALA22      -0.2715
     35  CB         9.0730 -140.8140   21.0510 C.3    22  ALA22       0.0334
     36  N         11.4010 -143.3130   19.8680 N.am   23  GLY23      -0.1955
     37  CA        11.7750 -144.7230   19.8910 C.3    23  GLY23       0.1869
     38  C         10.9680 -145.4390   18.8250 C.2    23  GLY23       0.2309
     39  O         10.8190 -144.9320   17.7160 O.2    23  GLY23      -0.2863
     40  N          4.3870 -141.4020   17.5780 N.3    27  ALA27      -0.1231
     41  CA         3.8160 -140.3220   18.3740 C.3    27  ALA27       0.1694
     42  C          2.6840 -139.5920   17.6440 C.2    27  ALA27       0.2592
     43  O          1.6770 -139.2250   18.2550 O.2    27  ALA27      -0.2718
     44  CB         4.8990 -139.3490   18.7960 C.3    27  ALA27       0.0304
     45  N          2.8550 -139.3920   16.3390 N.am   28  SER28      -0.1952
     46  CA         1.8320 -138.7800   15.5090 C.3    28  SER28       0.1924
     47  C          1.9820 -139.2260   14.0640 C.2    28  SER28       0.2314
     48  O          3.0860 -139.5670   13.6260 O.2    28  SER28      -0.2863
     49  CB         1.9210 -137.2530   15.5880 C.3    28  SER28       0.2116
     50  OG         1.0820 -136.6450   14.6190 O.3    28  SER28      -0.2180
     51  N          1.7220 -134.7700   11.3210 N.3    31  VAL31      -0.1231
     52  CA         2.5670 -133.6650   11.7440 C.3    31  VAL31       0.1692
     53  C          3.0110 -132.8020   10.5540 C.2    31  VAL31       0.2592
     54  O          3.2020 -133.3120    9.4440 O.2    31  VAL31      -0.2718
     55  CB         3.7610 -134.2280   12.5750 C.3    31  VAL31       0.0266
     56  CG1        5.0500 -133.6200   12.1690 C.3    31  VAL31       0.0020
     57  CG2        3.5050 -134.0770   14.0730 C.3    31  VAL31       0.0020
     58  N          3.1550 -131.4970   10.7890 N.am   32  LYS32      -0.1966
     59  CA         3.5980 -130.5560    9.7570 C.3    32  LYS32       0.1728
     60  C          5.1250 -130.4190    9.7360 C.2    32  LYS32       0.2616
     61  O          5.7040 -129.8860   10.6710 O.2    32  LYS32      -0.2715
     62  CB         2.9570 -129.1770    9.9720 C.3    32  LYS32       0.0311
     63  CG         1.8500 -128.7940    8.9820 C.3    32  LYS32       0.0038
     64  CD         0.5370 -129.5840    9.2000 C.3    32  LYS32       0.0206
     65  CE        -0.5300 -129.2060    8.1480 C.3    32  LYS32       0.1093
     66  NZ        -1.4090 -130.3760    7.8120 N.3    32  LYS32      -0.1314
     67  N          5.7670 -130.8850    8.6680 N.am   33  LYS33      -0.1977
     68  CA         7.2240 -130.8490    8.5670 C.3    33  LYS33       0.1596
     69  C          7.7480 -129.8090    7.5740 C.2    33  LYS33       0.2287
     70  O          8.9250 -129.8130    7.2260 O.2    33  LYS33      -0.2864
     71  CB         7.7760 -132.2370    8.2220 C.3    33  LYS33       0.0298
     72  CG         7.5990 -133.2730    9.3240 C.3    33  LYS33       0.0038
     73  CD         8.1070 -134.6190    8.8820 C.3    33  LYS33       0.0206
     74  CE         7.9730 -135.6280    9.9960 C.3    33  LYS33       0.1093
     75  NZ         8.3380 -136.9940    9.5420 N.3    33  LYS33      -0.1314
     76  N         11.8050 -130.0430    7.8230 N.3    45  MET45      -0.1230
     77  CA        12.2220 -130.4730    9.1570 C.3    45  MET45       0.1702
     78  C         12.5490 -131.9680    9.2440 C.2    45  MET45       0.2592
     79  O         11.7500 -132.8070    8.8320 O.2    45  MET45      -0.2718
     80  CB        11.1320 -130.1360   10.1830 C.3    45  MET45       0.0401
     81  CG        10.6890 -128.6810   10.2140 C.3    45  MET45       0.0596
     82  SD         9.5460 -128.3570   11.5790 S.3    45  MET45      -0.1393
     83  CE         8.8650 -126.7690   11.0920 C.3    45  MET45       0.0692
     84  N         13.7240 -132.2840    9.7910 N.am   46  ALA46      -0.1966
     85  CA        14.1290 -133.6620   10.1040 C.3    46  ALA46       0.1728
     86  C         15.0740 -133.6810   11.3100 C.2    46  ALA46       0.2617
     87  O         15.8800 -132.7640   11.4890 O.2    46  ALA46      -0.2715
     88  CB        14.7870 -134.3140    8.9060 C.3    46  ALA46       0.0334
     89  N         14.9780 -134.7300   12.1250 N.am   47  GLY47      -0.1940
     90  CA        15.7500 -134.8340   13.3600 C.3    47  GLY47       0.2014
     91  C         14.8680 -134.5420   14.5570 C.2    47  GLY47       0.2639
     92  O         13.7050 -134.9390   14.5870 O.2    47  GLY47      -0.2714
     93  N         15.4240 -133.8460   15.5450 N.am   48  GLY48      -0.1939
     94  CA        14.6750 -133.4110   16.7120 C.3    48  GLY48       0.2014
     95  C         13.5650 -132.4520   16.3350 C.2    48  GLY48       0.2639
     96  O         13.8020 -131.4070   15.7150 O.2    48  GLY48      -0.2714
     97  N         12.3440 -132.8210   16.7070 N.am   49  ALA49      -0.1963
     98  CA        11.1690 -132.0370   16.3560 C.3    49  ALA49       0.1728
     99  C         11.2020 -130.6610   17.0140 C.2    49  ALA49       0.2616
    100  O         11.0660 -129.6520   16.3330 O.2    49  ALA49      -0.2715
    101  CB         9.8950 -132.7860   16.7150 C.3    49  ALA49       0.0334
    102  N         11.3870 -130.6210   18.3310 N.am   50  ALA50      -0.1977
    103  CA        11.5060 -129.3510   19.0530 C.3    50  ALA50       0.1597
    104  C         12.5960 -128.4600   18.4460 C.2    50  ALA50       0.2287
    105  O         12.3300 -127.3190   18.0910 O.2    50  ALA50      -0.2864
    106  CB        11.7650 -129.5940   20.5230 C.3    50  ALA50       0.0319
    107  N         13.9120 -128.4470   15.5100 N.3    52  CYS52      -0.1221
    108  CA        13.4510 -127.9550   14.2120 C.3    52  CYS52       0.1808
    109  C         12.3430 -126.8960   14.3180 C.2    52  CYS52       0.2601
    110  O         12.5120 -125.7590   13.8550 O.2    52  CYS52      -0.2717
    111  CB        13.0030 -129.1220   13.3490 C.3    52  CYS52       0.0970
    112  SG        14.3990 -130.0690   12.7230 S.3    52  CYS52      -0.0800
    113  N         11.2290 -127.2750   14.9430 N.am   53  GLN53      -0.1979
    114  CA        10.0910 -126.3880   15.1720 C.3    53  GLN53       0.1601
    115  C         10.5320 -125.0570   15.7490 C.2    53  GLN53       0.2287
    116  O         10.2080 -124.0020   15.2040 O.2    53  GLN53      -0.2864
    117  CB         9.0980 -127.0450   16.1240 C.3    53  GLN53       0.0394
    118  CG         7.6720 -127.0270   15.6370 C.3    53  GLN53       0.0908
    119  CD         6.7690 -127.9140   16.4690 C.2    53  GLN53       0.2608
    120  OE1        6.6670 -127.7520   17.6830 O.2    53  GLN53      -0.2717
    121  NE2        6.1010 -128.8470   15.8200 N.am   53  GLN53      -0.0878
    122  N         19.8130 -131.5310   17.0940 N.3    96  SER96      -0.1217
    123  CA        19.6940 -132.5710   16.0880 C.3    96  SER96       0.1889
    124  C         18.7090 -132.1470   15.0090 C.2    96  SER96       0.2288
    125  O         17.4930 -132.1760   15.2160 O.2    96  SER96      -0.2866
    126  CB        19.2730 -133.8890   16.7400 C.3    96  SER96       0.2089
    127  OG        19.3730 -134.9480   15.8090 O.3    96  SER96      -0.2183
@<TRIPOS>BOND
     1     4     3    2
     2    70    69    2
     3     3     2    1
     4    69    68    1
     5    66    65    1
     6    76    77    1
     7    65    64    1
     8    71    68    1
     9    71    72    1
    10     7     5    1
    11    68    67    1
    12     2     5    1
    13     2     1    1
    14    67    60   am
    15    79    78    2
    16    73    72    1
    17    73    74    1
    18    88    85    1
    19    63    64    1
    20    63    62    1
    21    77    78    1
    22    77    80    1
    23    78    84   am
    24     5     6    1
    25    54    53    2
    26    75    74    1
    27    60    59    1
    28    60    61    2
    29    59    62    1
    30    59    58    1
    31    84    85    1
    32     8     9    1
    33    85    86    1
    34    18    16    1
    35    80    81    1
    36    81    82    1
    37    53    58   am
    38    53    52    1
    39    16    17    1
    40    16    15    2
    41    12     9    1
    42    12    13    1
    43    15    14    1
    44     9    10    1
    45    83    82    1
    46    86    87    2
    47    86    89   am
    48    51    52    1
    49    14    13    1
    50    52    55    1
    51    11    10    2
    52    10    19   am
    53    89    90    1
    54    56    55    1
    55    55    57    1
    56   112   111    1
    57   111   108    1
    58    90    91    1
    59    19    20    1
    60    48    47    2
    61   110   109    2
    62    47    46    1
    63   108   109    1
    64   108   107    1
    65   109   113   am
    66    30    28    1
    67    20    21    1
    68    20    23    1
    69    91    92    2
    70    91    93   am
    71    50    49    1
    72   113   114    1
    73    29    28    1
    74   124   125    2
    75   124   123    1
    76   114   115    1
    77   114   117    1
    78   116   115    2
    79    21    24   am
    80    21    22    2
    81    46    49    1
    82    46    45    1
    83    93    94    1
    84    28    25    1
    85    24    25    1
    86   118   117    1
    87   118   119    1
    88    96    95    2
    89   127   126    1
    90   121   119   am
    91   123   126    1
    92   123   122    1
    93   100    99    2
    94    95    97   am
    95    95    94    1
    96    45    42   am
    97    98    97    1
    98    98   101    1
    99    98    99    1
   100    25    26    1
   101   119   120    2
   102    99   102   am
   103    40    41    1
   104    42    43    2
   105    42    41    1
   106    26    27    2
   107    26    31   am
   108    39    38    2
   109   105   104    2
   110   102   103    1
   111    41    44    1
   112   104   103    1
   113    31    32    1
   114    38    37    1
   115   103   106    1
   116    36    37    1
   117    36    33   am
   118    32    33    1
   119    32    35    1
   120    33    34    2
