@<TRIPOS>MOLECULE
tmp/3mg8Z00.pdb
 126 124 0 0 0
SMALL
GASTEIGER

@<TRIPOS>ATOM
      1  N         53.1660 -168.2980   23.3200 N.3   101  ARG101     -0.1245
      2  CA        52.7030 -167.1360   22.5470 C.3   101  ARG101      0.1563
      3  C         51.5530 -166.3390   23.1800 C.2   101  ARG101      0.2260
      4  O         51.4890 -165.1210   23.0280 O.2   101  ARG101     -0.2867
      5  CB        52.3240 -167.5660   21.1240 C.3   101  ARG101      0.0307
      6  CG        51.5920 -166.5330   20.2790 C.3   101  ARG101      0.0489
      7  CD        52.4600 -165.3270   19.9070 C.3   101  ARG101      0.2205
      8  NE        51.7040 -164.3870   19.0790 N.pl3 101  ARG101     -0.0865
      9  CZ        50.7880 -163.5420   19.5470 C.cat 101  ARG101      0.5346
     10  NH1       50.5210 -163.4990   20.8410 N.pl3 101  ARG101      0.1354
     11  NH2       50.1290 -162.7430   18.7220 N.pl3 101  ARG101      0.1354
     12  N         53.1160 -165.0630   27.5080 N.3   104  PRO104     -0.2116
     13  CA        54.5360 -165.0800   27.1720 C.3   104  PRO104      0.1372
     14  C         55.4950 -165.0130   28.3500 C.2   104  PRO104      0.2244
     15  O         55.1280 -164.5740   29.4380 O.2   104  PRO104     -0.2868
     16  CB        54.6980 -163.8210   26.3080 C.3   104  PRO104      0.0268
     17  CG        53.3160 -163.4590   25.8750 C.3   104  PRO104      0.0207
     18  CD        52.4720 -163.8260   27.0260 C.3   104  PRO104      0.0892
     19  N         58.1300 -162.8960   29.8270 N.3   106  TYR106     -0.1241
     20  CA        58.4700 -161.4740   29.6770 C.3   106  TYR106      0.1605
     21  C         59.9770 -161.2610   29.7720 C.2   106  TYR106      0.2264
     22  O         60.4850 -160.7020   30.7460 O.2   106  TYR106     -0.2867
     23  CB        57.6920 -160.5720   30.6610 C.3   106  TYR106      0.0534
     24  CG        56.3650 -160.0140   30.1370 C.ar  106  TYR106     -0.0201
     25  CD1       55.5480 -160.7710   29.2900 C.ar  106  TYR106     -0.0009
     26  CD2       55.9100 -158.7430   30.5200 C.ar  106  TYR106     -0.0009
     27  CE1       54.3220 -160.2800   28.8150 C.ar  106  TYR106      0.0417
     28  CE2       54.6750 -158.2370   30.0530 C.ar  106  TYR106      0.0417
     29  CZ        53.8900 -159.0210   29.1960 C.ar  106  TYR106      0.1957
     30  OH        52.6800 -158.5630   28.7090 O.3   106  TYR106     -0.2866
     31  N         63.7900 -160.6380   27.2930 N.3   108  HIS108     -0.1241
     32  CA        64.5850 -160.5030   26.0840 C.3   108  HIS108      0.1621
     33  C         65.7140 -161.5180   26.2180 C.2   108  HIS108      0.2264
     34  O         66.5300 -161.4500   27.1520 O.2   108  HIS108     -0.2867
     35  CB        65.1610 -159.0890   25.9390 C.3   108  HIS108      0.0745
     36  CG        64.1400 -158.0360   25.6120 C.ar  108  HIS108      0.0817
     37  ND1       63.5860 -157.8990   24.3510 N.ar  108  HIS108     -0.2268
     38  CD2       63.6040 -157.0430   26.3720 C.ar  108  HIS108      0.1154
     39  CE1       62.7360 -156.8840   24.3540 C.ar  108  HIS108      0.1986
     40  NE2       62.7330 -156.3450   25.5670 N.ar  108  HIS108     -0.2212
     41  N         69.5280 -163.4430   19.0200 N.3   124  SER124     -0.1202
     42  CA        68.6590 -162.8040   20.0010 C.3   124  SER124      0.2020
     43  C         67.1880 -162.9490   19.6530 C.2   124  SER124      0.2619
     44  O         66.8420 -163.1340   18.4910 O.2   124  SER124     -0.2717
     45  CB        69.0360 -161.3370   20.1840 C.3   124  SER124      0.2103
     46  OG        68.6630 -160.5770   19.0560 O.3   124  SER124     -0.2182
     47  N         66.3340 -162.8660   20.6770 N.am  125  PHE125     -0.1961
     48  CA        64.9030 -163.1880   20.5610 C.3   125  PHE125      0.1771
     49  C         64.0140 -162.1020   21.1610 C.2   125  PHE125      0.2620
     50  O         64.3970 -161.4400   22.1310 O.2   125  PHE125     -0.2715
     51  CB        64.5960 -164.4960   21.2990 C.3   125  PHE125      0.0574
     52  CG        65.4660 -165.6580   20.8950 C.ar  125  PHE125     -0.0200
     53  CD1       66.7950 -165.7370   21.3120 C.ar  125  PHE125     -0.0042
     54  CD2       64.9460 -166.6940   20.1270 C.ar  125  PHE125     -0.0042
     55  CE1       67.5970 -166.8130   20.9450 C.ar  125  PHE125     -0.0003
     56  CE2       65.7450 -167.7750   19.7530 C.ar  125  PHE125     -0.0003
     57  CZ        67.0700 -167.8350   20.1630 C.ar  125  PHE125     -0.0000
     58  N         62.8150 -161.9320   20.6100 N.am  126  ASP126     -0.1958
     59  CA        61.8000 -161.1400   21.2920 C.3   126  ASP126      0.1825
     60  C         61.0710 -162.0860   22.2470 C.2   126  ASP126      0.2464
     61  O         61.2860 -163.3080   22.1680 O.2   126  ASP126     -0.2730
     62  CB        60.8680 -160.4130   20.3070 C.3   126  ASP126      0.1450
     63  CG        59.9670 -161.3560   19.5040 C.2   126  ASP126      0.3671
     64  OD1       59.3600 -160.8720   18.5210 O.co2 126  ASP126     -0.2456
     65  OD2       59.8460 -162.5590   19.8330 O.co2 126  ASP126     -0.2456
     66  N         60.2380 -161.5410   23.1700 N.am  127  PRO127     -0.2715
     67  CA        59.5900 -162.3720   24.1880 C.3   127  PRO127      0.1536
     68  C         58.8000 -163.5730   23.6650 C.2   127  PRO127      0.2598
     69  O         58.5760 -164.5240   24.4220 O.2   127  PRO127     -0.2715
     70  CB        58.6620 -161.3880   24.8980 C.3   127  PRO127      0.0310
     71  CG        59.3220 -160.0930   24.7530 C.3   127  PRO127      0.0237
     72  CD        59.9790 -160.1090   23.4100 C.3   127  PRO127      0.0939
     73  N         58.3930 -163.5500   22.3960 N.am  128  VAL128     -0.1978
     74  CA        57.5910 -164.6560   21.8510 C.3   128  VAL128      0.1596
     75  C         58.2540 -165.5340   20.7750 C.2   128  VAL128      0.2287
     76  O         57.5760 -166.3200   20.1140 O.2   128  VAL128     -0.2864
     77  CB        56.1690 -164.2030   21.4030 C.3   128  VAL128      0.0276
     78  CG1       55.3410 -163.7890   22.6110 C.3   128  VAL128      0.0022
     79  CG2       56.2420 -163.0630   20.3870 C.3   128  VAL128      0.0022
     80  N         60.6730 -164.7820   18.0680 N.3   130  SER130     -0.1202
     81  CA        61.2300 -164.2750   16.8280 C.3   130  SER130      0.2020
     82  C         62.7240 -164.0690   17.0310 C.2   130  SER130      0.2619
     83  O         63.1390 -163.5440   18.0540 O.2   130  SER130     -0.2717
     84  CB        60.5060 -162.9810   16.4620 C.3   130  SER130      0.2103
     85  OG        61.3650 -161.9350   16.0870 O.3   130  SER130     -0.2182
     86  N         63.5390 -164.5130   16.0800 N.am  131  TYR131     -0.1961
     87  CA        64.9890 -164.4560   16.2820 C.3   131  TYR131      0.1771
     88  C         65.8300 -164.1510   15.0510 C.2   131  TYR131      0.2619
     89  O         65.3810 -164.2920   13.9180 O.2   131  TYR131     -0.2715
     90  CB        65.5040 -165.7230   16.9680 C.3   131  TYR131      0.0574
     91  CG        65.5390 -166.9710   16.1190 C.ar  131  TYR131     -0.0198
     92  CD1       66.7540 -167.5040   15.6820 C.ar  131  TYR131     -0.0009
     93  CD2       64.3610 -167.6440   15.7730 C.ar  131  TYR131     -0.0009
     94  CE1       66.7990 -168.6650   14.9110 C.ar  131  TYR131      0.0417
     95  CE2       64.3970 -168.8070   14.9940 C.ar  131  TYR131      0.0417
     96  CZ        65.6240 -169.3100   14.5730 C.ar  131  TYR131      0.1957
     97  OH        65.6680 -170.4530   13.8120 O.3   131  TYR131     -0.2866
     98  N         67.0590 -163.7230   15.3030 N.am  132  GLU132     -0.1977
     99  CA        67.9790 -163.3580   14.2470 C.3   132  GLU132      0.1602
    100  C         69.3910 -163.5610   14.7460 C.2   132  GLU132      0.2287
    101  O         69.6750 -163.3210   15.9160 O.2   132  GLU132     -0.2864
    102  CB        67.7790 -161.8870   13.8700 C.3   132  GLU132      0.0415
    103  CG        68.3710 -161.4880   12.5190 C.3   132  GLU132      0.1163
    104  CD        68.8970 -160.0420   12.4810 C.2   132  GLU132      0.3649
    105  OE1       69.6760 -159.7370   11.5440 O.co2 132  GLU132     -0.2457
    106  OE2       68.5470 -159.2170   13.3710 O.co2 132  GLU132     -0.2457
    107  N         73.1110 -162.1630   14.7510 N.3   134  GLU134     -0.1245
    108  CA        73.7060 -160.8370   14.6060 C.3   134  GLU134      0.1567
    109  C         75.1460 -160.8380   15.0630 C.2   134  GLU134      0.2260
    110  O         75.6090 -161.7880   15.6960 O.2   134  GLU134     -0.2867
    111  CB        72.9340 -159.8120   15.4430 C.3   134  GLU134      0.0388
    112  CG        71.5970 -159.3720   14.8550 C.3   134  GLU134      0.1160
    113  CD        70.5320 -159.1550   15.9290 C.2   134  GLU134      0.3649
    114  OE1       69.6460 -158.2960   15.7090 O.co2 134  GLU134     -0.2457
    115  OE2       70.5800 -159.8500   16.9810 O.co2 134  GLU134     -0.2457
    116  N         74.4500 -157.4950   20.1600 N.3   137  ARG137     -0.1245
    117  CA        73.0980 -157.1990   20.6110 C.3   137  ARG137      0.1563
    118  C         73.0800 -156.8210   22.0860 C.2   137  ARG137      0.2260
    119  O         73.7470 -157.4500   22.9020 O.2   137  ARG137     -0.2867
    120  CB        72.1830 -158.4050   20.3290 C.3   137  ARG137      0.0307
    121  CG        70.7710 -158.3480   20.9280 C.3   137  ARG137      0.0489
    122  CD        69.9470 -157.1640   20.4380 C.3   137  ARG137      0.2205
    123  NE        69.3840 -157.3810   19.1140 N.pl3 137  ARG137     -0.0865
    124  CZ        68.5660 -156.5330   18.5010 C.cat 137  ARG137      0.5346
    125  NH1       68.2090 -155.3930   19.0760 N.pl3 137  ARG137      0.1354
    126  NH2       68.1080 -156.8210   17.2980 N.pl3 137  ARG137      0.1354
@<TRIPOS>BOND
     1   105   104   ar
     2   104   103    1
     3   104   106   ar
     4   103   102    1
     5    97    96    1
     6   102    99    1
     7    89    88    2
     8    99   100    1
     9    99    98    1
    10    96    94   ar
    11    96    95   ar
    12   108   107    1
    13   108   109    1
    14   108   111    1
    15   100   101    2
    16   112   111    1
    17   112   113    1
    18    94    92   ar
    19    95    93   ar
    20    88    98   am
    21    88    87    1
    22   109   110    2
    23    92    91   ar
    24   114   113   ar
    25    93    91   ar
    26   113   115   ar
    27    86    87    1
    28    86    82   am
    29    85    84    1
    30    91    90    1
    31    87    90    1
    32    84    81    1
    33    81    82    1
    34    81    80    1
    35    82    83    2
    36   126   124    1
    37    44    43    2
    38   124   125    1
    39   124   123    2
    40    64    63   ar
    41    11     9    1
    42    41    42    1
    43    46    45    1
    44     8     9    2
    45     8     7    1
    46   123   122    1
    47    63    65   ar
    48    63    62    1
    49     9    10    1
    50    43    42    1
    51    43    47   am
    52    56    54   ar
    53    56    57   ar
    54     7     6    1
    55    42    45    1
    56    76    75    2
    57    54    52   ar
    58   116   117    1
    59    57    55   ar
    60     6     5    1
    61    62    59    1
    62   120   117    1
    63   120   121    1
    64    79    77    1
    65   122   121    1
    66    48    47    1
    67    48    49    1
    68    48    51    1
    69    58    49   am
    70    58    59    1
    71   117   118    1
    72    75    74    1
    73    52    51    1
    74    52    53   ar
    75    55    53   ar
    76     5     2    1
    77    49    50    2
    78    59    60    1
    79    77    74    1
    80    77    78    1
    81    74    73    1
    82   118   119    2
    83    61    60    2
    84    60    66   am
    85    73    68   am
    86     2     3    1
    87     2     1    1
    88     4     3    2
    89    66    72    1
    90    66    67    1
    91    72    71    1
    92    68    67    1
    93    68    69    2
    94    67    70    1
    95    37    39   ar
    96    37    36   ar
    97    39    40   ar
    98    71    70    1
    99    40    38   ar
   100    36    35    1
   101    36    38   ar
   102    17    16    1
   103    17    18    1
   104    35    32    1
   105    32    33    1
   106    32    31    1
   107    33    34    2
   108    16    13    1
   109    18    12    1
   110    13    12    1
   111    13    14    1
   112    14    15    2
   113    30    29    1
   114    27    29   ar
   115    27    25   ar
   116    29    28   ar
   117    25    24   ar
   118    20    21    1
   119    20    19    1
   120    20    23    1
   121    21    22    2
   122    28    26   ar
   123    24    26   ar
   124    24    23    1
