@<TRIPOS>MOLECULE
tmp/3mg9A00.pdb
 247 237 0 0 0
SMALL
GASTEIGER

@<TRIPOS>ATOM
      1  N        -14.7300    3.8450   17.1480 N.3    13  LYS13      -0.1245
      2  CA       -15.5760    3.7100   15.9580 C.3    13  LYS13       0.1561
      3  C        -14.8730    4.1370   14.6750 C.2    13  LYS13       0.2260
      4  O        -15.5140    4.3130   13.6420 O.2    13  LYS13      -0.2867
      5  CB       -16.8980    4.4900   16.1140 C.3    13  LYS13       0.0271
      6  CG       -17.8320    3.9350   17.1920 C.3    13  LYS13       0.0035
      7  CD       -17.9370    2.4000   17.1240 C.3    13  LYS13       0.0206
      8  CE       -18.4570    1.9140   15.7650 C.3    13  LYS13       0.1093
      9  NZ       -18.3020    0.4360   15.5710 N.3    13  LYS13      -0.1314
     10  N        -12.3540    2.4450   13.3290 N.3    15  GLY15      -0.1225
     11  CA       -11.9630    1.2670   12.5760 C.3    15  GLY15       0.1811
     12  C        -11.0740    0.2120   13.2170 C.2    15  GLY15       0.2280
     13  O        -10.9330   -0.8730   12.6560 O.2    15  GLY15      -0.2866
     14  N        -12.6350   -3.2710   13.6110 N.3    18  TRP18      -0.1241
     15  CA       -12.8660   -3.8750   12.3050 C.3    18  TRP18       0.1605
     16  C        -11.5870   -4.5010   11.7310 C.2    18  TRP18       0.2264
     17  O        -11.6050   -5.6370   11.2570 O.2    18  TRP18      -0.2867
     18  CB       -13.4330   -2.8230   11.3510 C.3    18  TRP18       0.0550
     19  CG       -13.6470   -3.2890    9.9430 C.ar   18  TRP18       0.0003
     20  CD1      -13.8860   -4.5630    9.5250 C.ar   18  TRP18       0.0946
     21  CD2      -13.6540   -2.4750    8.7690 C.ar   18  TRP18       0.0152
     22  NE1      -14.0310   -4.5980    8.1610 N.ar   18  TRP18      -0.2442
     23  CE2      -13.8950   -3.3280    7.6710 C.ar   18  TRP18       0.0810
     24  CE3      -13.4910   -1.1010    8.5370 C.ar   18  TRP18       0.0012
     25  CZ2      -13.9780   -2.8550    6.3600 C.ar   18  TRP18       0.0191
     26  CZ3      -13.5660   -0.6320    7.2330 C.ar   18  TRP18       0.0001
     27  CH2      -13.8110   -1.5070    6.1630 C.ar   18  TRP18       0.0015
     28  N        -18.1020   -9.5930   17.0450 N.3    35  TRP35      -0.1227
     29  CA       -16.9440   -8.7180   16.9130 C.3    35  TRP35       0.1737
     30  C        -16.6430   -7.9410   18.1950 C.2    35  TRP35       0.2595
     31  O        -15.4810   -7.6580   18.5020 O.2    35  TRP35      -0.2718
     32  CB       -17.0980   -7.7990   15.7020 C.3    35  TRP35       0.0564
     33  CG       -16.7580   -8.5090   14.4190 C.ar   35  TRP35       0.0003
     34  CD1      -16.8220   -9.8610   14.1880 C.ar   35  TRP35       0.0946
     35  CD2      -16.2890   -7.9160   13.1980 C.ar   35  TRP35       0.0152
     36  NE1      -16.4230  -10.1400   12.9040 N.ar   35  TRP35      -0.2442
     37  CE2      -16.0920   -8.9660   12.2740 C.ar   35  TRP35       0.0810
     38  CE3      -16.0160   -6.6000   12.7960 C.ar   35  TRP35       0.0012
     39  CZ2      -15.6370   -8.7400   10.9700 C.ar   35  TRP35       0.0191
     40  CZ3      -15.5680   -6.3780   11.5010 C.ar   35  TRP35       0.0001
     41  CH2      -15.3840   -7.4420   10.6050 C.ar   35  TRP35       0.0015
     42  N        -17.6880   -7.6310   18.9540 N.am   36  ASN36      -0.1974
     43  CA       -17.5330   -6.9290   20.2270 C.3    36  ASN36       0.1688
     44  C        -16.9880   -7.8050   21.3550 C.2    36  ASN36       0.2292
     45  O        -16.8050   -7.3350   22.4770 O.2    36  ASN36      -0.2864
     46  CB       -18.8510   -6.2780   20.6450 C.3    36  ASN36       0.1181
     47  CG       -19.2730   -5.1690   19.7000 C.2    36  ASN36       0.2629
     48  OD1      -18.4670   -4.6660   18.9110 O.2    36  ASN36      -0.2716
     49  ND2      -20.5390   -4.7800   19.7740 N.am   36  ASN36      -0.0877
     50  N        -11.2790    8.1590   10.6190 N.3    91  ARG91      -0.1245
     51  CA       -12.6000    8.1110   10.0320 C.3    91  ARG91       0.1563
     52  C        -13.2190    9.5000   10.1010 C.2    91  ARG91       0.2260
     53  O        -12.9330   10.2720   11.0160 O.2    91  ARG91      -0.2867
     54  CB       -13.4760    7.0730   10.7600 C.3    91  ARG91       0.0307
     55  CG       -14.8660    6.9560   10.1900 C.3    91  ARG91       0.0489
     56  CD       -15.7210    5.9360   10.9400 C.3    91  ARG91       0.2205
     57  NE       -17.0100    5.7370   10.2760 N.pl3  91  ARG91      -0.0865
     58  CZ       -18.0260    5.0600   10.7990 C.cat  91  ARG91       0.5346
     59  NH1      -17.9200    4.5080   12.0110 N.pl3  91  ARG91       0.1354
     60  NH2      -19.1530    4.9390   10.1120 N.pl3  91  ARG91       0.1354
     61  N        -21.8450   10.0860   14.9960 N.3    98  LEU98      -0.1231
     62  CA       -23.1630    9.4720   14.9910 C.3    98  LEU98       0.1693
     63  C        -23.1030    8.0180   15.4320 C.2    98  LEU98       0.2592
     64  O        -24.0320    7.5240   16.0800 O.2    98  LEU98      -0.2718
     65  CB       -23.8020    9.6010   13.6080 C.3    98  LEU98       0.0284
     66  CG       -24.2380   11.0360   13.2910 C.3    98  LEU98       0.0019
     67  CD1      -24.6340   11.1650   11.8360 C.3    98  LEU98       0.0001
     68  CD2      -25.3890   11.4640   14.2210 C.3    98  LEU98       0.0001
     69  N        -22.0030    7.3390   15.1020 N.am   99  SER99      -0.1952
     70  CA       -21.8620    5.9380   15.4880 C.3    99  SER99       0.1924
     71  C        -21.4950    5.7740   16.9710 C.2    99  SER99       0.2314
     72  O        -22.0430    4.9160   17.6450 O.2    99  SER99      -0.2863
     73  CB       -20.9110    5.1730   14.5510 C.3    99  SER99       0.2116
     74  OG       -19.6280    5.7610   14.5040 O.3    99  SER99      -0.2180
     75  N        -24.4050    5.8810   19.7940 N.3   102  ARG102     -0.1231
     76  CA       -25.1010    4.6640   20.2060 C.3   102  ARG102      0.1694
     77  C        -24.4480    3.9550   21.4030 C.2   102  ARG102      0.2591
     78  O        -25.1180    3.2480   22.1590 O.2   102  ARG102     -0.2718
     79  CB       -25.2250    3.6970   19.0260 C.3   102  ARG102      0.0321
     80  CG       -26.0180    2.4620   19.3610 C.3   102  ARG102      0.0489
     81  CD       -25.3460    1.2050   18.8420 C.3   102  ARG102      0.2205
     82  NE       -25.7810    0.8880   17.4880 N.pl3 102  ARG102     -0.0865
     83  CZ       -25.3510   -0.1580   16.7940 C.cat 102  ARG102      0.5346
     84  NH1      -24.4680   -0.9930   17.3270 N.pl3 102  ARG102      0.1354
     85  NH2      -25.8050   -0.3650   15.5670 N.pl3 102  ARG102      0.1354
     86  N        -23.1430    4.1460   21.5700 N.am  103  MET103     -0.1979
     87  CA       -22.4140    3.5500   22.6870 C.3   103  MET103      0.1605
     88  C        -22.7330    4.2260   24.0260 C.2   103  MET103      0.2287
     89  O        -22.3220    3.7500   25.0840 O.2   103  MET103     -0.2864
     90  CB       -20.9070    3.5790   22.4200 C.3   103  MET103      0.0413
     91  CG       -20.4900    2.8290   21.1730 C.3   103  MET103      0.0598
     92  SD       -21.3580    1.2570   21.0070 S.3   103  MET103     -0.1393
     93  CE       -20.3030    0.4310   19.8650 C.3   103  MET103      0.0692
     94  N        -25.9350    4.6940   24.7040 N.3   105  SER105     -0.1202
     95  CA       -27.3450    4.3130   24.7910 C.3   105  SER105      0.2020
     96  C        -28.2600    5.4270   24.2990 C.2   105  SER105      0.2619
     97  O        -29.3440    5.6540   24.8420 O.2   105  SER105     -0.2717
     98  CB       -27.7070    3.9090   26.2190 C.3   105  SER105      0.2103
     99  OG       -26.8290    2.8980   26.6840 O.3   105  SER105     -0.2182
    100  N        -27.7970    6.1200   23.2680 N.am  106  ILE106     -0.1965
    101  CA       -28.5760    7.1430   22.5930 C.3   106  ILE106      0.1727
    102  C        -28.9340    6.6470   21.1950 C.2   106  ILE106      0.2617
    103  O        -28.0680    6.4870   20.3350 O.2   106  ILE106     -0.2715
    104  CB       -27.7950    8.4710   22.5080 C.3   106  ILE106      0.0290
    105  CG1      -27.6730    9.1000   23.9020 C.3   106  ILE106      0.0022
    106  CG2      -28.4710    9.4340   21.5430 C.3   106  ILE106      0.0023
    107  CD1      -26.5280   10.1120   24.0230 C.3   106  ILE106      0.0001
    108  N        -30.2150    6.3770   20.9910 N.am  107  SER107     -0.1936
    109  CA       -30.7310    5.9560   19.6980 C.3   107  SER107      0.2055
    110  C        -30.8070    7.1500   18.7330 C.2   107  SER107      0.2643
    111  O        -30.9930    8.3000   19.1490 O.2   107  SER107     -0.2714
    112  CB       -32.1080    5.3040   19.8920 C.3   107  SER107      0.2130
    113  OG       -32.7260    5.0020   18.6540 O.3   107  SER107     -0.2179
    114  N        -30.6600    6.8710   17.4430 N.am  108  ARG108     -0.1963
    115  CA       -30.5740    7.9190   16.4310 C.3   108  ARG108      0.1729
    116  C        -31.8110    8.8210   16.3870 C.2   108  ARG108      0.2616
    117  O        -31.7000   10.0160   16.1240 O.2   108  ARG108     -0.2715
    118  CB       -30.3300    7.3000   15.0530 C.3   108  ARG108      0.0348
    119  CG       -29.8840    8.2860   13.9820 C.3   108  ARG108      0.0492
    120  CD       -29.6890    7.5610   12.6590 C.3   108  ARG108      0.2205
    121  NE       -29.0700    8.4000   11.6360 N.pl3 108  ARG108     -0.0865
    122  CZ       -27.7740    8.3940   11.3420 C.cat 108  ARG108      0.5346
    123  NH1      -26.9350    7.5980   11.9980 N.pl3 108  ARG108      0.1354
    124  NH2      -27.3150    9.1910   10.3900 N.pl3 108  ARG108      0.1354
    125  N        -32.9850    8.2520   16.6360 N.am  109  ASP109     -0.1971
    126  CA       -34.2190    9.0380   16.6140 C.3   109  ASP109      0.1709
    127  C        -34.5750    9.6260   17.9860 C.2   109  ASP109      0.2293
    128  O        -35.6980   10.0760   18.2120 O.2   109  ASP109     -0.2864
    129  CB       -35.3880    8.2200   16.0480 C.3   109  ASP109      0.1436
    130  CG       -35.7480    7.0280   16.9150 C.2   109  ASP109      0.3671
    131  OD1      -35.2340    6.9260   18.0490 O.co2 109  ASP109     -0.2456
    132  OD2      -36.5530    6.1880   16.4560 O.co2 109  ASP109     -0.2456
    133  N        -10.5780    4.6610    7.2610 N.3   163  TYR163     -0.1241
    134  CA       -11.6650    3.7000    7.3130 C.3   163  TYR163      0.1605
    135  C        -12.4070    3.6330    5.9670 C.2   163  TYR163      0.2264
    136  O        -12.7460    2.5500    5.4760 O.2   163  TYR163     -0.2867
    137  CB       -12.6010    4.1240    8.4510 C.3   163  TYR163      0.0534
    138  CG       -13.9630    3.4680    8.4840 C.ar  163  TYR163     -0.0201
    139  CD1      -14.2530    2.4710    9.4060 C.ar  163  TYR163     -0.0009
    140  CD2      -14.9740    3.8800    7.6190 C.ar  163  TYR163     -0.0009
    141  CE1      -15.5050    1.8810    9.4520 C.ar  163  TYR163      0.0417
    142  CE2      -16.2270    3.3040    7.6550 C.ar  163  TYR163      0.0417
    143  CZ       -16.4890    2.3040    8.5720 C.ar  163  TYR163      0.1957
    144  OH       -17.7370    1.7300    8.6000 O.3   163  TYR163     -0.2866
    145  N        -13.0190    0.4260    3.5970 N.3   167  LYS167     -0.1245
    146  CA       -14.3970    0.0610    3.2820 C.3   167  LYS167      0.1561
    147  C        -14.5850   -0.0170    1.7790 C.2   167  LYS167      0.2260
    148  O        -15.3220   -0.8700    1.2820 O.2   167  LYS167     -0.2867
    149  CB       -15.3800    1.0790    3.8720 C.3   167  LYS167      0.0271
    150  CG       -16.0500    0.6520    5.1740 C.3   167  LYS167      0.0035
    151  CD       -17.1470   -0.3660    4.9170 C.3   167  LYS167      0.0206
    152  CE       -18.1250   -0.4420    6.0790 C.3   167  LYS167      0.1093
    153  NZ       -17.4720   -0.9390    7.3220 N.3   167  LYS167     -0.1314
    154  N        -19.8840  -10.1960    8.6190 N.3   202  GLU202     -0.1231
    155  CA       -20.3130   -9.2210    9.6130 C.3   202  GLU202      0.1699
    156  C        -21.4090   -8.3310    9.0360 C.2   202  GLU202      0.2592
    157  O        -22.4340   -8.1000    9.6760 O.2   202  GLU202     -0.2718
    158  CB       -19.1270   -8.3720   10.0770 C.3   202  GLU202      0.0402
    159  CG       -19.4890   -7.2430   11.0350 C.3   202  GLU202      0.1161
    160  CD       -20.2030   -7.7230   12.2980 C.2   202  GLU202      0.3649
    161  OE1      -20.2890   -8.9520   12.5250 O.co2 202  GLU202     -0.2457
    162  OE2      -20.6810   -6.8670   13.0720 O.co2 202  GLU202     -0.2457
    163  N        -21.1970   -7.8430    7.8170 N.am  203  ARG203     -0.1980
    164  CA       -22.1960   -7.0070    7.1710 C.3   203  ARG203      0.1597
    165  C        -23.5280   -7.7520    7.0050 C.2   203  ARG203      0.2287
    166  O        -24.5950   -7.1450    7.0960 O.2   203  ARG203     -0.2864
    167  CB       -21.6930   -6.4630    5.8280 C.3   203  ARG203      0.0334
    168  CG       -20.3600   -5.6860    5.8850 C.3   203  ARG203      0.0492
    169  CD       -20.0880   -4.9930    7.2310 C.3   203  ARG203      0.2205
    170  NE       -18.7420   -4.4070    7.2550 N.pl3 203  ARG203     -0.0865
    171  CZ       -18.0800   -4.0330    8.3520 C.cat 203  ARG203      0.5346
    172  NH1      -18.6190   -4.1780    9.5560 N.pl3 203  ARG203      0.1354
    173  NH2      -16.8630   -3.5120    8.2420 N.pl3 203  ARG203      0.1354
    174  N        -25.4310   -7.5250   10.2660 N.3   206  GLU206     -0.1245
    175  CA       -26.0630   -6.2160   10.4230 C.3   206  GLU206      0.1567
    176  C        -27.3100   -6.0610    9.5560 C.2   206  GLU206      0.2260
    177  O        -28.3260   -5.5470   10.0140 O.2   206  GLU206     -0.2867
    178  CB       -25.0730   -5.0900   10.1130 C.3   206  GLU206      0.0388
    179  CG       -24.2390   -4.6800   11.3080 C.3   206  GLU206      0.1160
    180  CD       -25.0910   -4.2980   12.5100 C.2   206  GLU206      0.3649
    181  OE1      -25.0540   -5.0310   13.5210 O.co2 206  GLU206     -0.2457
    182  OE2      -25.7940   -3.2660   12.4410 O.co2 206  GLU206     -0.2457
    183  N        -30.2310   -7.8340   11.1290 N.3   209  LYS209     -0.1231
    184  CA       -30.7490   -7.1170   12.2920 C.3   209  LYS209      0.1693
    185  C        -31.4840   -5.8510   11.8810 C.2   209  LYS209      0.2591
    186  O        -32.4440   -5.4540   12.5340 O.2   209  LYS209     -0.2718
    187  CB       -29.6300   -6.7530   13.2660 C.3   209  LYS209      0.0285
    188  CG       -29.0480   -7.9170   14.0230 C.3   209  LYS209      0.0035
    189  CD       -28.3960   -7.4260   15.3050 C.3   209  LYS209      0.0206
    190  CE       -27.6470   -6.1410   15.0680 C.3   209  LYS209      0.1093
    191  NZ       -27.0960   -5.6040   16.3300 N.3   209  LYS209     -0.1314
    192  N        -31.0250   -5.2120   10.8080 N.am  210  ARG210     -0.1980
    193  CA       -31.6930   -4.0170   10.2960 C.3   210  ARG210      0.1597
    194  C        -33.0350   -4.3650    9.6550 C.2   210  ARG210      0.2287
    195  O        -33.9280   -3.5240    9.5640 O.2   210  ARG210     -0.2864
    196  CB       -30.8110   -3.2680    9.2870 C.3   210  ARG210      0.0334
    197  CG       -29.7500   -2.3840    9.9160 C.3   210  ARG210      0.0492
    198  CD       -29.2020   -1.3590    8.9130 C.3   210  ARG210      0.2205
    199  NE       -28.5690   -2.0050    7.7690 N.pl3 210  ARG210     -0.0865
    200  CZ       -29.0760   -2.0380    6.5390 C.cat 210  ARG210      0.5346
    201  NH1      -30.2300   -1.4410    6.2660 N.pl3 210  ARG210      0.1354
    202  NH2      -28.4150   -2.6650    5.5740 N.pl3 210  ARG210      0.1354
    203  N        -35.1680   -6.5840   10.7860 N.3   212  GLU212     -0.1245
    204  CA       -36.1560   -6.9150   11.8080 C.3   212  GLU212      0.1567
    205  C        -37.2620   -5.8670   11.8460 C.2   212  GLU212      0.2260
    206  O        -38.4370   -6.2020   11.9910 O.2   212  GLU212     -0.2867
    207  CB       -35.5000   -7.0190   13.1870 C.3   212  GLU212      0.0388
    208  CG       -34.5640   -8.2050   13.3620 C.3   212  GLU212      0.1160
    209  CD       -33.8620   -8.2040   14.7150 C.2   212  GLU212      0.3649
    210  OE1      -32.9830   -9.0660   14.9330 O.co2 212  GLU212     -0.2457
    211  OE2      -34.1850   -7.3400   15.5610 O.co2 212  GLU212     -0.2457
    212  N        -27.6250    7.4410    3.0960 N.3   213  GLY213     -0.1210
    213  CA       -26.2420    7.8930    3.0840 C.3   213  GLY213      0.1956
    214  C        -25.5220    7.5780    4.3860 C.2   213  GLY213      0.2612
    215  O        -25.9530    7.9960    5.4580 O.2   213  GLY213     -0.2717
    216  N        -24.4270    6.8330    4.2950 N.am  214  ARG214     -0.1965
    217  CA       -23.7140    6.3850    5.4880 C.3   214  ARG214      0.1729
    218  C        -22.3870    7.0960    5.6790 C.2   214  ARG214      0.2616
    219  O        -21.7630    6.9820    6.7300 O.2   214  ARG214     -0.2715
    220  CB       -23.4470    4.8880    5.4190 C.3   214  ARG214      0.0348
    221  CG       -24.6890    4.0410    5.4920 C.3   214  ARG214      0.0492
    222  CD       -24.3050    2.6310    5.8470 C.3   214  ARG214      0.2205
    223  NE       -25.3620    1.6820    5.5320 N.pl3 214  ARG214     -0.0865
    224  CZ       -25.2490    0.3680    5.6880 C.cat 214  ARG214      0.5346
    225  NH1      -24.1200   -0.1530    6.1630 N.pl3 214  ARG214      0.1354
    226  NH2      -26.2660   -0.4240    5.3710 N.pl3 214  ARG214      0.1354
    227  N        -21.9540    7.8160    4.6530 N.am  215  TYR215     -0.1974
    228  CA       -20.6490    8.4580    4.6800 C.3   215  TYR215      0.1639
    229  C        -20.8180    9.9700    4.6160 C.2   215  TYR215      0.2290
    230  O        -21.6820   10.4690    3.8950 O.2   215  TYR215     -0.2864
    231  CB       -19.7800    7.9320    3.5230 C.3   215  TYR215      0.0560
    232  CG       -19.5560    6.4350    3.6160 C.ar  215  TYR215     -0.0198
    233  CD1      -18.4920    5.9160    4.3560 C.ar  215  TYR215     -0.0009
    234  CD2      -20.4210    5.5380    2.9950 C.ar  215  TYR215     -0.0009
    235  CE1      -18.2900    4.5550    4.4640 C.ar  215  TYR215      0.0417
    236  CE2      -20.2280    4.1720    3.0990 C.ar  215  TYR215      0.0417
    237  CZ       -19.1630    3.6870    3.8390 C.ar  215  TYR215      0.1957
    238  OH       -18.9580    2.3320    3.9550 O.3   215  TYR215     -0.2866
    239  N        -22.0600   12.0380    6.7800 N.3   217  GLN217     -0.1245
    240  CA       -23.4710   12.2410    7.0780 C.3   217  GLN217      0.1566
    241  C        -23.7530   13.6380    7.5920 C.2   217  GLN217      0.2260
    242  O        -23.0090   14.1680    8.4190 O.2   217  GLN217     -0.2867
    243  CB       -23.9520   11.2260    8.0980 C.3   217  GLN217      0.0367
    244  CG       -23.7400    9.7840    7.7020 C.3   217  GLN217      0.0905
    245  CD       -23.9090    8.8610    8.8940 C.2   217  GLN217      0.2608
    246  OE1      -25.0290    8.5810    9.3040 O.2   217  GLN217     -0.2717
    247  NE2      -22.7950    8.4170    9.4780 N.am  217  GLN217     -0.0878
@<TRIPOS>BOND
     1   148   147    2
     2   147   146    1
     3   234   236   ar
     4   234   232   ar
     5   213   212    1
     6   213   214    1
     7   236   237   ar
     8   146   145    1
     9   146   149    1
    10   231   232    1
    11   231   228    1
    12   232   233   ar
    13   237   238    1
    14   237   235   ar
    15   149   150    1
    16   230   229    2
    17   216   214   am
    18   216   217    1
    19   233   235   ar
    20   214   215    2
    21   229   228    1
    22   227   228    1
    23   227   218   am
    24   151   150    1
    25   151   152    1
    26   226   224    1
    27   220   217    1
    28   220   221    1
    29   136   135    2
    30   217   218    1
    31   221   222    1
    32   223   224    2
    33   223   222    1
    34   202   200    1
    35   218   219    2
    36   224   225    1
    37   167   168    1
    38   167   164    1
    39   168   169    1
    40   135   134    1
    41   152   153    1
    42    27    25   ar
    43    27    26   ar
    44   201   200    1
    45    25    23   ar
    46   200   199    2
    47   239   240    1
    48   165   166    2
    49   165   164    1
    50   240   241    1
    51   240   243    1
    52   164   163    1
    53   169   170    1
    54    26    24   ar
    55   170   171    2
    56   133   134    1
    57   134   137    1
    58   241   242    2
    59   140   142   ar
    60   140   138   ar
    61   142   143   ar
    62    23    22   ar
    63    23    21   ar
    64   244   243    1
    65   244   245    1
    66   199   198    1
    67   163   156   am
    68    22    20   ar
    69   173   171    1
    70   171   172    1
    71   137   138    1
    72   138   139   ar
    73    24    21   ar
    74   143   144    1
    75   143   141   ar
    76   154   155    1
    77    21    19   ar
    78   245   246    2
    79   245   247   am
    80   198   197    1
    81   156   155    1
    82   156   157    2
    83   196   197    1
    84   196   193    1
    85   139   141   ar
    86    20    19   ar
    87   176   177    2
    88   176   175    1
    89   195   194    2
    90   155   158    1
    91   194   193    1
    92    19    18    1
    93    51    52    1
    94    51    50    1
    95    51    54    1
    96   158   159    1
    97    52    53    2
    98    60    58    1
    99   178   175    1
   100   178   179    1
   101    55    54    1
   102    55    56    1
   103   174   175    1
   104    57    58    2
   105    57    56    1
   106   193   192    1
   107   124   122    1
   108    41    39   ar
   109    41    40   ar
   110   203   204    1
   111    58    59    1
   112   192   185   am
   113    39    37   ar
   114   159   160    1
   115   183   184    1
   116    17    16    2
   117   179   180    1
   118   122   121    2
   119   122   123    1
   120    18    15    1
   121    40    38   ar
   122   121   120    1
   123    16    15    1
   124   204   205    1
   125   204   207    1
   126    67    66    1
   127   205   206    2
   128   185   184    1
   129   185   186    2
   130    37    36   ar
   131    37    35   ar
   132   184   187    1
   133   160   161   ar
   134   160   162   ar
   135    15    14    1
   136   182   180   ar
   137   180   181   ar
   138    11    12    1
   139    11    10    1
   140    13    12    2
   141   120   119    1
   142    38    35   ar
   143    36    34   ar
   144   207   208    1
   145    35    33   ar
   146   187   188    1
   147    66    65    1
   148    66    68    1
   149   208   209    1
   150    65    62    1
   151     4     3    2
   152   119   118    1
   153   188   189    1
   154    34    33   ar
   155    33    32    1
   156    74    73    1
   157    73    70    1
   158     3     2    1
   159   209   210   ar
   160   209   211   ar
   161    62    61    1
   162    62    63    1
   163   118   115    1
   164   190   189    1
   165   190   191    1
   166    69    63   am
   167    69    70    1
   168    63    64    2
   169    70    71    1
   170    85    83    1
   171     9     8    1
   172    32    29    1
   173     8     7    1
   174     2     5    1
   175     2     1    1
   176   129   126    1
   177   129   130    1
   178     5     6    1
   179   117   116    2
   180   116   115    1
   181   116   125   am
   182   115   114    1
   183   132   130   ar
   184   126   125    1
   185   126   127    1
   186    83    84    1
   187    83    82    2
   188    29    28    1
   189    29    30    1
   190   130   131   ar
   191    71    72    2
   192     7     6    1
   193   114   110   am
   194    82    81    1
   195   127   128    2
   196    30    31    2
   197    30    42   am
   198   113   112    1
   199   110   111    2
   200   110   109    1
   201    81    80    1
   202    48    47    2
   203    42    43    1
   204    79    80    1
   205    79    76    1
   206   109   112    1
   207   109   108    1
   208    47    49   am
   209    47    46    1
   210    75    76    1
   211    93    92    1
   212    76    77    1
   213    43    46    1
   214    43    44    1
   215   103   102    2
   216   108   102   am
   217    92    91    1
   218    91    90    1
   219   102   101    1
   220    44    45    2
   221    77    86   am
   222    77    78    2
   223   106   104    1
   224    86    87    1
   225    90    87    1
   226   104   101    1
   227   104   105    1
   228   101   100    1
   229    87    88    1
   230   100    96   am
   231   105   107    1
   232    88    89    2
   233    96    95    1
   234    96    97    2
   235    94    95    1
   236    95    98    1
   237    98    99    1
