@<TRIPOS>MOLECULE
tmp/3mgbA00.pdb
 128 129 0 0 0
SMALL
GASTEIGER

@<TRIPOS>ATOM
      1  N        -32.3600  -54.3350  -16.0840 N.3     6  HIS6       -0.1226
      2  CA       -31.5040  -53.6880  -15.1130 C.3     6  HIS6        0.1752
      3  C        -32.3100  -53.2920  -13.8820 C.2     6  HIS6        0.2596
      4  O        -33.4920  -52.9590  -13.9710 O.2     6  HIS6       -0.2718
      5  CB       -30.7430  -52.4980  -15.7050 C.3     6  HIS6        0.0759
      6  CG       -31.6150  -51.3840  -16.1970 C.ar    6  HIS6        0.0818
      7  ND1      -32.0960  -51.3270  -17.4890 N.ar    6  HIS6       -0.2268
      8  CD2      -32.0560  -50.2570  -15.5810 C.ar    6  HIS6        0.1154
      9  CE1      -32.8100  -50.2240  -17.6430 C.ar    6  HIS6        0.1986
     10  NE2      -32.8020  -49.5580  -16.5000 N.ar    6  HIS6       -0.2212
     11  N        -31.6580  -53.3660  -12.7330 N.am    7  HIS7       -0.1961
     12  CA       -32.2450  -52.9420  -11.4820 C.3     7  HIS7        0.1787
     13  C        -32.5290  -51.4490  -11.5250 C.2     7  HIS7        0.2620
     14  O        -31.7620  -50.6670  -12.1080 O.2     7  HIS7       -0.2715
     15  CB       -31.2990  -53.2580  -10.3150 C.3     7  HIS7        0.0785
     16  CG       -31.8050  -52.7740   -8.9970 C.ar    7  HIS7        0.0821
     17  ND1      -32.8140  -53.4170   -8.3090 N.ar    7  HIS7       -0.2267
     18  CD2      -31.4530  -51.7070   -8.2430 C.ar    7  HIS7        0.1154
     19  CE1      -33.0580  -52.7680   -7.1850 C.ar    7  HIS7        0.1986
     20  NE2      -32.2470  -51.7270   -7.1200 N.ar    7  HIS7       -0.2212
     21  N        -33.6360  -51.0430  -10.9110 N.am    8  HIS8       -0.1959
     22  CA       -33.9720  -49.6300  -10.8770 C.3     8  HIS8        0.1787
     23  C        -33.6400  -49.0880   -9.4880 C.2     8  HIS8        0.2621
     24  O        -34.3570  -49.3440   -8.5250 O.2     8  HIS8       -0.2715
     25  CB       -35.4440  -49.3770  -11.2460 C.3     8  HIS8        0.0785
     26  CG       -35.8280  -49.8630  -12.6160 C.ar    8  HIS8        0.0821
     27  ND1      -35.4230  -49.2340  -13.7740 N.ar    8  HIS8       -0.2267
     28  CD2      -36.6010  -50.9060  -13.0070 C.ar    8  HIS8        0.1154
     29  CE1      -35.9140  -49.8780  -14.8200 C.ar    8  HIS8        0.1986
     30  NE2      -36.6330  -50.8980  -14.3800 N.ar    8  HIS8       -0.2212
     31  N        -32.5400  -48.3510   -9.3960 N.am    9  SER9       -0.1936
     32  CA       -32.1050  -47.7710   -8.1290 C.3     9  SER9        0.2055
     33  C        -32.8450  -46.4710   -7.7680 C.2     9  SER9        0.2643
     34  O        -32.7000  -45.9480   -6.6590 O.2     9  SER9       -0.2714
     35  CB       -30.5930  -47.5110   -8.1530 C.3     9  SER9        0.2130
     36  OG       -29.8580  -48.7070   -8.3530 O.3     9  SER9       -0.2179
     37  N        -33.6300  -45.9390   -8.6920 N.am   10  SER10      -0.1949
     38  CA       -34.3060  -44.6690   -8.4300 C.3    10  SER10       0.1924
     39  C        -35.7390  -44.8750   -7.9540 C.2    10  SER10       0.2314
     40  O        -36.0830  -44.4860   -6.8420 O.2    10  SER10      -0.2863
     41  CB       -34.2810  -43.7660   -9.6670 C.3    10  SER10       0.2116
     42  OG       -35.2030  -44.2160  -10.6440 O.3    10  SER10      -0.2180
     43  N        -14.3540  -50.3580   -8.7440 N.3   223  GLU223     -0.1231
     44  CA       -14.6190  -48.9270   -8.8220 C.3   223  GLU223      0.1699
     45  C        -16.1080  -48.6110   -8.6730 C.2   223  GLU223      0.2592
     46  O        -16.4840  -47.6660   -7.9780 O.2   223  GLU223     -0.2718
     47  CB       -14.0540  -48.3250  -10.1310 C.3   223  GLU223      0.0402
     48  CG       -14.2650  -46.8180  -10.2200 C.3   223  GLU223      0.1161
     49  CD       -13.4880  -46.1360  -11.3360 C.2   223  GLU223      0.3649
     50  OE1      -12.9140  -46.8310  -12.2070 O.co2 223  GLU223     -0.2457
     51  OE2      -13.4580  -44.8820  -11.3330 O.co2 223  GLU223     -0.2457
     52  N        -16.9590  -49.4000   -9.3230 N.am  224  LYS224     -0.1980
     53  CA       -18.3890  -49.1410   -9.2810 C.3   224  LYS224      0.1596
     54  C        -18.9400  -49.4310   -7.8910 C.2   224  LYS224      0.2287
     55  O        -19.8390  -48.7420   -7.4120 O.2   224  LYS224     -0.2864
     56  CB       -19.1250  -50.0110  -10.3050 C.3   224  LYS224      0.0298
     57  CG       -18.6160  -49.8460  -11.7510 C.3   224  LYS224      0.0038
     58  CD       -19.4590  -50.6580  -12.7490 C.3   224  LYS224      0.0206
     59  CE       -19.2530  -52.1610  -12.5960 C.3   224  LYS224      0.1093
     60  NZ       -19.9390  -52.9100  -13.6940 N.3   224  LYS224     -0.1314
     61  N        -23.9390  -42.6740   -5.6150 N.3   233  MET233     -0.1230
     62  CA       -24.1420  -42.8520   -7.0550 C.3   233  MET233      0.1702
     63  C        -25.2710  -42.0710   -7.7150 C.2   233  MET233      0.2592
     64  O        -26.4000  -42.0000   -7.2240 O.2   233  MET233     -0.2718
     65  CB       -24.2320  -44.3260   -7.4420 C.3   233  MET233      0.0401
     66  CG       -23.0360  -44.7690   -8.2440 C.3   233  MET233      0.0596
     67  SD       -23.2080  -46.3990   -8.9730 S.3   233  MET233     -0.1393
     68  CE       -21.4830  -46.7660   -9.3280 C.3   233  MET233      0.0692
     69  N        -24.9230  -41.5090   -8.8630 N.am  234  LYS234     -0.1966
     70  CA       -25.8300  -40.7110   -9.6660 C.3   234  LYS234      0.1728
     71  C        -26.4770  -39.5670   -8.8930 C.2   234  LYS234      0.2617
     72  O        -27.6670  -39.6040   -8.5540 O.2   234  LYS234     -0.2715
     73  CB       -26.8650  -41.5870  -10.3620 C.3   234  LYS234      0.0311
     74  CG       -26.3160  -42.3110  -11.5710 C.3   234  LYS234      0.0038
     75  CD       -25.7970  -41.3420  -12.6020 C.3   234  LYS234      0.0206
     76  CE       -26.9160  -40.6600  -13.3810 C.3   234  LYS234      0.1093
     77  NZ       -27.1740  -41.3300  -14.6880 N.3   234  LYS234     -0.1314
     78  N        -25.6610  -38.5550   -8.6110 N.am  235  GLY235     -0.1940
     79  CA       -26.1740  -37.2440   -8.2620 C.3   235  GLY235      0.2014
     80  C        -26.4800  -36.5870   -9.5920 C.2   235  GLY235      0.2639
     81  O        -26.7800  -37.2840  -10.5680 O.2   235  GLY235     -0.2714
     82  N        -26.4080  -35.2620   -9.6550 N.am  236  GLY236     -0.1940
     83  CA       -26.6240  -34.5760  -10.9110 C.3   236  GLY236      0.1998
     84  C        -25.3940  -34.6180  -11.7950 C.2   236  GLY236      0.2480
     85  O        -24.4150  -35.2990  -11.4780 O.2   236  GLY236     -0.2729
     86  N        -25.4350  -33.8910  -12.9210 N.am  237  PRO237     -0.2726
     87  CA       -24.3160  -33.7880  -13.8650 C.3   237  PRO237      0.1402
     88  C        -22.9910  -33.5350  -13.1550 C.2   237  PRO237      0.2269
     89  O        -21.9750  -34.1710  -13.4660 O.2   237  PRO237     -0.2865
     90  CB       -24.6820  -32.5480  -14.6940 C.3   237  PRO237      0.0296
     91  CG       -26.1610  -32.4980  -14.6540 C.3   237  PRO237      0.0237
     92  CD       -26.5720  -33.0420  -13.3140 C.3   237  PRO237      0.0939
     93  N        -21.9550  -34.3190  -10.4110 N.3   239  GLY239     -0.1210
     94  CA       -21.4870  -35.4210   -9.5910 C.3   239  GLY239      0.1956
     95  C        -20.6850  -36.4640  -10.3550 C.2   239  GLY239      0.2612
     96  O        -20.1430  -37.3930   -9.7540 O.2   239  GLY239     -0.2717
     97  N        -20.6100  -36.3290  -11.6780 N.am  240  ALA240     -0.1965
     98  CA       -19.8270  -37.2650  -12.4750 C.3   240  ALA240      0.1728
     99  C        -18.3320  -37.0720  -12.2210 C.2   240  ALA240      0.2616
    100  O        -17.8700  -35.9520  -12.0010 O.2   240  ALA240     -0.2715
    101  CB       -20.1470  -37.1080  -13.9600 C.3   240  ALA240      0.0334
    102  N        -17.5860  -38.1700  -12.2550 N.am  241  ARG241     -0.1964
    103  CA       -16.1400  -38.1380  -12.0800 C.3   241  ARG241      0.1714
    104  C        -15.5150  -39.0360  -13.1290 C.2   241  ARG241      0.2458
    105  O        -16.1090  -40.0340  -13.5220 O.2   241  ARG241     -0.2730
    106  CB       -15.7470  -38.6340  -10.6850 C.3   241  ARG241      0.0347
    107  CG       -16.2610  -37.7640   -9.5390 C.3   241  ARG241      0.0492
    108  CD       -15.5800  -36.4050   -9.5260 C.3   241  ARG241      0.2205
    109  NE       -16.0430  -35.5540   -8.4270 N.pl3 241  ARG241     -0.0865
    110  CZ       -17.0470  -34.6840   -8.5250 C.cat 241  ARG241      0.5346
    111  NH1      -17.7010  -34.5510   -9.6720 N.pl3 241  ARG241      0.1354
    112  NH2      -17.3950  -33.9440   -7.4770 N.pl3 241  ARG241      0.1354
    113  N        -14.3100  -38.6880  -13.5870 N.am  242  PRO242     -0.2716
    114  CA       -13.6230  -39.4940  -14.5980 C.3   242  PRO242      0.1536
    115  C        -13.4250  -40.9340  -14.1240 C.2   242  PRO242      0.2598
    116  O        -13.1850  -41.1840  -12.9420 O.2   242  PRO242     -0.2715
    117  CB       -12.2780  -38.7840  -14.7410 C.3   242  PRO242      0.0310
    118  CG       -12.5560  -37.3730  -14.2980 C.3   242  PRO242      0.0237
    119  CD       -13.5120  -37.5200  -13.1760 C.3   242  PRO242      0.0939
    120  N        -13.5430  -41.8730  -15.0550 N.am  243  GLN243     -0.1978
    121  CA       -13.3710  -43.2820  -14.7570 C.3   243  GLN243      0.1601
    122  C        -11.9220  -43.5790  -14.4060 C.2   243  GLN243      0.2287
    123  O        -11.0280  -43.3360  -15.2140 O.2   243  GLN243     -0.2864
    124  CB       -13.7790  -44.1000  -15.9790 C.3   243  GLN243      0.0394
    125  CG       -14.6950  -45.2510  -15.6450 C.3   243  GLN243      0.0908
    126  CD       -15.1530  -46.0160  -16.8650 C.2   243  GLN243      0.2608
    127  OE1      -15.3100  -45.4520  -17.9520 O.2   243  GLN243     -0.2717
    128  NE2      -15.3940  -47.3050  -16.6840 N.am  243  GLN243     -0.0878
@<TRIPOS>BOND
     1   127   126    2
     2     9     7   ar
     3     9    10   ar
     4     7     6   ar
     5   126   128   am
     6   126   125    1
     7    10     8   ar
     8     6     5    1
     9     6     8   ar
    10     1     2    1
    11   124   125    1
    12   124   121    1
    13     5     2    1
    14   123   122    2
    15     2     3    1
    16   120   121    1
    17   120   115   am
    18    29    30   ar
    19    29    27   ar
    20   121   122    1
    21   117   114    1
    22   117   118    1
    23    90    91    1
    24    90    87    1
    25    77    76    1
    26    91    92    1
    27   114   115    1
    28   114   113    1
    29    30    28   ar
    30   118   119    1
    31   115   116    2
    32     4     3    2
    33   101    98    1
    34     3    11   am
    35    87    88    1
    36    87    86    1
    37    27    26   ar
    38    60    59    1
    39   113   119    1
    40   113   104   am
    41   105   104    2
    42    89    88    2
    43    76    75    1
    44    92    86    1
    45   104   103    1
    46    28    26   ar
    47    86    84   am
    48    58    59    1
    49    58    57    1
    50    11    12    1
    51    26    25    1
    52    75    74    1
    53    98    99    1
    54    98    97    1
    55   102    99   am
    56   102   103    1
    57    99   100    2
    58    50    49   ar
    59    14    13    2
    60   103   106    1
    61    84    85    2
    62    84    83    1
    63    57    56    1
    64    97    95   am
    65    74    73    1
    66    13    12    1
    67    13    21   am
    68    12    15    1
    69    49    51   ar
    70    49    48    1
    71    25    22    1
    72    21    22    1
    73    83    82    1
    74    22    23    1
    75   106   107    1
    76    42    41    1
    77    81    80    2
    78    93    94    1
    79    73    70    1
    80    95    96    2
    81    95    94    1
    82    15    16    1
    83    56    53    1
    84    48    47    1
    85    47    44    1
    86   111   110    1
    87    41    38    1
    88    70    71    1
    89    70    69    1
    90    82    80   am
    91    80    79    1
    92   107   108    1
    93   108   109    1
    94    23    31   am
    95    23    24    2
    96    31    32    1
    97    68    67    1
    98    52    53    1
    99    52    45   am
   100    53    54    1
   101    16    17   ar
   102    16    18   ar
   103    67    66    1
   104    71    78   am
   105    71    72    2
   106    69    63   am
   107    44    43    1
   108    44    45    1
   109    37    38    1
   110    37    33   am
   111    45    46    2
   112    78    79    1
   113   110   109    2
   114   110   112    1
   115    38    39    1
   116    36    35    1
   117    17    19   ar
   118    66    65    1
   119    18    20   ar
   120    35    32    1
   121    32    33    1
   122    39    40    2
   123    54    55    2
   124    33    34    2
   125    63    64    2
   126    63    62    1
   127    65    62    1
   128    19    20   ar
   129    62    61    1
