@<TRIPOS>MOLECULE
tmp/3mgbA01.pdb
 109 111 0 0 0
SMALL
GASTEIGER

@<TRIPOS>ATOM
      1  N        -38.4510  -63.6530  -16.5480 N.3     2  SER2       -0.1202
      2  CA       -37.8490  -62.9210  -17.6550 C.3     2  SER2        0.2020
      3  C        -36.4880  -62.3740  -17.2400 C.2     2  SER2        0.2619
      4  O        -36.3190  -61.8620  -16.1350 O.2     2  SER2       -0.2717
      5  CB       -38.7690  -61.7920  -18.1230 C.3     2  SER2        0.2103
      6  OG       -39.4240  -61.1860  -17.0230 O.3     2  SER2       -0.2182
      7  N        -35.5160  -62.5000  -18.1320 N.am    3  HIS3       -0.1961
      8  CA       -34.1560  -62.1050  -17.8360 C.3     3  HIS3        0.1787
      9  C        -33.7330  -60.8650  -18.6230 C.2     3  HIS3        0.2620
     10  O        -34.4710  -60.3670  -19.4660 O.2     3  HIS3       -0.2715
     11  CB       -33.2040  -63.2700  -18.1200 C.3     3  HIS3        0.0785
     12  CG       -33.5140  -64.5010  -17.3270 C.ar    3  HIS3        0.0821
     13  ND1      -33.4540  -64.5310  -15.9500 N.ar    3  HIS3       -0.2267
     14  CD2      -33.9120  -65.7390  -17.7150 C.ar    3  HIS3        0.1154
     15  CE1      -33.7890  -65.7380  -15.5220 C.ar    3  HIS3        0.1986
     16  NE2      -34.0690  -66.4910  -16.5730 N.ar    3  HIS3       -0.2212
     17  N        -32.5380  -60.3730  -18.3290 N.am    4  HIS4       -0.1959
     18  CA       -31.9500  -59.2810  -19.0860 C.3     4  HIS4        0.1787
     19  C        -32.6880  -57.9760  -18.8570 C.2     4  HIS4        0.2620
     20  O        -33.1900  -57.3500  -19.7920 O.2     4  HIS4       -0.2715
     21  CB       -31.8780  -59.6560  -20.5680 C.3     4  HIS4        0.0785
     22  CG       -31.0960  -60.9080  -20.8070 C.ar    4  HIS4        0.0821
     23  ND1      -31.6640  -62.0640  -21.2930 N.ar    4  HIS4       -0.2267
     24  CD2      -29.7930  -61.1980  -20.5710 C.ar    4  HIS4        0.1154
     25  CE1      -30.7390  -63.0050  -21.3760 C.ar    4  HIS4        0.1986
     26  NE2      -29.5940  -62.5050  -20.9420 N.ar    4  HIS4       -0.2212
     27  N        -32.7420  -57.5850  -17.5900 N.am    5  HIS5       -0.1959
     28  CA       -33.2720  -56.2970  -17.1830 C.3     5  HIS5        0.1787
     29  C        -32.2190  -55.6310  -16.3180 C.2     5  HIS5        0.2620
     30  O        -31.2900  -56.2890  -15.8460 O.2     5  HIS5       -0.2715
     31  CB       -34.5410  -56.4870  -16.3470 C.3     5  HIS5        0.0785
     32  CG       -35.7540  -56.8370  -17.1510 C.ar    5  HIS5        0.0821
     33  ND1      -36.2080  -58.1300  -17.2910 N.ar    5  HIS5       -0.2267
     34  CD2      -36.6090  -56.0610  -17.8570 C.ar    5  HIS5        0.1154
     35  CE1      -37.2920  -58.1360  -18.0450 C.ar    5  HIS5        0.1986
     36  NE2      -37.5570  -56.8940  -18.4020 N.ar    5  HIS5       -0.2212
     37  N        -32.3600  -54.3350  -16.0840 N.am    6  HIS6       -0.1959
     38  CA       -31.5040  -53.6880  -15.1130 C.3     6  HIS6        0.1787
     39  C        -32.3100  -53.2920  -13.8820 C.2     6  HIS6        0.2620
     40  O        -33.4920  -52.9590  -13.9710 O.2     6  HIS6       -0.2715
     41  CB       -30.7430  -52.4980  -15.7050 C.3     6  HIS6        0.0785
     42  CG       -31.6150  -51.3840  -16.1970 C.ar    6  HIS6        0.0821
     43  ND1      -32.0960  -51.3270  -17.4890 N.ar    6  HIS6       -0.2267
     44  CD2      -32.0560  -50.2570  -15.5810 C.ar    6  HIS6        0.1154
     45  CE1      -32.8100  -50.2240  -17.6430 C.ar    6  HIS6        0.1986
     46  NE2      -32.8020  -49.5580  -16.5000 N.ar    6  HIS6       -0.2212
     47  N        -31.6580  -53.3660  -12.7330 N.am    7  HIS7       -0.1959
     48  CA       -32.2450  -52.9420  -11.4820 C.3     7  HIS7        0.1787
     49  C        -32.5290  -51.4490  -11.5250 C.2     7  HIS7        0.2620
     50  O        -31.7620  -50.6670  -12.1080 O.2     7  HIS7       -0.2715
     51  CB       -31.2990  -53.2580  -10.3150 C.3     7  HIS7        0.0785
     52  CG       -31.8050  -52.7740   -8.9970 C.ar    7  HIS7        0.0821
     53  ND1      -32.8140  -53.4170   -8.3090 N.ar    7  HIS7       -0.2267
     54  CD2      -31.4530  -51.7070   -8.2430 C.ar    7  HIS7        0.1154
     55  CE1      -33.0580  -52.7680   -7.1850 C.ar    7  HIS7        0.1986
     56  NE2      -32.2470  -51.7270   -7.1200 N.ar    7  HIS7       -0.2212
     57  N        -33.6360  -51.0430  -10.9110 N.am    8  HIS8       -0.1959
     58  CA       -33.9720  -49.6300  -10.8770 C.3     8  HIS8        0.1787
     59  C        -33.6400  -49.0880   -9.4880 C.2     8  HIS8        0.2620
     60  O        -34.3570  -49.3440   -8.5250 O.2     8  HIS8       -0.2715
     61  CB       -35.4440  -49.3770  -11.2460 C.3     8  HIS8        0.0785
     62  CG       -35.8280  -49.8630  -12.6160 C.ar    8  HIS8        0.0821
     63  ND1      -35.4230  -49.2340  -13.7740 N.ar    8  HIS8       -0.2267
     64  CD2      -36.6010  -50.9060  -13.0070 C.ar    8  HIS8        0.1154
     65  CE1      -35.9140  -49.8780  -14.8200 C.ar    8  HIS8        0.1986
     66  NE2      -36.6330  -50.8980  -14.3800 N.ar    8  HIS8       -0.2212
     67  N        -32.5400  -48.3510   -9.3960 N.am    9  SER9       -0.1950
     68  CA       -32.1050  -47.7710   -8.1290 C.3     9  SER9        0.1924
     69  C        -32.8450  -46.4710   -7.7680 C.2     9  SER9        0.2314
     70  O        -32.7000  -45.9480   -6.6590 O.2     9  SER9       -0.2863
     71  CB       -30.5930  -47.5110   -8.1530 C.3     9  SER9        0.2116
     72  OG       -29.8580  -48.7070   -8.3530 O.3     9  SER9       -0.2180
     73  N        -15.3500  -53.3870  -11.5750 N.3   221  GLU221     -0.1245
     74  CA       -16.3770  -53.7390  -10.5910 C.3   221  GLU221      0.1567
     75  C        -16.0420  -53.0870   -9.2670 C.2   221  GLU221      0.2260
     76  O        -16.9180  -52.5620   -8.5840 O.2   221  GLU221     -0.2867
     77  CB       -16.4750  -55.2550  -10.4000 C.3   221  GLU221      0.0388
     78  CG       -16.9300  -55.9930  -11.6440 C.3   221  GLU221      0.1160
     79  CD       -18.3270  -55.5880  -12.0920 C.2   221  GLU221      0.3649
     80  OE1      -19.2370  -55.5490  -11.2330 O.co2 221  GLU221     -0.2457
     81  OE2      -18.5210  -55.3220  -13.3010 O.co2 221  GLU221     -0.2457
     82  N        -16.9590  -49.4000   -9.3230 N.3   224  LYS224     -0.1231
     83  CA       -18.3890  -49.1410   -9.2810 C.3   224  LYS224      0.1693
     84  C        -18.9400  -49.4310   -7.8910 C.2   224  LYS224      0.2591
     85  O        -19.8390  -48.7420   -7.4120 O.2   224  LYS224     -0.2718
     86  CB       -19.1250  -50.0110  -10.3050 C.3   224  LYS224      0.0285
     87  CG       -18.6160  -49.8460  -11.7510 C.3   224  LYS224      0.0035
     88  CD       -19.4590  -50.6580  -12.7490 C.3   224  LYS224      0.0206
     89  CE       -19.2530  -52.1610  -12.5960 C.3   224  LYS224      0.1093
     90  NZ       -19.9390  -52.9100  -13.6940 N.3   224  LYS224     -0.1314
     91  N        -18.3750  -50.4620   -7.2650 N.am  225  ARG225     -0.1980
     92  CA       -18.8410  -51.0180   -5.9990 C.3   225  ARG225      0.1597
     93  C        -18.4100  -50.1210   -4.8390 C.2   225  ARG225      0.2287
     94  O        -19.1540  -49.9180   -3.8860 O.2   225  ARG225     -0.2864
     95  CB       -18.2410  -52.4140   -5.8460 C.3   225  ARG225      0.0334
     96  CG       -18.8430  -53.3030   -4.7940 C.3   225  ARG225      0.0492
     97  CD       -17.9470  -54.5380   -4.5760 C.3   225  ARG225      0.2205
     98  NE       -18.0180  -55.5300   -5.6550 N.pl3 225  ARG225     -0.0865
     99  CZ       -16.9740  -55.9680   -6.3670 C.cat 225  ARG225      0.5346
    100  NH1      -17.1570  -56.8870   -7.3140 N.pl3 225  ARG225      0.1354
    101  NH2      -15.7440  -55.4960   -6.1480 N.pl3 225  ARG225      0.1354
    102  N        -23.9390  -42.6740   -5.6150 N.3   233  MET233     -0.1245
    103  CA       -24.1420  -42.8520   -7.0550 C.3   233  MET233      0.1570
    104  C        -25.2710  -42.0710   -7.7150 C.2   233  MET233      0.2261
    105  O        -26.4000  -42.0000   -7.2240 O.2   233  MET233     -0.2867
    106  CB       -24.2320  -44.3260   -7.4420 C.3   233  MET233      0.0387
    107  CG       -23.0360  -44.7690   -8.2440 C.3   233  MET233      0.0595
    108  SD       -23.2080  -46.3990   -8.9730 S.3   233  MET233     -0.1393
    109  CE       -21.4830  -46.7660   -9.3280 C.3   233  MET233      0.0692
@<TRIPOS>BOND
     1    25    23   ar
     2    25    26   ar
     3    23    22   ar
     4    26    24   ar
     5    22    24   ar
     6    22    21    1
     7    21    18    1
     8    20    19    2
     9    10     9    2
    10    18    19    1
    11    18    17    1
    12    19    27   am
    13     9    17   am
    14     9     8    1
    15    36    35   ar
    16    36    34   ar
    17     7     8    1
    18     7     3   am
    19     5     2    1
    20     5     6    1
    21    11     8    1
    22    11    12    1
    23    35    33   ar
    24    34    32   ar
    25    14    12   ar
    26    14    16   ar
    27     2     3    1
    28     2     1    1
    29    45    43   ar
    30    45    46   ar
    31    27    28    1
    32    43    42   ar
    33    12    13   ar
    34    33    32   ar
    35     3     4    2
    36    28    31    1
    37    28    29    1
    38    32    31    1
    39    16    15   ar
    40    46    44   ar
    41    29    37   am
    42    29    30    2
    43    42    41    1
    44    42    44   ar
    45    37    38    1
    46    13    15   ar
    47    41    38    1
    48    38    39    1
    49    65    66   ar
    50    65    63   ar
    51    66    64   ar
    52    40    39    2
    53    39    47   am
    54    63    62   ar
    55    90    89    1
    56    81    79   ar
    57    64    62   ar
    58    88    89    1
    59    88    87    1
    60    47    48    1
    61    62    61    1
    62    50    49    2
    63    79    78    1
    64    79    80   ar
    65    87    86    1
    66    78    77    1
    67    73    74    1
    68    49    48    1
    69    49    57   am
    70    48    51    1
    71    61    58    1
    72    57    58    1
    73    58    59    1
    74    74    77    1
    75    74    75    1
    76    51    52    1
    77    86    83    1
    78    59    67   am
    79    59    60    2
    80    67    68    1
    81   109   108    1
    82    82    83    1
    83    83    84    1
    84    75    76    2
    85    52    53   ar
    86    52    54   ar
    87   108   107    1
    88    72    71    1
    89    53    55   ar
    90   107   106    1
    91    54    56   ar
    92    71    68    1
    93    68    69    1
    94    84    85    2
    95    84    91   am
    96    69    70    2
    97   104   105    2
    98   104   103    1
    99   106   103    1
   100   100    99    1
   101    91    92    1
   102    55    56   ar
   103   103   102    1
   104    99   101    1
   105    99    98    2
   106    92    95    1
   107    92    93    1
   108    95    96    1
   109    98    97    1
   110    93    94    2
   111    96    97    1
