@<TRIPOS>MOLECULE
tmp/3mgbA02.pdb
 204 196 0 0 0
SMALL
GASTEIGER

@<TRIPOS>ATOM
      1  N          6.2950  -44.4060   -8.9730 N.3    20  SER20      -0.1217
      2  CA         6.0010  -44.2390  -10.3850 C.3    20  SER20       0.1889
      3  C          5.5290  -42.8340  -10.6540 C.2    20  SER20       0.2288
      4  O          5.0870  -42.1240   -9.7440 O.2    20  SER20      -0.2866
      5  CB         4.9080  -45.2020  -10.8180 C.3    20  SER20       0.2089
      6  OG         3.7390  -44.9650  -10.0560 O.3    20  SER20      -0.2183
      7  N         -0.1030  -42.3080  -13.4060 N.3    23  LYS23      -0.1231
      8  CA        -0.8160  -43.0160  -14.4710 C.3    23  LYS23       0.1693
      9  C         -0.0230  -44.1490  -15.1130 C.2    23  LYS23       0.2592
     10  O         -0.3200  -44.5470  -16.2300 O.2    23  LYS23      -0.2718
     11  CB        -1.3720  -42.0580  -15.5370 C.3    23  LYS23       0.0285
     12  CG        -2.0500  -40.7970  -14.9880 C.3    23  LYS23       0.0035
     13  CD        -2.9380  -41.0670  -13.7560 C.3    23  LYS23       0.0206
     14  CE        -4.1560  -41.9310  -14.0810 C.3    23  LYS23       0.1093
     15  NZ        -4.8500  -42.3760  -12.8260 N.3    23  LYS23      -0.1314
     16  N          0.9390  -44.6980  -14.3810 N.am   24  ALA24      -0.1966
     17  CA         1.7950  -45.7750  -14.8800 C.3    24  ALA24       0.1728
     18  C          1.3330  -47.1720  -14.4530 C.2    24  ALA24       0.2617
     19  O          2.0580  -48.1450  -14.6330 O.2    24  ALA24      -0.2715
     20  CB         3.2480  -45.5490  -14.4340 C.3    24  ALA24       0.0334
     21  N          0.1340  -47.2800  -13.8880 N.am   25  GLY25      -0.1940
     22  CA        -0.3740  -48.5740  -13.4420 C.3    25  GLY25       0.2014
     23  C         -0.0090  -48.9330  -12.0010 C.2    25  GLY25       0.2639
     24  O          0.0250  -50.1030  -11.6290 O.2    25  GLY25      -0.2714
     25  N          0.2490  -47.9160  -11.1870 N.am   26  ASN26      -0.1958
     26  CA         0.5960  -48.1020   -9.7840 C.3    26  ASN26       0.1819
     27  C         -0.5470  -48.7960   -9.0030 C.2    26  ASN26       0.2622
     28  O         -0.3160  -49.7350   -8.2520 O.2    26  ASN26      -0.2715
     29  CB         0.9610  -46.7330   -9.1900 C.3    26  ASN26       0.1195
     30  CG         1.5850  -46.8240   -7.8160 C.2    26  ASN26       0.2630
     31  OD1        0.9150  -47.1550   -6.8470 O.2    26  ASN26      -0.2716
     32  ND2        2.8640  -46.4670   -7.7180 N.am   26  ASN26      -0.0877
     33  N         -1.7810  -48.3580   -9.2150 N.am   27  THR27      -0.1937
     34  CA        -2.9230  -48.8960   -8.4730 C.3    27  THR27       0.2028
     35  C         -3.2000  -50.3600   -8.8080 C.2    27  THR27       0.2642
     36  O         -3.5680  -51.1580   -7.9370 O.2    27  THR27      -0.2714
     37  CB        -4.1890  -48.0550   -8.7190 C.3    27  THR27       0.1808
     38  OG1       -3.8650  -46.6670   -8.5680 O.3    27  THR27      -0.2208
     39  CG2       -5.2890  -48.4100   -7.7190 C.3    27  THR27       0.0379
     40  N         -3.0360  -50.7090  -10.0730 N.am   28  TRP28      -0.1973
     41  CA        -3.1730  -52.1010  -10.5010 C.3    28  TRP28       0.1640
     42  C         -2.1830  -53.0030   -9.7590 C.2    28  TRP28       0.2290
     43  O         -2.5520  -54.0290   -9.2110 O.2    28  TRP28      -0.2864
     44  CB        -2.9140  -52.1710  -11.9970 C.3    28  TRP28       0.0576
     45  CG        -3.0070  -53.5280  -12.5690 C.ar   28  TRP28       0.0006
     46  CD1       -3.8250  -54.5480  -12.1530 C.ar   28  TRP28       0.0946
     47  CD2       -2.2860  -54.0260  -13.7000 C.ar   28  TRP28       0.0152
     48  NE1       -3.6380  -55.6530  -12.9450 N.ar   28  TRP28      -0.2442
     49  CE2       -2.7050  -55.3560  -13.9080 C.ar   28  TRP28       0.0810
     50  CE3       -1.3250  -53.4760  -14.5580 C.ar   28  TRP28       0.0012
     51  CZ2       -2.1910  -56.1460  -14.9310 C.ar   28  TRP28       0.0191
     52  CZ3       -0.8210  -54.2700  -15.5900 C.ar   28  TRP28       0.0001
     53  CH2       -1.2580  -55.5830  -15.7630 C.ar   28  TRP28       0.0015
     54  N          4.4180  -40.8630   -5.8660 N.3    78  HIS78      -0.1241
     55  CA         4.7900  -40.3150   -7.1690 C.3    78  HIS78       0.1621
     56  C          5.8790  -39.2610   -7.0210 C.2    78  HIS78       0.2264
     57  O          6.3740  -38.7580   -8.0100 O.2    78  HIS78      -0.2867
     58  CB         3.5900  -39.6540   -7.8520 C.3    78  HIS78       0.0745
     59  CG         2.4390  -40.5750   -8.0560 C.ar   78  HIS78       0.0817
     60  ND1        2.5840  -41.8190   -8.6230 N.ar   78  HIS78      -0.2268
     61  CD2        1.1270  -40.4440   -7.7500 C.ar   78  HIS78       0.1154
     62  CE1        1.4050  -42.4150   -8.6740 C.ar   78  HIS78       0.1986
     63  NE2        0.5040  -41.5990   -8.1580 N.ar   78  HIS78      -0.2212
     64  N          5.8580  -46.3490  -17.7170 N.3   101  ARG101     -0.1245
     65  CA         4.8480  -46.5860  -18.7380 C.3   101  ARG101      0.1563
     66  C          5.0410  -45.6040  -19.8790 C.2   101  ARG101      0.2260
     67  O          5.5780  -44.5120  -19.6850 O.2   101  ARG101     -0.2867
     68  CB         3.4410  -46.4230  -18.1680 C.3   101  ARG101      0.0307
     69  CG         2.3250  -46.7130  -19.1580 C.3   101  ARG101      0.0489
     70  CD         0.9320  -46.5170  -18.5280 C.3   101  ARG101      0.2205
     71  NE        -0.1380  -46.8960  -19.4640 N.pl3 101  ARG101     -0.0865
     72  CZ        -1.4320  -46.6200  -19.2940 C.cat 101  ARG101      0.5346
     73  NH1       -1.8540  -45.9440  -18.2290 N.pl3 101  ARG101      0.1354
     74  NH2       -2.3130  -47.0240  -20.1960 N.pl3 101  ARG101      0.1354
     75  N          0.6180  -42.8080  -23.1370 N.3   105  ASP105     -0.1239
     76  CA        -0.5300  -43.3750  -22.4790 C.3   105  ASP105      0.1674
     77  C         -0.7360  -42.6690  -21.1480 C.2   105  ASP105      0.2266
     78  O         -1.8620  -42.4260  -20.7490 O.2   105  ASP105     -0.2867
     79  CB        -0.3100  -44.8800  -22.3330 C.3   105  ASP105      0.1410
     80  CG        -0.0100  -45.5400  -23.6720 C.2   105  ASP105      0.3668
     81  OD1       -0.7660  -45.2780  -24.6380 O.co2 105  ASP105     -0.2456
     82  OD2        0.9800  -46.2960  -23.7690 O.co2 105  ASP105     -0.2456
     83  N         -4.1040  -40.7340  -20.1970 N.3   109  SER109     -0.1217
     84  CA        -4.7450  -41.1260  -18.9400 C.3   109  SER109      0.1889
     85  C         -4.9550  -39.9300  -18.0210 C.2   109  SER109      0.2288
     86  O         -6.0420  -39.7200  -17.5020 O.2   109  SER109     -0.2866
     87  CB        -3.9100  -42.1790  -18.2000 C.3   109  SER109      0.2089
     88  OG        -4.6060  -42.6620  -17.0720 O.3   109  SER109     -0.2183
     89  N         -7.7430  -37.6560  -19.2310 N.3   112  ARG112     -0.1245
     90  CA        -9.0580  -38.1310  -18.8300 C.3   112  ARG112      0.1563
     91  C         -9.3050  -37.7910  -17.3610 C.2   112  ARG112      0.2260
     92  O        -10.3790  -37.3040  -16.9890 O.2   112  ARG112     -0.2867
     93  CB        -9.1900  -39.6430  -19.0520 C.3   112  ARG112      0.0307
     94  CG       -10.5490  -40.1820  -18.6180 C.3   112  ARG112      0.0489
     95  CD       -10.7380  -41.6610  -18.9080 C.3   112  ARG112      0.2205
     96  NE       -10.1830  -42.5220  -17.8610 N.pl3 112  ARG112     -0.0865
     97  CZ        -9.0540  -43.2110  -17.9920 C.cat 112  ARG112      0.5346
     98  NH1       -8.3490  -43.1230  -19.1200 N.pl3 112  ARG112      0.1354
     99  NH2       -8.6200  -43.9750  -16.9930 N.pl3 112  ARG112      0.1354
    100  N          4.9240  -51.1350  -17.3250 N.3   178  TYR178     -0.1241
    101  CA         3.5030  -51.4190  -17.3280 C.3   178  TYR178      0.1605
    102  C          3.1780  -52.3640  -18.4730 C.2   178  TYR178      0.2264
    103  O          2.4130  -53.3130  -18.3120 O.2   178  TYR178     -0.2867
    104  CB         2.7670  -50.1120  -17.5810 C.3   178  TYR178      0.0534
    105  CG         1.2800  -50.2350  -17.7680 C.ar  178  TYR178     -0.0201
    106  CD1        0.4440  -50.4120  -16.6740 C.ar  178  TYR178     -0.0009
    107  CD2        0.6990  -50.1310  -19.0320 C.ar  178  TYR178     -0.0009
    108  CE1       -0.9280  -50.4950  -16.8250 C.ar  178  TYR178      0.0417
    109  CE2       -0.6760  -50.2190  -19.1920 C.ar  178  TYR178      0.0417
    110  CZ        -1.4860  -50.3930  -18.0760 C.ar  178  TYR178      0.1957
    111  OH        -2.8550  -50.4910  -18.1970 O.3   178  TYR178     -0.2866
    112  N          1.2410  -56.0450  -18.6040 N.3   182  LYS182     -0.1245
    113  CA         0.0970  -56.3480  -19.4610 C.3   182  LYS182      0.1561
    114  C          0.4000  -57.5890  -20.2930 C.2   182  LYS182      0.2260
    115  O         -0.4700  -58.4160  -20.5320 O.2   182  LYS182     -0.2867
    116  CB        -0.2190  -55.1790  -20.4080 C.3   182  LYS182      0.0271
    117  CG        -0.6090  -53.8720  -19.7110 C.3   182  LYS182      0.0035
    118  CD        -2.1040  -53.7780  -19.4420 C.3   182  LYS182      0.0206
    119  CE        -2.8680  -53.8020  -20.7650 C.3   182  LYS182      0.1093
    120  NZ        -4.3170  -53.5350  -20.5870 N.3   182  LYS182     -0.1314
    121  N         -7.4350  -58.9510  -10.0520 N.3   214  SER214     -0.1202
    122  CA        -7.0620  -57.5630  -10.3050 C.3   214  SER214      0.2020
    123  C         -7.0910  -57.2130  -11.7780 C.2   214  SER214      0.2619
    124  O         -6.4430  -56.2580  -12.1980 O.2   214  SER214     -0.2717
    125  CB        -5.6570  -57.2690   -9.7760 C.3   214  SER214      0.2103
    126  OG        -5.4860  -57.7380   -8.4630 O.3   214  SER214     -0.2182
    127  N         -7.8370  -57.9740  -12.5680 N.am  215  THR215     -0.1938
    128  CA        -7.9780  -57.6390  -13.9760 C.3   215  THR215      0.2028
    129  C         -8.7440  -56.3390  -14.1550 C.2   215  THR215      0.2642
    130  O         -9.3940  -55.8480  -13.2270 O.2   215  THR215     -0.2714
    131  CB        -8.7460  -58.7190  -14.7280 C.3   215  THR215      0.1808
    132  OG1      -10.0280  -58.8890  -14.1120 O.3   215  THR215     -0.2208
    133  CG2       -7.9950  -60.0370  -14.6810 C.3   215  THR215      0.0379
    134  N         -8.6950  -55.7860  -15.3640 N.am  216  LEU216     -0.1977
    135  CA        -9.4510  -54.5780  -15.6440 C.3   216  LEU216      0.1596
    136  C        -10.9110  -54.7770  -15.2520 C.2   216  LEU216      0.2287
    137  O        -11.4980  -53.9200  -14.6150 O.2   216  LEU216     -0.2864
    138  CB        -9.3230  -54.1770  -17.1180 C.3   216  LEU216      0.0297
    139  CG        -7.9780  -53.5400  -17.4590 C.3   216  LEU216      0.0022
    140  CD1       -7.8050  -53.4470  -18.9800 C.3   216  LEU216      0.0001
    141  CD2       -7.9010  -52.1750  -16.8360 C.3   216  LEU216      0.0001
    142  N        -11.3820  -54.7960  -11.5270 N.3   219  MET219     -0.1245
    143  CA       -11.1550  -53.4690  -10.9840 C.3   219  MET219      0.1570
    144  C        -12.2150  -52.4560  -11.3940 C.2   219  MET219      0.2261
    145  O        -12.4840  -51.5290  -10.6490 O.2   219  MET219     -0.2867
    146  CB        -9.7240  -52.9810  -11.2540 C.3   219  MET219      0.0387
    147  CG        -8.7420  -53.6480  -10.2880 C.3   219  MET219      0.0595
    148  SD        -7.0510  -53.1210  -10.4990 S.3   219  MET219     -0.1393
    149  CE        -7.1890  -51.4720   -9.7820 C.3   219  MET219      0.0692
    150  N        -11.6680  -44.0940  -13.2080 N.3   244  PHE244     -0.1227
    151  CA       -10.2890  -44.3890  -12.8570 C.3   244  PHE244      0.1736
    152  C         -9.7660  -45.5980  -13.6360 C.2   244  PHE244      0.2595
    153  O         -8.6570  -45.5670  -14.1910 O.2   244  PHE244     -0.2718
    154  CB       -10.0770  -44.5790  -11.3550 C.3   244  PHE244      0.0547
    155  CG        -8.6200  -44.6670  -10.9810 C.ar  244  PHE244     -0.0202
    156  CD1       -7.9260  -43.5440  -10.5780 C.ar  244  PHE244     -0.0042
    157  CD2       -7.9340  -45.8610  -11.0900 C.ar  244  PHE244     -0.0042
    158  CE1       -6.5870  -43.6130  -10.2790 C.ar  244  PHE244     -0.0003
    159  CE2       -6.5990  -45.9390  -10.7760 C.ar  244  PHE244     -0.0003
    160  CZ        -5.9240  -44.8140  -10.3750 C.ar  244  PHE244     -0.0000
    161  N        -10.5590  -46.6620  -13.6790 N.am  245  VAL245     -0.1966
    162  CA       -10.1430  -47.8520  -14.4020 C.3   245  VAL245      0.1727
    163  C        -10.6010  -47.6770  -15.8380 C.2   245  VAL245      0.2617
    164  O        -11.7970  -47.7110  -16.1190 O.2   245  VAL245     -0.2715
    165  CB       -10.7300  -49.1380  -13.7890 C.3   245  VAL245      0.0290
    166  CG1      -10.2150  -50.3620  -14.5190 C.3   245  VAL245      0.0023
    167  CG2      -10.3700  -49.2360  -12.3340 C.3   245  VAL245      0.0023
    168  N         -9.6500  -47.4350  -16.7360 N.am  246  GLY246     -0.1940
    169  CA        -9.9650  -47.2320  -18.1440 C.3   246  GLY246      0.2014
    170  C         -9.7250  -48.4990  -18.9570 C.2   246  GLY246      0.2639
    171  O        -10.1300  -49.5820  -18.5570 O.2   246  GLY246     -0.2714
    172  N         -9.0440  -48.3690  -20.0900 N.am  247  GLU247     -0.1963
    173  CA        -8.8200  -49.5040  -20.9660 C.3   247  GLU247      0.1733
    174  C         -7.4090  -50.0420  -20.8590 C.2   247  GLU247      0.2617
    175  O         -7.1190  -51.1130  -21.3750 O.2   247  GLU247     -0.2715
    176  CB        -9.0990  -49.1090  -22.4200 C.3   247  GLU247      0.0429
    177  CG       -10.5480  -48.8470  -22.7140 C.3   247  GLU247      0.1163
    178  CD       -11.3960  -50.0620  -22.4250 C.2   247  GLU247      0.3649
    179  OE1      -12.4230  -49.9280  -21.7270 O.co2 247  GLU247     -0.2457
    180  OE2      -11.0140  -51.1620  -22.8780 O.co2 247  GLU247     -0.2457
    181  N         -6.5250  -49.2920  -20.2120 N.am  248  GLY248     -0.1940
    182  CA        -5.1300  -49.6920  -20.1180 C.3   248  GLY248      0.2014
    183  C         -4.4240  -49.8660  -21.4560 C.2   248  GLY248      0.2638
    184  O         -3.6940  -50.8250  -21.6530 O.2   248  GLY248     -0.2714
    185  N         -4.6120  -48.9340  -22.3810 N.am  249  ARG249     -0.1977
    186  CA        -4.0500  -49.0990  -23.7140 C.3   249  ARG249      0.1597
    187  C         -2.5640  -48.8170  -23.8350 C.2   249  ARG249      0.2287
    188  O         -1.9600  -48.1970  -22.9640 O.2   249  ARG249     -0.2864
    189  CB        -4.7930  -48.2280  -24.7100 C.3   249  ARG249      0.0334
    190  CG        -6.2530  -48.5650  -24.8320 C.3   249  ARG249      0.0492
    191  CD        -6.8150  -47.8830  -26.0580 C.3   249  ARG249      0.2205
    192  NE        -8.1810  -47.4690  -25.8150 N.pl3 249  ARG249     -0.0865
    193  CZ        -9.0140  -47.0690  -26.7650 C.cat 249  ARG249      0.5346
    194  NH1       -8.6100  -47.0340  -28.0350 N.pl3 249  ARG249      0.1354
    195  NH2      -10.2490  -46.7040  -26.4390 N.pl3 249  ARG249      0.1354
    196  N         -0.7370  -45.3850  -27.5460 N.3   252  GLN252     -0.1245
    197  CA        -1.7850  -44.6660  -28.2560 C.3   252  GLN252      0.1566
    198  C         -1.2460  -43.5210  -29.1140 C.2   252  GLN252      0.2260
    199  O         -0.3410  -42.7830  -28.7140 O.2   252  GLN252     -0.2867
    200  CB        -2.8420  -44.1540  -27.2820 C.3   252  GLN252      0.0367
    201  CG        -3.5450  -45.2810  -26.5310 C.3   252  GLN252      0.0905
    202  CD        -4.2740  -44.7820  -25.3150 C.2   252  GLN252      0.2608
    203  OE1       -5.4560  -44.4600  -25.3780 O.2   252  GLN252     -0.2717
    204  NE2       -3.5740  -44.7200  -24.1890 N.am  252  GLN252     -0.0878
@<TRIPOS>BOND
     1   198   199    2
     2   198   197    1
     3   197   196    1
     4   197   200    1
     5   194   193    1
     6   200   201    1
     7   193   195    1
     8   193   192    2
     9   201   202    1
    10   191   192    1
    11   191   190    1
    12   203   202    2
    13   202   204   am
    14   190   189    1
    15   189   186    1
    16    81    80   ar
    17   187   186    1
    18   187   188    2
    19    82    80   ar
    20   186   185    1
    21    80    79    1
    22    75    76    1
    23   180   178   ar
    24   177   178    1
    25   177   176    1
    26    76    79    1
    27    76    77    1
    28   178   179   ar
    29   176   173    1
    30   185   183   am
    31   184   183    2
    32   183   182    1
    33   175   174    2
    34    77    78    2
    35   173   174    1
    36   173   172    1
    37   174   181   am
    38   119   120    1
    39   119   118    1
    40   115   114    2
    41   116   117    1
    42   116   113    1
    43   114   113    1
    44   181   182    1
    45    83    84    1
    46    74    72    1
    47   172   170   am
    48    66    67    2
    49    66    65    1
    50   117   118    1
    51    71    72    2
    52    71    70    1
    53   113   112    1
    54    72    73    1
    55    89    90    1
    56   109   107   ar
    57   109   110   ar
    58    69    70    1
    59    69    68    1
    60    98    97    1
    61    93    90    1
    62    93    94    1
    63   107   105   ar
    64   140   139    1
    65   170   171    2
    66   170   169    1
    67    84    87    1
    68    84    85    1
    69    95    94    1
    70    95    96    1
    71    90    91    1
    72    65    68    1
    73    65    64    1
    74   102   103    2
    75   102   101    1
    76    87    88    1
    77   111   110    1
    78   169   168    1
    79   110   108   ar
    80    85    86    2
    81    97    96    2
    82    97    99    1
    83   105   104    1
    84   105   106   ar
    85   104   101    1
    86   139   138    1
    87   139   141    1
    88    91    92    2
    89   101   100    1
    90   138   135    1
    91   108   106   ar
    92   168   163   am
    93    10     9    2
    94   164   163    2
    95   163   162    1
    96    53    52   ar
    97    53    51   ar
    98   135   134    1
    99   135   136    1
   100    52    50   ar
   101    11    12    1
   102    11     8    1
   103   134   129   am
   104   136   137    2
   105     9     8    1
   106     9    16   am
   107    12    13    1
   108    51    49   ar
   109    17    18    1
   110    17    20    1
   111    17    16    1
   112   131   133    1
   113   131   132    1
   114   131   128    1
   115    19    18    2
   116    50    47   ar
   117   166   165    1
   118     8     7    1
   119    18    21   am
   120   162   165    1
   121   162   161    1
   122   153   152    2
   123   129   128    1
   124   129   130    2
   125    14    13    1
   126    14    15    1
   127   128   127    1
   128    49    47   ar
   129    49    48   ar
   130    21    22    1
   131   165   167    1
   132    47    45   ar
   133   161   152   am
   134   152   151    1
   135    22    23    1
   136   150   151    1
   137    48    46   ar
   138   151   154    1
   139    45    46   ar
   140    45    44    1
   141   127   123   am
   142   124   123    2
   143    23    24    2
   144    23    25   am
   145    44    41    1
   146   123   122    1
   147   142   143    1
   148   144   143    1
   149   144   145    2
   150   154   155    1
   151   146   143    1
   152   146   147    1
   153    25    26    1
   154   157   155   ar
   155   157   159   ar
   156   155   156   ar
   157     5     2    1
   158     5     6    1
   159   159   160   ar
   160     3     2    1
   161     3     4    2
   162   156   158   ar
   163    41    40    1
   164    41    42    1
   165   148   147    1
   166   148   149    1
   167     2     1    1
   168   160   158   ar
   169   122   121    1
   170   122   125    1
   171    40    35   am
   172    26    29    1
   173    26    27    1
   174   125   126    1
   175    42    43    2
   176    33    27   am
   177    33    34    1
   178    29    30    1
   179    27    28    2
   180    35    34    1
   181    35    36    2
   182    37    38    1
   183    37    34    1
   184    37    39    1
   185    62    60   ar
   186    62    63   ar
   187    60    59   ar
   188    63    61   ar
   189    59    58    1
   190    59    61   ar
   191    57    56    2
   192    58    55    1
   193    30    32   am
   194    30    31    2
   195    55    56    1
   196    55    54    1
