@<TRIPOS>MOLECULE
tmp/3mgcA00.pdb
 110 106 0 0 0
SMALL
GASTEIGER

@<TRIPOS>ATOM
      1  N        -16.4310   23.2620   22.6060 N.3    35  LYS35      -0.1231
      2  CA       -16.5420   21.8640   22.2980 C.3    35  LYS35       0.1693
      3  C        -16.0200   20.9420   23.4060 C.2    35  LYS35       0.2592
      4  O        -15.6780   19.7850   23.1500 O.2    35  LYS35      -0.2718
      5  CB       -15.8390   21.5920   20.9690 C.3    35  LYS35       0.0285
      6  CG       -16.3930   22.4050   19.8450 C.3    35  LYS35       0.0035
      7  CD       -17.8830   22.1700   19.7190 C.3    35  LYS35       0.0206
      8  CE       -18.3630   22.2460   18.2880 C.3    35  LYS35       0.1093
      9  NZ       -19.7310   21.6300   18.1110 N.3    35  LYS35      -0.1314
     10  N        -15.9910   21.4340   24.6360 N.am   36  ALA36      -0.1966
     11  CA       -15.4450   20.6480   25.7180 C.3    36  ALA36       0.1728
     12  C        -16.4710   20.3520   26.7690 C.2    36  ALA36       0.2617
     13  O        -16.1200   20.3700   27.9380 O.2    36  ALA36      -0.2715
     14  CB       -14.2900   21.3650   26.3330 C.3    36  ALA36       0.0334
     15  N        -17.7310   20.1230   26.3870 N.am   37  GLY37      -0.1940
     16  CA       -18.7900   19.6870   27.3480 C.3    37  GLY37       0.2014
     17  C        -19.8380   20.6840   27.8840 C.2    37  GLY37       0.2639
     18  O        -20.9630   20.2930   28.1750 O.2    37  GLY37      -0.2714
     19  N        -19.5070   21.9640   28.0430 N.am   38  ASN38      -0.1958
     20  CA       -20.4360   22.8770   28.7390 C.3    38  ASN38       0.1819
     21  C        -21.7560   23.1670   27.9740 C.2    38  ASN38       0.2622
     22  O        -22.7430   23.5430   28.5870 O.2    38  ASN38      -0.2715
     23  CB       -19.7360   24.1820   29.1790 C.3    38  ASN38       0.1195
     24  CG       -19.3720   25.0930   28.0130 C.2    38  ASN38       0.2630
     25  OD1      -19.6400   24.7910   26.8730 O.2    38  ASN38      -0.2716
     26  ND2      -18.7600   26.2160   28.3070 N.am   38  ASN38      -0.0877
     27  N        -21.7950   22.9870   26.6580 N.am   39  THR39      -0.1937
     28  CA       -23.0590   23.1580   25.9350 C.3    39  THR39       0.2028
     29  C        -24.0360   22.0070   26.2600 C.2    39  THR39       0.2642
     30  O        -25.1710   22.2550   26.5990 O.2    39  THR39      -0.2714
     31  CB       -22.8390   23.3280   24.3830 C.3    39  THR39       0.1808
     32  OG1      -22.0170   24.4990   24.1410 O.3    39  THR39      -0.2208
     33  CG2      -24.1820   23.4360   23.6170 C.3    39  THR39       0.0379
     34  N        -23.5680   20.7670   26.1910 N.am   40  TRP40      -0.1973
     35  CA       -24.3340   19.5930   26.5910 C.3    40  TRP40       0.1640
     36  C        -24.8120   19.6840   28.0340 C.2    40  TRP40       0.2290
     37  O        -25.9760   19.4140   28.3090 O.2    40  TRP40      -0.2864
     38  CB       -23.4840   18.3180   26.4010 C.3    40  TRP40       0.0576
     39  CG       -24.2160   17.0260   26.6350 C.ar   40  TRP40       0.0006
     40  CD1      -25.5720   16.8400   26.6660 C.ar   40  TRP40       0.0946
     41  CD2      -23.6390   15.7310   26.8640 C.ar   40  TRP40       0.0152
     42  NE1      -25.8650   15.5260   26.9140 N.ar   40  TRP40      -0.2442
     43  CE2      -24.6980   14.8260   27.0440 C.ar   40  TRP40       0.0810
     44  CE3      -22.3260   15.2510   26.9530 C.ar   40  TRP40       0.0012
     45  CZ2      -24.4920   13.4780   27.2760 C.ar   40  TRP40       0.0191
     46  CZ3      -22.1250   13.8990   27.2120 C.ar   40  TRP40       0.0001
     47  CH2      -23.2050   13.0340   27.3670 C.ar   40  TRP40       0.0015
     48  N        -17.4190   30.1150   27.9980 N.3    90  HIS90      -0.1241
     49  CA       -16.0480   29.5890   27.7040 C.3    90  HIS90       0.1621
     50  C        -14.9280   30.5660   28.1110 C.2    90  HIS90       0.2264
     51  O        -13.7620   30.2610   27.8780 O.2    90  HIS90      -0.2867
     52  CB       -15.8070   29.2020   26.2410 C.3    90  HIS90       0.0745
     53  CG       -16.9770   28.5520   25.5750 C.ar   90  HIS90       0.0817
     54  ND1      -17.1440   27.1840   25.5300 N.ar   90  HIS90      -0.2268
     55  CD2      -18.0240   29.0830   24.8980 C.ar   90  HIS90       0.1154
     56  CE1      -18.2610   26.9020   24.8850 C.ar   90  HIS90       0.1986
     57  NE2      -18.8110   28.0370   24.4880 N.ar   90  HIS90      -0.2212
     58  N        -11.8440   18.2690   28.1430 N.3   113  ARG113     -0.1245
     59  CA       -11.8730   17.2170   27.1660 C.3   113  ARG113      0.1563
     60  C        -10.5420   17.0360   26.4710 C.2   113  ARG113      0.2260
     61  O         -9.7820   17.9830   26.3350 O.2   113  ARG113     -0.2867
     62  CB       -12.8910   17.6110   26.1330 C.3   113  ARG113      0.0307
     63  CG       -13.0990   16.6160   25.0700 C.3   113  ARG113      0.0489
     64  CD       -14.2820   16.9990   24.2220 C.3   113  ARG113      0.2205
     65  NE       -14.5770   15.9470   23.2510 N.pl3 113  ARG113     -0.0865
     66  CZ       -15.2100   16.1300   22.1070 C.cat 113  ARG113      0.5346
     67  NH1      -15.6460   17.3330   21.7300 N.pl3 113  ARG113      0.1354
     68  NH2      -15.4000   15.0960   21.3330 N.pl3 113  ARG113      0.1354
     69  N        -13.4690   18.6970   16.7260 N.3   121  SER121     -0.1217
     70  CA       -14.8230   19.1850   16.8220 C.3   121  SER121      0.1889
     71  C        -14.8450   20.6750   16.5230 C.2   121  SER121      0.2288
     72  O        -15.7960   21.1840   15.9460 O.2   121  SER121     -0.2866
     73  CB       -15.4410   18.8800   18.1890 C.3   121  SER121      0.2089
     74  OG       -15.9060   17.5520   18.2210 O.3   121  SER121     -0.2183
     75  N        -15.1640   15.5140   30.0420 N.3   184  TYR184     -0.1241
     76  CA       -16.1750   15.1350   29.0640 C.3   184  TYR184      0.1605
     77  C        -16.2690   13.6210   28.7950 C.2   184  TYR184      0.2264
     78  O        -17.3730   13.0580   28.7000 O.2   184  TYR184     -0.2867
     79  CB       -15.8250   15.8400   27.7870 C.3   184  TYR184      0.0534
     80  CG       -16.7310   15.5510   26.6280 C.ar  184  TYR184     -0.0201
     81  CD1      -18.0500   16.0270   26.5980 C.ar  184  TYR184     -0.0009
     82  CD2      -16.2620   14.8450   25.5430 C.ar  184  TYR184     -0.0009
     83  CE1      -18.8570   15.7800   25.5280 C.ar  184  TYR184      0.0417
     84  CE2      -17.0550   14.6090   24.4770 C.ar  184  TYR184      0.0417
     85  CZ       -18.3440   15.0790   24.4740 C.ar  184  TYR184      0.1957
     86  OH       -19.1190   14.8160   23.3860 O.3   184  TYR184     -0.2866
     87  N        -19.5500   11.2600   29.0110 N.3   188  LYS188     -0.1245
     88  CA       -20.0330   10.5000   27.8840 C.3   188  LYS188      0.1561
     89  C        -20.0940    9.0230   28.2560 C.2   188  LYS188      0.2260
     90  O        -20.9950    8.3120   27.8160 O.2   188  LYS188     -0.2867
     91  CB       -19.1470   10.7340   26.6620 C.3   188  LYS188      0.0271
     92  CG       -19.8080   10.3720   25.3360 C.3   188  LYS188      0.0035
     93  CD       -18.7220    9.9980   24.3030 C.3   188  LYS188      0.0206
     94  CE       -17.7330   11.1300   24.1100 C.3   188  LYS188      0.1093
     95  NZ       -16.5920   11.0190   25.0710 N.3   188  LYS188     -0.1314
     96  N        -31.1490   15.0810   25.3690 N.3   220  SER220     -0.1217
     97  CA       -29.8560   15.3970   24.7530 C.3   220  SER220      0.1889
     98  C        -29.6360   14.8510   23.3550 C.2   220  SER220      0.2288
     99  O        -28.5750   15.0990   22.7810 O.2   220  SER220     -0.2866
    100  CB       -28.7210   14.8750   25.6490 C.3   220  SER220      0.2089
    101  OG       -28.6980   15.5150   26.8870 O.3   220  SER220     -0.2183
    102  N         -8.1780   11.0090   18.8570 N.3   221  GLN221     -0.1245
    103  CA        -8.1410   10.9540   17.3890 C.3   221  GLN221      0.1566
    104  C         -6.7820   11.4570   16.9080 C.2   221  GLN221      0.2260
    105  O         -6.3160   12.5350   17.3090 O.2   221  GLN221     -0.2867
    106  CB        -9.2820   11.7720   16.7490 C.3   221  GLN221      0.0367
    107  CG       -10.6140   11.7310   17.5350 C.3   221  GLN221      0.0905
    108  CD       -11.8280   12.2900   16.7640 C.2   221  GLN221      0.2608
    109  OE1      -11.9760   12.0790   15.5490 O.2   221  GLN221     -0.2717
    110  NE2      -12.7170   12.9800   17.4850 N.am  221  GLN221     -0.0878
@<TRIPOS>BOND
     1   109   108    2
     2    72    71    2
     3    71    70    1
     4    69    70    1
     5   106   103    1
     6   106   107    1
     7   108   110   am
     8   108   107    1
     9    70    73    1
    10   104   105    2
    11   104   103    1
    12   103   102    1
    13     9     8    1
    14    73    74    1
    15     8     7    1
    16     7     6    1
    17     6     5    1
    18     5     2    1
    19    68    66    1
    20    67    66    1
    21    66    65    2
    22     2     1    1
    23     2     3    1
    24    99    98    2
    25     4     3    2
    26    65    64    1
    27    98    97    1
    28    86    85    1
    29     3    10   am
    30    33    31    1
    31    94    93    1
    32    94    95    1
    33    32    31    1
    34    64    63    1
    35    93    92    1
    36    31    28    1
    37    85    84   ar
    38    85    83   ar
    39    84    82   ar
    40    57    56   ar
    41    57    55   ar
    42    10    11    1
    43    97    96    1
    44    97   100    1
    45    56    54   ar
    46    55    53   ar
    47    63    62    1
    48    92    91    1
    49    83    81   ar
    50    54    53   ar
    51    82    80   ar
    52    53    52    1
    53   100   101    1
    54    11    14    1
    55    11    12    1
    56    28    29    1
    57    28    27    1
    58    62    59    1
    59    34    29   am
    60    34    35    1
    61    52    49    1
    62    29    30    2
    63    61    60    2
    64    15    12   am
    65    15    16    1
    66    38    35    1
    67    38    39    1
    68    60    59    1
    69    35    36    1
    70    81    80   ar
    71    80    79    1
    72    39    40   ar
    73    39    41   ar
    74    27    21   am
    75    91    88    1
    76    40    42   ar
    77    12    13    2
    78    41    44   ar
    79    41    43   ar
    80    25    24    2
    81    42    43   ar
    82    44    46   ar
    83    43    45   ar
    84    59    58    1
    85    46    47   ar
    86    45    47   ar
    87    16    17    1
    88    49    48    1
    89    49    50    1
    90    79    76    1
    91    90    89    2
    92    51    50    2
    93    17    19   am
    94    17    18    2
    95    88    89    1
    96    88    87    1
    97    21    22    2
    98    21    20    1
    99    24    26   am
   100    24    23    1
   101    36    37    2
   102    19    20    1
   103    78    77    2
   104    20    23    1
   105    77    76    1
   106    76    75    1
