@<TRIPOS>MOLECULE
tmp/3mgdB00.pdb
 183 176 0 0 0
SMALL
GASTEIGER

@<TRIPOS>ATOM
      1  N         -6.5210   23.0980   19.8040 N.3    19  GLN19      -0.1245
      2  CA        -6.7500   22.1950   18.6870 C.3    19  GLN19       0.1566
      3  C         -5.5300   21.3270   18.3980 C.2    19  GLN19       0.2260
      4  O         -5.6400   20.1040   18.3090 O.2    19  GLN19      -0.2867
      5  CB        -7.1250   22.9980   17.4320 C.3    19  GLN19       0.0367
      6  CG        -7.1780   22.1720   16.1860 C.3    19  GLN19       0.0905
      7  CD        -7.0520   23.0140   14.9300 C.2    19  GLN19       0.2608
      8  OE1       -7.4450   24.1810   14.9090 O.2    19  GLN19      -0.2717
      9  NE2       -6.5040   22.4210   13.8740 N.am   19  GLN19      -0.0878
     10  N         -4.8500   18.7980   20.8650 N.3    22  ASP22      -0.1225
     11  CA        -5.8060   17.7080   20.6980 C.3    22  ASP22       0.1805
     12  C         -5.4440   16.7560   19.5570 C.2    22  ASP22       0.2597
     13  O         -5.9090   15.6190   19.5280 O.2    22  ASP22      -0.2718
     14  CB        -7.2290   18.2400   20.5040 C.3    22  ASP22       0.1424
     15  CG        -7.9170   18.5760   21.8230 C.2    22  ASP22       0.3668
     16  OD1       -7.2060   18.8890   22.8070 O.co2  22  ASP22      -0.2456
     17  OD2       -9.1700   18.5280   21.8670 O.co2  22  ASP22      -0.2456
     18  N         -4.6250   17.2260   18.6160 N.am   23  GLU23      -0.1979
     19  CA        -4.1920   16.3950   17.4980 C.3    23  GLU23       0.1602
     20  C         -3.0320   15.5010   17.9160 C.2    23  GLU23       0.2287
     21  O         -2.5600   14.6750   17.1340 O.2    23  GLU23      -0.2864
     22  CB        -3.7690   17.2570   16.3010 C.3    23  GLU23       0.0415
     23  CG        -4.9140   17.9990   15.6040 C.3    23  GLU23       0.1163
     24  CD        -4.4270   18.8800   14.4590 C.2    23  GLU23       0.3649
     25  OE1       -3.5080   18.4560   13.7200 O.co2  23  GLU23      -0.2457
     26  OE2       -4.9560   20.0010   14.3020 O.co2  23  GLU23      -0.2457
     27  N         -8.2170   24.5070    3.8300 N.3    84  ILE84      -0.1231
     28  CA        -9.0400   24.3710    5.0060 C.3    84  ILE84       0.1692
     29  C         -8.1540   24.0250    6.1950 C.2    84  ILE84       0.2593
     30  O         -7.1990   23.2450    6.0840 O.2    84  ILE84      -0.2718
     31  CB       -10.1610   23.3480    4.7610 C.3    84  ILE84       0.0266
     32  CG1      -11.2170   23.9800    3.8340 C.3    84  ILE84       0.0019
     33  CG2      -10.7600   22.8400    6.0810 C.3    84  ILE84       0.0020
     34  CD1      -12.3760   23.0530    3.4950 C.3    84  ILE84       0.0001
     35  N         -8.4570   24.6540    7.3220 N.am   85  THR85      -0.1939
     36  CA        -7.5760   24.6140    8.4660 C.3    85  THR85       0.2028
     37  C         -8.3300   25.1070    9.7060 C.2    85  THR85       0.2642
     38  O         -9.4880   25.5230    9.6100 O.2    85  THR85      -0.2714
     39  CB        -6.3150   25.4730    8.1870 C.3    85  THR85       0.1808
     40  OG1       -5.3680   25.3220    9.2510 O.3    85  THR85      -0.2208
     41  CG2       -6.6760   26.9430    8.0080 C.3    85  THR85       0.0379
     42  N         -7.6780   25.0360   10.8640 N.am   86  ASN86      -0.1971
     43  CA        -8.2520   25.5330   12.1180 C.3    86  ASN86       0.1688
     44  C         -9.6080   24.9310   12.4260 C.2    86  ASN86       0.2292
     45  O        -10.4960   25.6200   12.9300 O.2    86  ASN86      -0.2864
     46  CB        -8.4030   27.0510   12.0860 C.3    86  ASN86       0.1181
     47  CG        -7.0730   27.7760   12.0110 C.2    86  ASN86       0.2629
     48  OD1       -6.0050   27.1680   12.0810 O.2    86  ASN86      -0.2716
     49  ND2       -7.1360   29.0880   11.8600 N.am   86  ASN86      -0.0877
     50  N        -11.8490   22.7120   14.6670 N.3    87  TYR87      -0.1227
     51  CA       -11.8940   22.2230   16.0400 C.3    87  TYR87       0.1736
     52  C        -13.3340   22.1390   16.4850 C.2    87  TYR87       0.2596
     53  O        -14.1320   23.0390   16.2100 O.2    87  TYR87      -0.2718
     54  CB       -11.1180   23.1680   16.9660 C.3    87  TYR87       0.0548
     55  CG       -11.2300   22.8590   18.4480 C.ar   87  TYR87      -0.0200
     56  CD1      -10.4690   21.8520   19.0300 C.ar   87  TYR87      -0.0009
     57  CD2      -12.0720   23.5980   19.2680 C.ar   87  TYR87      -0.0009
     58  CE1      -10.5570   21.5770   20.4010 C.ar   87  TYR87       0.0417
     59  CE2      -12.1730   23.3300   20.6380 C.ar   87  TYR87       0.0417
     60  CZ       -11.4120   22.3190   21.1940 C.ar   87  TYR87       0.1957
     61  OH       -11.5050   22.0520   22.5470 O.3    87  TYR87      -0.2866
     62  N        -13.6620   21.0510   17.1710 N.am   88  THR88      -0.1953
     63  CA       -14.9110   20.9770   17.9080 C.3    88  THR88       0.1897
     64  C        -14.6000   20.5700   19.3520 C.2    88  THR88       0.2313
     65  O        -13.8270   19.6410   19.5820 O.2    88  THR88      -0.2863
     66  CB       -15.8950   19.9840   17.2630 C.3    88  THR88       0.1794
     67  OG1      -16.2460   20.4430   15.9460 O.3    88  THR88      -0.2208
     68  CG2      -17.1540   19.8640   18.1240 C.3    88  THR88       0.0378
     69  N        -18.3940   16.7270   19.9490 N.3    93  ARG93      -0.1231
     70  CA       -17.9760   15.9950   18.7680 C.3    93  ARG93       0.1694
     71  C        -18.9620   14.8930   18.4050 C.2    93  ARG93       0.2593
     72  O        -19.6500   14.3510   19.2700 O.2    93  ARG93      -0.2718
     73  CB       -16.5750   15.4160   18.9700 C.3    93  ARG93       0.0321
     74  CG       -15.4980   16.4760   18.9660 C.3    93  ARG93       0.0489
     75  CD       -14.1410   15.9420   19.3880 C.3    93  ARG93       0.2205
     76  NE       -13.2250   17.0560   19.6140 N.pl3  93  ARG93      -0.0865
     77  CZ       -12.0440   16.9590   20.2130 C.cat  93  ARG93       0.5346
     78  NH1      -11.6070   15.7860   20.6520 N.pl3  93  ARG93       0.1354
     79  NH2      -11.2980   18.0400   20.3670 N.pl3  93  ARG93       0.1354
     80  N        -19.0270   14.5740   17.1170 N.am   94  GLY94      -0.1942
     81  CA       -19.8760   13.5040   16.6390 C.3    94  GLY94       0.2014
     82  C        -21.3180   13.9380   16.4940 C.2    94  GLY94       0.2639
     83  O        -22.2250   13.1100   16.4930 O.2    94  GLY94      -0.2714
     84  N        -21.5360   15.2430   16.3800 N.am   95  ASN95      -0.1958
     85  CA       -22.8790   15.7530   16.1460 C.3    95  ASN95       0.1819
     86  C        -22.9950   16.4290   14.7890 C.2    95  ASN95       0.2622
     87  O        -23.9830   17.1040   14.5020 O.2    95  ASN95      -0.2715
     88  CB       -23.3020   16.7000   17.2640 C.3    95  ASN95       0.1195
     89  CG       -23.3420   16.0150   18.6220 C.2    95  ASN95       0.2630
     90  OD1      -23.5220   14.7970   18.7090 O.2    95  ASN95      -0.2716
     91  ND2      -23.1650   16.7920   19.6860 N.am   95  ASN95      -0.0877
     92  N        -21.9720   16.2400   13.9610 N.am   96  GLY96      -0.1940
     93  CA       -21.9580   16.7730   12.6100 C.3    96  GLY96       0.2014
     94  C        -21.5530   18.2340   12.5060 C.2    96  GLY96       0.2639
     95  O        -21.7650   18.8640   11.4740 O.2    96  GLY96      -0.2714
     96  N        -20.9760   18.7870   13.5680 N.am   97  ILE97      -0.1963
     97  CA       -20.6070   20.1990   13.5490 C.3    97  ILE97       0.1727
     98  C        -19.5560   20.5060   12.4660 C.2    97  ILE97       0.2616
     99  O        -19.7800   21.3500   11.6040 O.2    97  ILE97      -0.2715
    100  CB       -20.1420   20.6880   14.9250 C.3    97  ILE97       0.0290
    101  CG1      -21.3010   20.6120   15.9250 C.3    97  ILE97       0.0022
    102  CG2      -19.6540   22.1250   14.8450 C.3    97  ILE97       0.0023
    103  CD1      -20.9300   21.1150   17.3140 C.3    97  ILE97       0.0001
    104  N        -18.4270   19.8050   12.5050 N.am   98  ALA98      -0.1963
    105  CA       -17.3650   20.0220   11.5250 C.3    98  ALA98       0.1728
    106  C        -17.8350   19.7180   10.1010 C.2    98  ALA98       0.2616
    107  O        -17.4310   20.3870    9.1370 O.2    98  ALA98      -0.2715
    108  CB       -16.1430   19.1960   11.8730 C.3    98  ALA98       0.0334
    109  N        -18.6940   18.7140    9.9690 N.am   99  THR99      -0.1951
    110  CA       -19.2350   18.3480    8.6570 C.3    99  THR99       0.1897
    111  C        -20.0550   19.5030    8.0960 C.2    99  THR99       0.2313
    112  O        -19.9280   19.8510    6.9320 O.2    99  THR99      -0.2863
    113  CB       -20.1120   17.0810    8.7370 C.3    99  THR99       0.1794
    114  OG1      -19.2930   15.9580    9.0860 O.3    99  THR99      -0.2208
    115  CG2      -20.7980   16.8180    7.4010 C.3    99  THR99       0.0378
    116  N         -6.3260   20.3540    2.0940 N.3   118  LEU118     -0.1231
    117  CA        -6.0800   20.4010    3.5300 C.3   118  LEU118      0.1693
    118  C         -5.0850   19.3100    3.9100 C.2   118  LEU118      0.2591
    119  O         -4.7620   18.4400    3.0990 O.2   118  LEU118     -0.2718
    120  CB        -7.3830   20.2370    4.3220 C.3   118  LEU118      0.0284
    121  CG        -8.2410   19.0000    4.0360 C.3   118  LEU118      0.0019
    122  CD1       -7.6300   17.7310    4.6340 C.3   118  LEU118      0.0001
    123  CD2       -9.6350   19.2170    4.5670 C.3   118  LEU118      0.0001
    124  N         -4.5740   19.3900    5.1310 N.am  119  VAL119     -0.1980
    125  CA        -3.7970   18.3070    5.7220 C.3   119  VAL119      0.1595
    126  C         -4.6470   17.6330    6.7990 C.2   119  VAL119      0.2287
    127  O         -5.1030   18.2870    7.7310 O.2   119  VAL119     -0.2864
    128  CB        -2.5050   18.8390    6.3540 C.3   119  VAL119      0.0276
    129  CG1       -1.8130   17.7480    7.1360 C.3   119  VAL119      0.0022
    130  CG2       -1.5800   19.4080    5.2790 C.3   119  VAL119      0.0022
    131  N         -5.8600   15.4990    9.9910 N.3   121  SER121     -0.1217
    132  CA        -5.4760   14.9630   11.2880 C.3   121  SER121      0.1889
    133  C         -6.0940   13.5740   11.4460 C.2   121  SER121      0.2288
    134  O         -6.8830   13.1460   10.6070 O.2   121  SER121     -0.2866
    135  CB        -5.9760   15.8700   12.4100 C.3   121  SER121      0.2089
    136  OG        -7.3910   15.9530   12.3800 O.3   121  SER121     -0.2183
    137  N         -8.4000   12.6040   13.5910 N.3   123  LEU123     -0.1231
    138  CA        -9.8430   12.6910   13.8230 C.3   123  LEU123      0.1693
    139  C        -10.5710   13.3600   12.6590 C.2   123  LEU123      0.2592
    140  O        -11.7690   13.1560   12.4580 O.2   123  LEU123     -0.2718
    141  CB       -10.1300   13.4270   15.1390 C.3   123  LEU123      0.0284
    142  CG        -9.6150   12.7700   16.4280 C.3   123  LEU123      0.0019
    143  CD1       -9.4720   13.7790   17.5600 C.3   123  LEU123      0.0001
    144  CD2      -10.5060   11.6040   16.8570 C.3   123  LEU123      0.0001
    145  N         -9.8420   14.1520   11.8800 N.am  124  GLY124     -0.1957
    146  CA       -10.4450   14.8470   10.7620 C.3   124  GLY124      0.1869
    147  C        -10.5270   13.9860    9.5220 C.2   124  GLY124      0.2309
    148  O        -11.4380   14.1350    8.7110 O.2   124  GLY124     -0.2863
    149  N        -11.4820   10.9670    8.6920 N.3   126  PRO126     -0.2102
    150  CA       -12.7500   10.2940    8.3760 C.3   126  PRO126      0.1504
    151  C        -13.7940   11.2320    7.7770 C.2   126  PRO126      0.2576
    152  O        -14.4670   10.8600    6.8180 O.2   126  PRO126     -0.2718
    153  CB       -13.2230    9.7820    9.7380 C.3   126  PRO126      0.0282
    154  CG       -11.9810    9.6300   10.5330 C.3   126  PRO126      0.0208
    155  CD       -11.0680   10.7320   10.0860 C.3   126  PRO126      0.0893
    156  N        -13.9210   12.4310    8.3390 N.am  127  VAL127     -0.1966
    157  CA       -14.8820   13.4120    7.8460 C.3   127  VAL127      0.1727
    158  C        -14.5700   13.8450    6.4120 C.2   127  VAL127      0.2616
    159  O        -15.4640   13.9550    5.5640 O.2   127  VAL127     -0.2715
    160  CB       -14.9020   14.6660    8.7400 C.3   127  VAL127      0.0290
    161  CG1      -15.8980   15.6850    8.2060 C.3   127  VAL127      0.0023
    162  CG2      -15.2180   14.2930   10.1840 C.3   127  VAL127      0.0023
    163  N        -13.2960   14.0970    6.1420 N.am  128  TYR128     -0.1974
    164  CA       -12.9150   14.6370    4.8540 C.3   128  TYR128      0.1639
    165  C        -13.0750   13.5780    3.7630 C.2   128  TYR128      0.2290
    166  O        -13.5210   13.8770    2.6600 O.2   128  TYR128     -0.2864
    167  CB       -11.4900   15.1980    4.9130 C.3   128  TYR128      0.0560
    168  CG       -11.2650   16.1200    6.1020 C.ar  128  TYR128     -0.0198
    169  CD1      -12.1920   17.1050    6.4270 C.ar  128  TYR128     -0.0009
    170  CD2      -10.1310   16.0030    6.8980 C.ar  128  TYR128     -0.0009
    171  CE1      -11.9970   17.9450    7.5060 C.ar  128  TYR128      0.0417
    172  CE2       -9.9300   16.8440    7.9810 C.ar  128  TYR128      0.0417
    173  CZ       -10.8660   17.8150    8.2760 C.ar  128  TYR128      0.1957
    174  OH       -10.6760   18.6570    9.3530 O.3   128  TYR128     -0.2866
    175  N        -15.2570   10.9700    3.6600 N.3   130  LYS130     -0.1245
    176  CA       -16.6860   10.8730    3.3760 C.3   130  LYS130      0.1561
    177  C        -17.1850   12.0460    2.5340 C.2   130  LYS130      0.2260
    178  O        -18.0470   11.8880    1.6640 O.2   130  LYS130     -0.2867
    179  CB       -17.4740   10.7940    4.6790 C.3   130  LYS130      0.0271
    180  CG       -18.9720   10.7200    4.4850 C.3   130  LYS130      0.0035
    181  CD       -19.6830   10.5890    5.8180 C.3   130  LYS130      0.0206
    182  CE       -21.1790   10.4080    5.6300 C.3   130  LYS130      0.1093
    183  NZ       -21.8540   10.1010    6.9160 N.3   130  LYS130     -0.1314
@<TRIPOS>BOND
     1   178   177    2
     2   116   117    1
     3   177   176    1
     4   166   165    2
     5   119   118    2
     6   176   175    1
     7   176   179    1
     8    34    32    1
     9   117   118    1
    10   117   120    1
    11   165   164    1
    12    27    28    1
    13    32    31    1
    14   118   124   am
    15   121   120    1
    16   121   123    1
    17   121   122    1
    18   180   179    1
    19   180   181    1
    20    31    28    1
    21    31    33    1
    22   164   167    1
    23   164   163    1
    24   167   168    1
    25    28    29    1
    26   124   125    1
    27   130   128    1
    28   159   158    2
    29   182   181    1
    30   182   183    1
    31   125   128    1
    32   125   126    1
    33    30    29    2
    34   168   169   ar
    35   168   170   ar
    36   163   158   am
    37    29    35   am
    38   128   129    1
    39   158   157    1
    40   169   171   ar
    41   126   127    2
    42   152   151    2
    43   170   172   ar
    44   112   111    2
    45    35    36    1
    46   115   113    1
    47   171   173   ar
    48   151   156   am
    49   151   150    1
    50   157   156    1
    51   157   160    1
    52   172   173   ar
    53    41    39    1
    54   111   110    1
    55    39    36    1
    56    39    40    1
    57   161   160    1
    58   173   174    1
    59   150   149    1
    60   150   153    1
    61    36    37    1
    62   110   113    1
    63   110   109    1
    64   149   155    1
    65   148   147    2
    66   113   114    1
    67   160   162    1
    68   107   106    2
    69   147   146    1
    70    38    37    2
    71    37    42   am
    72   153   154    1
    73   109   106   am
    74   131   132    1
    75   155   154    1
    76   106   105    1
    77   134   133    2
    78   146   145    1
    79    42    43    1
    80   132   133    1
    81   132   135    1
    82    95    94    2
    83   105   108    1
    84   105   104    1
    85    99    98    2
    86    49    47   am
    87   145   139   am
    88    47    48    2
    89    47    46    1
    90    46    43    1
    91    43    44    1
    92   136   135    1
    93    44    45    2
    94   140   139    2
    95    98   104   am
    96    98    97    1
    97    94    93    1
    98    94    96   am
    99    93    92    1
   100   139   138    1
   101    97    96    1
   102    97   100    1
   103   137   138    1
   104    25    24   ar
   105   138   141    1
   106     9     7   am
   107    92    86   am
   108    26    24   ar
   109    24    23    1
   110    87    86    2
   111    50    51    1
   112    86    85    1
   113   102   100    1
   114     8     7    2
   115   100   101    1
   116     7     6    1
   117   141   142    1
   118    23    22    1
   119   101   103    1
   120    67    66    1
   121    51    52    1
   122    51    54    1
   123    85    84    1
   124    85    88    1
   125     6     5    1
   126    53    52    2
   127    22    19    1
   128    84    82   am
   129   142   144    1
   130   142   143    1
   131    52    62   am
   132    83    82    2
   133    82    81    1
   134    81    80    1
   135    54    55    1
   136    80    71   am
   137    21    20    2
   138    62    63    1
   139    66    63    1
   140    66    68    1
   141    88    89    1
   142     5     2    1
   143    19    20    1
   144    19    18    1
   145    63    64    1
   146     4     3    2
   147     3     2    1
   148    71    70    1
   149    71    72    2
   150    55    56   ar
   151    55    57   ar
   152    18    12   am
   153    89    90    2
   154    89    91   am
   155     2     1    1
   156    70    73    1
   157    70    69    1
   158    74    73    1
   159    74    75    1
   160    56    58   ar
   161    57    59   ar
   162    64    65    2
   163    75    76    1
   164    13    12    2
   165    12    11    1
   166    76    77    2
   167    77    79    1
   168    77    78    1
   169    58    60   ar
   170    14    11    1
   171    14    15    1
   172    59    60   ar
   173    11    10    1
   174    60    61    1
   175    15    17   ar
   176    15    16   ar
