@<TRIPOS>MOLECULE
tmp/3mh5B00.pdb
 99 92 0 0 0
SMALL
GASTEIGER

@<TRIPOS>ATOM
      1  N         10.3610   -2.7020   32.0720 N.3   120  ALA120     -0.1231
      2  CA        11.2500   -2.8900   30.9310 C.3   120  ALA120      0.1694
      3  C         12.0710   -1.6370   30.7300 C.2   120  ALA120      0.2592
      4  O         11.5290   -0.5320   30.7390 O.2   120  ALA120     -0.2718
      5  CB        10.4340   -3.1950   29.6690 C.3   120  ALA120      0.0304
      6  N         13.3750   -1.8170   30.5520 N.am  121  ILE121     -0.1966
      7  CA        14.2960   -0.7000   30.3540 C.3   121  ILE121      0.1727
      8  C         14.9740   -0.8540   28.9960 C.2   121  ILE121      0.2616
      9  O         15.4530   -1.9400   28.6720 O.2   121  ILE121     -0.2715
     10  CB        15.3740   -0.6850   31.4710 C.3   121  ILE121      0.0290
     11  CG1       14.6730   -0.5940   32.8390 C.3   121  ILE121      0.0022
     12  CG2       16.3810    0.4670   31.2370 C.3   121  ILE121      0.0023
     13  CD1       15.5550   -0.8980   34.0350 C.3   121  ILE121      0.0001
     14  N         15.0200    0.2220   28.2060 N.am  122  GLY122     -0.1955
     15  CA        15.6410    0.1270   26.8950 C.3   122  GLY122      0.1869
     16  C         16.1370    1.4180   26.2700 C.2   122  GLY122      0.2309
     17  O         16.0630    2.4780   26.8770 O.2   122  GLY122     -0.2863
     18  N         15.2070    2.6910   22.8520 N.3   124  PRO124     -0.2102
     19  CA        14.4260    2.7310   21.6100 C.3   124  PRO124      0.1504
     20  C         14.7390    3.7910   20.5510 C.2   124  PRO124      0.2575
     21  O         14.3700    3.6150   19.3900 O.2   124  PRO124     -0.2718
     22  CB        12.9930    2.8480   22.1220 C.3   124  PRO124      0.0282
     23  CG        13.1670    3.7300   23.3170 C.3   124  PRO124      0.0208
     24  CD        14.3790    3.1170   23.9990 C.3   124  PRO124      0.0893
     25  N         15.4000    4.8830   20.9270 N.am  125  PHE125     -0.1977
     26  CA        15.6910    5.9410   19.9610 C.3   125  PHE125      0.1639
     27  C         17.1240    6.4450   20.0130 C.2   125  PHE125      0.2290
     28  O         17.5140    7.2930   19.2120 O.2   125  PHE125     -0.2864
     29  CB        14.7530    7.1340   20.1780 C.3   125  PHE125      0.0560
     30  CG        13.3100    6.7550   20.3730 C.ar  125  PHE125     -0.0200
     31  CD1       12.6240    7.1570   21.5210 C.ar  125  PHE125     -0.0042
     32  CD2       12.6340    5.9910   19.4200 C.ar  125  PHE125     -0.0042
     33  CE1       11.2850    6.8110   21.7180 C.ar  125  PHE125     -0.0003
     34  CE2       11.2940    5.6390   19.6040 C.ar  125  PHE125     -0.0003
     35  CZ        10.6180    6.0490   20.7610 C.ar  125  PHE125     -0.0000
     36  N         14.6510    4.3510   28.2920 N.3   130  THR130     -0.1218
     37  CA        13.2020    4.4970   28.3610 C.3   130  THR130      0.1862
     38  C         12.6560    3.3770   29.2500 C.2   130  THR130      0.2287
     39  O         12.9820    2.2020   29.0670 O.2   130  THR130     -0.2866
     40  CB        12.5570    4.4220   26.9590 C.3   130  THR130      0.1770
     41  OG1       12.9860    5.5460   26.1980 O.3   130  THR130     -0.2211
     42  CG2       11.0340    4.4610   27.0440 C.3   130  THR130      0.0375
     43  N          9.3190    1.3450   30.9190 N.3   132  THR132     -0.1218
     44  CA         7.8860    1.0650   30.7820 C.3   132  THR132      0.1862
     45  C          7.5180    0.0020   31.8140 C.2   132  THR132      0.2287
     46  O          8.3700   -0.7890   32.2380 O.2   132  THR132     -0.2866
     47  CB         7.5090    0.5530   29.3450 C.3   132  THR132      0.1770
     48  OG1        8.3280   -0.5610   28.9850 O.3   132  THR132     -0.2211
     49  CG2        7.7210    1.6400   28.3140 C.3   132  THR132      0.0375
     50  N          6.1270   -4.0360   27.4580 N.3   149  ALA149     -0.1231
     51  CA         6.8700   -3.6680   26.2600 C.3   149  ALA149      0.1694
     52  C          6.1460   -4.1890   25.0160 C.2   149  ALA149      0.2591
     53  O          5.3620   -5.1420   25.0900 O.2   149  ALA149     -0.2718
     54  CB         8.2620   -4.2450   26.3280 C.3   149  ALA149      0.0304
     55  N          6.4020   -3.5540   23.8740 N.am  150  ILE150     -0.1980
     56  CA         5.7880   -3.9640   22.6120 C.3   150  ILE150      0.1595
     57  C          6.8350   -4.6510   21.7410 C.2   150  ILE150      0.2287
     58  O          8.0360   -4.4530   21.9270 O.2   150  ILE150     -0.2864
     59  CB         5.2040   -2.7530   21.8500 C.3   150  ILE150      0.0276
     60  CG1        6.3090   -1.7270   21.5920 C.3   150  ILE150      0.0022
     61  CG2        4.0470   -2.1330   22.6480 C.3   150  ILE150      0.0022
     62  CD1        5.8160   -0.3820   21.0840 C.3   150  ILE150      0.0001
     63  N          9.1430   -4.8070   19.1480 N.3   152  ARG152     -0.1245
     64  CA         9.8640   -3.9030   18.2600 C.3   152  ARG152      0.1563
     65  C         11.3390   -4.2770   18.2240 C.2   152  ARG152      0.2260
     66  O         11.7840   -5.1670   18.9470 O.2   152  ARG152     -0.2867
     67  CB         9.7280   -2.4490   18.7360 C.3   152  ARG152      0.0307
     68  CG         8.3560   -1.8240   18.5260 C.3   152  ARG152      0.0489
     69  CD         7.9790   -1.7910   17.0490 C.3   152  ARG152      0.2205
     70  NE         6.7280   -1.0720   16.8110 N.pl3 152  ARG152     -0.0865
     71  CZ         6.5840    0.2450   16.9280 C.cat 152  ARG152      0.5346
     72  NH1        7.6180    1.0010   17.2810 N.pl3 152  ARG152      0.1354
     73  NH2        5.4030    0.8070   16.6970 N.pl3 152  ARG152      0.1354
     74  N         13.5870   -1.8000   18.5200 N.3   154  ASN154     -0.1225
     75  CA        14.1510   -0.8260   19.4390 C.3   154  ASN154      0.1785
     76  C         13.5230   -0.9680   20.8270 C.2   154  ASN154      0.2597
     77  O         13.2040    0.0160   21.4970 O.2   154  ASN154     -0.2718
     78  CB        13.9620    0.5890   18.8800 C.3   154  ASN154      0.1169
     79  CG        12.5120    0.9830   18.7730 C.2   154  ASN154      0.2627
     80  OD1       11.6210    0.1290   18.7380 O.2   154  ASN154     -0.2716
     81  ND2       12.2630    2.2890   18.7100 N.am  154  ASN154     -0.0877
     82  N         13.3460   -2.2190   21.2380 N.am  155  SER155     -0.1952
     83  CA        12.7970   -2.5590   22.5430 C.3   155  SER155      0.1924
     84  C         13.2940   -3.9380   22.8990 C.2   155  SER155      0.2314
     85  O         12.5830   -4.9310   22.7430 O.2   155  SER155     -0.2863
     86  CB        11.2740   -2.5580   22.5280 C.3   155  SER155      0.2116
     87  OG        10.8050   -1.2350   22.6790 O.3   155  SER155     -0.2180
     88  N         15.6720   -4.0710   25.7880 N.3   157  GLY157     -0.1225
     89  CA        16.4440   -3.8810   26.9970 C.3   157  GLY157      0.1811
     90  C         16.2500   -4.9900   28.0230 C.2   157  GLY157      0.2280
     91  O         16.0280   -6.1590   27.6890 O.2   157  GLY157     -0.2866
     92  N         14.3480   -8.6850   27.1990 N.3   170  ASN170     -0.1240
     93  CA        13.3300   -8.4850   26.1700 C.3   170  ASN170      0.1653
     94  C         13.8700   -8.6600   24.7430 C.2   170  ASN170      0.2266
     95  O         14.9910   -8.2550   24.4290 O.2   170  ASN170     -0.2867
     96  CB        12.7020   -7.1050   26.3480 C.3   170  ASN170      0.1155
     97  CG        11.8440   -7.0160   27.6060 C.2   170  ASN170      0.2627
     98  OD1       11.9210   -6.0440   28.3490 O.2   170  ASN170     -0.2716
     99  ND2       11.0140   -8.0310   27.8400 N.am  170  ASN170     -0.0877
@<TRIPOS>BOND
     1    73    71    1
     2    70    71    2
     3    70    69    1
     4    71    72    1
     5    69    68    1
     6    65    64    1
     7    65    66    2
     8    64    67    1
     9    64    63    1
    10    74    75    1
    11    68    67    1
    12    81    79   am
    13    80    79    2
    14    79    78    1
    15    78    75    1
    16    28    27    2
    17    21    20    2
    18    32    34   ar
    19    32    30   ar
    20    75    76    1
    21    34    35   ar
    22    26    27    1
    23    26    29    1
    24    26    25    1
    25    29    30    1
    26    30    31   ar
    27    20    25   am
    28    20    19    1
    29    35    33   ar
    30    76    82   am
    31    76    77    2
    32    62    60    1
    33    82    83    1
    34    31    33   ar
    35    60    59    1
    36    19    22    1
    37    19    18    1
    38    57    58    2
    39    57    56    1
    40    59    56    1
    41    59    61    1
    42    22    23    1
    43    86    83    1
    44    86    87    1
    45    83    84    1
    46    56    55    1
    47    85    84    2
    48    18    24    1
    49    23    24    1
    50    55    52   am
    51    95    94    2
    52    94    93    1
    53    52    53    2
    54    52    51    1
    55    88    89    1
    56    93    96    1
    57    93    92    1
    58    41    40    1
    59    51    54    1
    60    51    50    1
    61    16    17    2
    62    16    15    1
    63    96    97    1
    64    15    14    1
    65    40    42    1
    66    40    37    1
    67    89    90    1
    68    97    99   am
    69    97    98    2
    70    91    90    2
    71    14     8   am
    72    36    37    1
    73    49    47    1
    74    37    38    1
    75     9     8    2
    76    48    47    1
    77     8     7    1
    78    39    38    2
    79    47    44    1
    80     5     2    1
    81     7     6    1
    82     7    10    1
    83     6     3   am
    84     3     4    2
    85     3     2    1
    86    44    43    1
    87    44    45    1
    88     2     1    1
    89    12    10    1
    90    10    11    1
    91    45    46    2
    92    11    13    1
