@<TRIPOS>MOLECULE
tmp/3mh6A00.pdb
 103 100 0 0 0
SMALL
GASTEIGER

@<TRIPOS>ATOM
      1  N         46.5820   44.4290   17.0930 N.3    30  ALA30      -0.1231
      2  CA        46.7900   44.1430   18.5090 C.3    30  ALA30       0.1694
      3  C         47.3370   45.3530   19.2510 C.2    30  ALA30       0.2591
      4  O         47.4340   46.4470   18.6930 O.2    30  ALA30      -0.2718
      5  CB        47.7240   42.9570   18.6790 C.3    30  ALA30       0.0304
      6  N         47.7000   45.1520   20.5120 N.am   31  LEU31      -0.1980
      7  CA        48.3250   46.2170   21.2820 C.3    31  LEU31       0.1596
      8  C         49.0260   45.7060   22.5360 C.2    31  LEU31       0.2287
      9  O         48.6540   44.6740   23.0970 O.2    31  LEU31      -0.2864
     10  CB        47.3050   47.2920   21.6550 C.3    31  LEU31       0.0297
     11  CG        46.5680   47.1370   22.9820 C.3    31  LEU31       0.0022
     12  CD1       45.7760   48.3870   23.2210 C.3    31  LEU31       0.0001
     13  CD2       45.6640   45.9170   22.9880 C.3    31  LEU31       0.0001
     14  N         55.7980   38.2470   22.1510 N.3    49  HIS49      -0.1226
     15  CA        54.4680   37.7460   21.8360 C.3    49  HIS49       0.1752
     16  C         53.4910   38.8610   21.4850 C.2    49  HIS49       0.2595
     17  O         52.3770   38.5990   21.0350 O.2    49  HIS49      -0.2718
     18  CB        53.9220   36.8760   22.9830 C.3    49  HIS49       0.0759
     19  CG        53.3560   37.6550   24.1370 C.ar   49  HIS49       0.0818
     20  ND1       53.8710   37.5670   25.4240 N.ar   49  HIS49      -0.2268
     21  CD2       52.3210   38.5110   24.2140 C.ar   49  HIS49       0.1154
     22  CE1       53.1750   38.3430   26.2230 C.ar   49  HIS49       0.1986
     23  NE2       52.2240   38.9360   25.5240 N.ar   49  HIS49      -0.2212
     24  N         53.9180   40.1010   21.6920 N.am   50  VAL50      -0.1980
     25  CA        53.0760   41.2540   21.4070 C.3    50  VAL50       0.1595
     26  C         53.3570   41.7850   20.0110 C.2    50  VAL50       0.2287
     27  O         52.5090   42.4260   19.3930 O.2    50  VAL50      -0.2864
     28  CB        53.3170   42.3940   22.4110 C.3    50  VAL50       0.0276
     29  CG1       52.1580   43.3760   22.3630 C.3    50  VAL50       0.0022
     30  CG2       53.4810   41.8420   23.8100 C.3    50  VAL50       0.0022
     31  N         47.4040   43.5570   36.4320 N.3   149  ILE149     -0.1231
     32  CA        47.9130   43.4280   35.0710 C.3   149  ILE149      0.1692
     33  C         46.9100   42.7600   34.1380 C.2   149  ILE149      0.2592
     34  O         46.1600   41.8870   34.5680 O.2   149  ILE149     -0.2718
     35  CB        49.1800   42.5820   35.0600 C.3   149  ILE149      0.0266
     36  CG1       50.2190   43.1900   35.9910 C.3   149  ILE149      0.0019
     37  CG2       49.7330   42.4710   33.6530 C.3   149  ILE149      0.0020
     38  CD1       51.5920   42.6620   35.7470 C.3   149  ILE149      0.0001
     39  N         46.9000   43.1580   32.8640 N.am  150  ASN150     -0.1960
     40  CA        46.0100   42.5460   31.8680 C.3   150  ASN150      0.1819
     41  C         46.4980   42.7040   30.4290 C.2   150  ASN150      0.2621
     42  O         47.5490   43.3030   30.1800 O.2   150  ASN150     -0.2715
     43  CB        44.5930   43.1100   31.9780 C.3   150  ASN150      0.1195
     44  CG        44.0720   43.1100   33.3950 C.2   150  ASN150      0.2630
     45  OD1       43.4340   42.1560   33.8330 O.2   150  ASN150     -0.2716
     46  ND2       44.3490   44.1820   34.1270 N.am  150  ASN150     -0.0877
     47  N         45.7290   42.1620   29.4850 N.am  151  ARG151     -0.1963
     48  CA        46.0250   42.3440   28.0700 C.3   151  ARG151      0.1729
     49  C         46.2480   43.8160   27.8000 C.2   151  ARG151      0.2617
     50  O         45.3470   44.6260   27.9760 O.2   151  ARG151     -0.2715
     51  CB        44.8870   41.8230   27.1930 C.3   151  ARG151      0.0348
     52  CG        44.8940   40.3220   26.9800 C.3   151  ARG151      0.0492
     53  CD        43.6680   39.6850   27.6090 C.3   151  ARG151      0.2205
     54  NE        43.4340   38.3160   27.1440 N.pl3 151  ARG151     -0.0865
     55  CZ        43.4850   37.2320   27.9160 C.cat 151  ARG151      0.5346
     56  NH1       43.7650   37.3440   29.2080 N.pl3 151  ARG151      0.1354
     57  NH2       43.2520   36.0310   27.3960 N.pl3 151  ARG151      0.1354
     58  N         47.4550   44.1550   27.3730 N.am  152  GLY152     -0.1940
     59  CA        47.8300   45.5380   27.1830 C.3   152  GLY152      0.2014
     60  C         49.0880   45.8230   27.9640 C.2   152  GLY152      0.2639
     61  O         50.0290   46.4040   27.4480 O.2   152  GLY152     -0.2714
     62  N         49.1090   45.3930   29.2160 N.am  153  ASN153     -0.1958
     63  CA        50.2810   45.5720   30.0540 C.3   153  ASN153      0.1819
     64  C         51.5050   44.8370   29.5150 C.2   153  ASN153      0.2622
     65  O         52.6130   45.0110   30.0200 O.2   153  ASN153     -0.2715
     66  CB        49.9870   45.0970   31.4770 C.3   153  ASN153      0.1195
     67  CG        49.1460   46.0830   32.2650 C.2   153  ASN153      0.2630
     68  OD1       49.6710   46.8700   33.0540 O.2   153  ASN153     -0.2716
     69  ND2       47.8340   46.0360   32.0660 N.am  153  ASN153     -0.0877
     70  N         51.2950   44.0130   28.4940 N.am  154  SER154     -0.1950
     71  CA        52.3480   43.1570   27.9600 C.3   154  SER154      0.1924
     72  C         53.4760   43.9770   27.3590 C.2   154  SER154      0.2314
     73  O         53.2850   44.6820   26.3740 O.2   154  SER154     -0.2863
     74  CB        51.7830   42.1850   26.9170 C.3   154  SER154      0.2116
     75  OG        51.2390   41.0190   27.5200 O.3   154  SER154     -0.2180
     76  N         56.3140   43.2500   32.6870 N.3   169  ASN169     -0.1225
     77  CA        55.0360   42.5620   32.6510 C.3   169  ASN169      0.1785
     78  C         54.9640   41.6910   31.4120 C.2   169  ASN169      0.2598
     79  O         54.9130   42.2010   30.2920 O.2   169  ASN169     -0.2718
     80  CB        53.8930   43.5720   32.6190 C.3   169  ASN169      0.1169
     81  CG        54.1100   44.7230   33.5720 C.2   169  ASN169      0.2627
     82  OD1       53.6050   45.8280   33.3520 O.2   169  ASN169     -0.2716
     83  ND2       54.8740   44.4760   34.6370 N.am  169  ASN169     -0.0877
     84  N         54.9690   40.3780   31.6110 N.am  170  THR170     -0.1939
     85  CA        54.8940   39.4460   30.4970 C.3   170  THR170      0.2028
     86  C         53.5030   38.8550   30.3880 C.2   170  THR170      0.2642
     87  O         52.7360   39.1930   29.4830 O.2   170  THR170     -0.2714
     88  CB        55.8860   38.2920   30.6590 C.3   170  THR170      0.1808
     89  OG1       57.2250   38.8010   30.6280 O.3   170  THR170     -0.2208
     90  CG2       55.7010   37.2820   29.5380 C.3   170  THR170      0.0379
     91  N         53.1850   37.9640   31.3180 N.am  171  ALA171     -0.1963
     92  CA        51.8890   37.3110   31.3320 C.3   171  ALA171      0.1728
     93  C         51.3540   37.2470   32.7480 C.2   171  ALA171      0.2616
     94  O         52.1020   37.4290   33.7070 O.2   171  ALA171     -0.2715
     95  CB        51.9960   35.9180   30.7530 C.3   171  ALA171      0.0334
     96  N         50.0550   36.9970   32.8720 N.am  172  ILE172     -0.1977
     97  CA        49.4470   36.7590   34.1730 C.3   172  ILE172      0.1596
     98  C         48.7860   35.4000   34.1580 C.2   172  ILE172      0.2287
     99  O         48.5720   34.8200   33.0940 O.2   172  ILE172     -0.2864
    100  CB        48.3460   37.7810   34.5020 C.3   172  ILE172      0.0276
    101  CG1       47.0710   37.4510   33.7240 C.3   172  ILE172      0.0022
    102  CG2       48.8190   39.2010   34.2290 C.3   172  ILE172      0.0022
    103  CD1       45.8370   38.1490   34.2560 C.3   172  ILE172      0.0001
@<TRIPOS>BOND
     1     1     2    1
     2     2     5    1
     3     2     3    1
     4     4     3    2
     5     3     6   am
     6    27    26    2
     7    26    25    1
     8     6     7    1
     9    17    16    2
    10     7    10    1
    11     7     8    1
    12    25    24    1
    13    25    28    1
    14    16    24   am
    15    16    15    1
    16    10    11    1
    17    15    14    1
    18    15    18    1
    19    29    28    1
    20    28    30    1
    21     8     9    2
    22    11    13    1
    23    11    12    1
    24    18    19    1
    25    19    21   ar
    26    19    20   ar
    27    21    23   ar
    28    20    22   ar
    29    23    22   ar
    30    73    72    2
    31    74    75    1
    32    74    71    1
    33    52    51    1
    34    52    53    1
    35    54    53    1
    36    54    55    2
    37    59    58    1
    38    59    60    1
    39    51    48    1
    40    72    71    1
    41    58    49   am
    42    57    55    1
    43    61    60    2
    44    49    50    2
    45    49    48    1
    46    55    56    1
    47    71    70    1
    48    60    62   am
    49    48    47    1
    50    70    64   am
    51    62    63    1
    52    87    86    2
    53    47    41   am
    54    64    65    2
    55    64    63    1
    56    90    88    1
    57    63    66    1
    58    42    41    2
    59    79    78    2
    60    86    85    1
    61    86    91   am
    62    41    40    1
    63    85    88    1
    64    85    84    1
    65    89    88    1
    66    95    92    1
    67    91    92    1
    68    92    93    1
    69    78    84   am
    70    78    77    1
    71    66    67    1
    72    40    43    1
    73    40    39    1
    74    43    44    1
    75    69    67   am
    76    67    68    2
    77    80    77    1
    78    80    81    1
    79    77    76    1
    80    93    96   am
    81    93    94    2
    82    39    33   am
    83    96    97    1
    84    99    98    2
    85    82    81    2
    86    44    45    2
    87    44    46   am
    88    81    83   am
    89    37    35    1
    90   101   103    1
    91   101   100    1
    92    33    34    2
    93    33    32    1
    94    98    97    1
    95    97   100    1
    96   102   100    1
    97    35    32    1
    98    35    36    1
    99    32    31    1
   100    38    36    1
