@<TRIPOS>MOLECULE
tmp/3mh7A00.pdb
 121 115 0 0 0
SMALL
GASTEIGER

@<TRIPOS>ATOM
      1  N         46.1730   43.6190   19.2940 N.3    27  LEU27      -0.1245
      2  CA        46.7480   44.7300   20.0350 C.3    27  LEU27       0.1561
      3  C         47.3590   44.3080   21.3640 C.2    27  LEU27       0.2260
      4  O         46.8990   43.3760   22.0020 O.2    27  LEU27      -0.2867
      5  CB        45.7200   45.8380   20.2300 C.3    27  LEU27       0.0270
      6  CG        44.3980   45.4670   20.8870 C.3    27  LEU27       0.0019
      7  CD1       44.5360   45.3880   22.4160 C.3    27  LEU27       0.0001
      8  CD2       43.3580   46.5020   20.4970 C.3    27  LEU27       0.0001
      9  N         54.3870   36.8520   20.7150 N.3    45  HIS45      -0.1226
     10  CA        53.0570   36.4110   20.3220 C.3    45  HIS45       0.1752
     11  C         52.1230   37.5350   19.8950 C.2    45  HIS45       0.2595
     12  O         51.0380   37.2650   19.4400 O.2    45  HIS45      -0.2718
     13  CB        52.4000   35.5440   21.4050 C.3    45  HIS45       0.0759
     14  CG        51.8520   36.3140   22.5700 C.ar   45  HIS45       0.0818
     15  ND1       52.4460   36.3240   23.8070 N.ar   45  HIS45      -0.2268
     16  CD2       50.7440   37.1020   22.6750 C.ar   45  HIS45       0.1154
     17  CE1       51.7450   37.0820   24.6330 C.ar   45  HIS45       0.1986
     18  NE2       50.7060   37.5630   23.9670 N.ar   45  HIS45      -0.2212
     19  N         52.5400   38.7860   20.0340 N.am   46  VAL46      -0.1980
     20  CA        51.6560   39.9290   19.7720 C.3    46  VAL46       0.1595
     21  C         51.8600   40.4450   18.3750 C.2    46  VAL46       0.2287
     22  O         50.9460   40.9370   17.7200 O.2    46  VAL46      -0.2864
     23  CB        52.0160   41.1350   20.6420 C.3    46  VAL46       0.0276
     24  CG1       51.2240   42.3360   20.1920 C.3    46  VAL46       0.0022
     25  CG2       51.8000   40.8440   22.1160 C.3    46  VAL46       0.0022
     26  N         59.3910   34.0520   23.7950 N.3    74  ASP74      -0.1239
     27  CA        58.2690   34.9530   23.5570 C.3    74  ASP74       0.1674
     28  C         58.6370   36.4240   23.7300 C.2    74  ASP74       0.2266
     29  O         57.8460   37.2230   24.2200 O.2    74  ASP74      -0.2867
     30  CB        57.0690   34.6060   24.4310 C.3    74  ASP74       0.1410
     31  CG        55.7690   35.2030   23.8960 C.2    74  ASP74       0.3668
     32  OD1       55.8040   35.8750   22.8360 O.co2  74  ASP74      -0.2456
     33  OD2       54.7070   35.0030   24.5300 O.co2  74  ASP74      -0.2456
     34  N         54.0920   26.7710   32.0840 N.3   128  LEU128     -0.1245
     35  CA        53.0240   27.2770   31.2120 C.3   128  LEU128      0.1561
     36  C         53.0340   26.6090   29.8410 C.2   128  LEU128      0.2260
     37  O         52.0430   25.9930   29.4300 O.2   128  LEU128     -0.2867
     38  CB        53.1250   28.7950   31.0300 C.3   128  LEU128      0.0270
     39  CG        52.6700   29.7600   32.1340 C.3   128  LEU128      0.0019
     40  CD1       52.3540   31.1130   31.4890 C.3   128  LEU128      0.0001
     41  CD2       51.4600   29.2700   32.9610 C.3   128  LEU128      0.0001
     42  N         46.2090   42.1180   35.1890 N.3   143  ILE143     -0.1231
     43  CA        46.6970   42.0370   33.8320 C.3   143  ILE143      0.1692
     44  C         45.6040   41.3480   33.0380 C.2   143  ILE143      0.2592
     45  O         45.1510   40.2610   33.4300 O.2   143  ILE143     -0.2718
     46  CB        47.9100   41.1240   33.7650 C.3   143  ILE143      0.0266
     47  CG1       49.0800   41.7060   34.5030 C.3   143  ILE143      0.0019
     48  CG2       48.3890   40.8960   32.3380 C.3   143  ILE143      0.0020
     49  CD1       50.2140   40.7060   34.4350 C.3   143  ILE143      0.0001
     50  N         45.1950   41.9780   31.9330 N.am  144  ASN144     -0.1960
     51  CA        44.2580   41.3830   30.9870 C.3   144  ASN144      0.1819
     52  C         44.7450   41.4650   29.5420 C.2   144  ASN144      0.2621
     53  O         45.8580   41.9400   29.2880 O.2   144  ASN144     -0.2715
     54  CB        42.8800   42.0060   31.1300 C.3   144  ASN144      0.1195
     55  CG        42.2710   41.7430   32.4910 C.2   144  ASN144      0.2630
     56  OD1       41.6850   40.6840   32.7220 O.2   144  ASN144     -0.2716
     57  ND2       42.4030   42.7090   33.4020 N.am  144  ASN144     -0.0877
     58  N         43.9160   40.9810   28.6100 N.am  145  ARG145     -0.1963
     59  CA        44.2550   40.9460   27.1830 C.3   145  ARG145      0.1729
     60  C         44.5160   42.3600   26.7280 C.2   145  ARG145      0.2616
     61  O         43.6590   43.2210   26.8820 O.2   145  ARG145     -0.2715
     62  CB        43.1130   40.3590   26.3410 C.3   145  ARG145      0.0348
     63  CG        43.1180   38.8190   26.1440 C.3   145  ARG145      0.0492
     64  CD        41.6720   38.2660   26.1930 C.3   145  ARG145      0.2205
     65  NE        41.4980   36.8590   25.7890 N.pl3 145  ARG145     -0.0865
     66  CZ        41.9960   35.7830   26.4160 C.cat 145  ARG145      0.5346
     67  NH1       42.7700   35.8960   27.4970 N.pl3 145  ARG145      0.1354
     68  NH2       41.7330   34.5680   25.9350 N.pl3 145  ARG145      0.1354
     69  N         45.7060   42.5960   26.1830 N.am  146  GLY146     -0.1955
     70  CA        46.0950   43.9140   25.7270 C.3   146  GLY146      0.1869
     71  C         47.2480   44.4040   26.5730 C.2   146  GLY146      0.2309
     72  O         47.9090   45.3900   26.2530 O.2   146  GLY146     -0.2863
     73  N         49.8200   42.5460   27.1840 N.3   148  ALA148     -0.1245
     74  CA        50.9700   41.7640   26.7670 C.3   148  ALA148      0.1562
     75  C         52.0030   42.6660   26.1240 C.2   148  ALA148      0.2260
     76  O         51.6720   43.4940   25.2710 O.2   148  ALA148     -0.2867
     77  CB        50.5420   40.7170   25.8120 C.3   148  ALA148      0.0290
     78  N         53.2960   38.9960   30.2730 N.3   164  THR164     -0.1203
     79  CA        53.2220   38.0400   29.1900 C.3   164  THR164      0.1994
     80  C         51.9700   37.1920   29.1810 C.2   164  THR164      0.2618
     81  O         51.3380   37.0400   28.1380 O.2   164  THR164     -0.2717
     82  CB        54.4650   37.1490   29.1770 C.3   164  THR164      0.1784
     83  OG1       55.6180   37.9620   28.9020 O.3   164  THR164     -0.2211
     84  CG2       54.3480   36.0520   28.1270 C.3   164  THR164      0.0376
     85  N         51.6010   36.6330   30.3240 N.am  165  ALA165     -0.1965
     86  CA        50.4710   35.7060   30.3470 C.3   165  ALA165      0.1728
     87  C         49.7000   35.7530   31.6520 C.2   165  ALA165      0.2616
     88  O         50.1480   36.3430   32.6360 O.2   165  ALA165     -0.2715
     89  CB        50.9450   34.2820   30.0660 C.3   165  ALA165      0.0334
     90  N         48.5320   35.1290   31.6590 N.am  166  ILE166     -0.1963
     91  CA        47.7590   35.0310   32.8840 C.3   166  ILE166      0.1727
     92  C         47.0710   33.6960   33.0270 C.2   166  ILE166      0.2616
     93  O         46.5620   33.1460   32.0740 O.2   166  ILE166     -0.2715
     94  CB        46.6880   36.1240   32.9940 C.3   166  ILE166      0.0290
     95  CG1       45.8210   36.1690   31.7470 C.3   166  ILE166      0.0022
     96  CG2       47.3120   37.4770   33.2390 C.3   166  ILE166      0.0023
     97  CD1       44.4110   36.5620   32.0670 C.3   166  ILE166      0.0001
     98  N         47.0630   33.1700   34.2330 N.am  167  LEU167     -0.1963
     99  CA        46.1880   32.0610   34.5100 C.3   167  LEU167      0.1728
    100  C         44.7920   32.6370   34.6800 C.2   167  LEU167      0.2616
    101  O         44.5970   33.6550   35.3620 O.2   167  LEU167     -0.2715
    102  CB        46.6250   31.3080   35.7570 C.3   167  LEU167      0.0311
    103  CG        45.9630   29.9300   35.7770 C.3   167  LEU167      0.0022
    104  CD1       46.2680   29.2160   34.4630 C.3   167  LEU167      0.0001
    105  CD2       46.4150   29.1030   36.9630 C.3   167  LEU167      0.0001
    106  N         43.8220   31.9990   34.0440 N.am  168  ALA168     -0.1964
    107  CA        42.5000   32.5850   33.9340 C.3   168  ALA168      0.1713
    108  C         41.5860   31.7360   33.0730 C.2   168  ALA168      0.2458
    109  O         41.7160   31.7250   31.8490 O.2   168  ALA168     -0.2730
    110  CB        42.6060   33.9780   33.3380 C.3   168  ALA168      0.0333
    111  N         40.6690   31.0040   33.7150 N.am  169  PRO169     -0.2727
    112  CA        39.4890   30.5030   33.0030 C.3   169  PRO169      0.1402
    113  C         38.6250   31.6930   32.5960 C.2   169  PRO169      0.2269
    114  O         38.4490   32.6270   33.3890 O.2   169  PRO169     -0.2865
    115  CB        38.7570   29.6880   34.0710 C.3   169  PRO169      0.0296
    116  CG        39.2580   30.2330   35.3950 C.3   169  PRO169      0.0237
    117  CD        40.6890   30.5860   35.1260 C.3   169  PRO169      0.0939
    118  N         39.1650   33.9980   30.2460 N.3   171  GLY171     -0.1225
    119  CA        39.8930   35.1730   29.7840 C.3   171  GLY171      0.1811
    120  C         39.7620   36.4750   30.5710 C.2   171  GLY171      0.2280
    121  O         39.9880   37.5580   30.0210 O.2   171  GLY171     -0.2866
@<TRIPOS>BOND
     1    22    21    2
     2    21    20    1
     3     1     2    1
     4    12    11    2
     5    20    19    1
     6    20    23    1
     7    11    19   am
     8    11    10    1
     9     2     5    1
    10     2     3    1
    11    24    23    1
    12     5     6    1
    13    10     9    1
    14    10    13    1
    15     8     6    1
    16    23    25    1
    17     6     7    1
    18     3     4    2
    19    13    14    1
    20    14    16   ar
    21    14    15   ar
    22    16    18   ar
    23    32    31   ar
    24    27    28    1
    25    27    26    1
    26    27    30    1
    27    28    29    2
    28    15    17   ar
    29    31    30    1
    30    31    33   ar
    31    18    17   ar
    32    76    75    2
    33    70    69    1
    34    70    71    1
    35    65    64    1
    36    65    66    2
    37    77    74    1
    38    68    66    1
    39    75    74    1
    40    63    64    1
    41    63    62    1
    42    69    60   am
    43    72    71    2
    44    62    59    1
    45    66    67    1
    46    60    61    2
    47    60    59    1
    48    74    73    1
    49    59    58    1
    50    84    82    1
    51    81    80    2
    52    58    52   am
    53    83    82    1
    54    82    79    1
    55    80    79    1
    56    80    85   am
    57    79    78    1
    58    53    52    2
    59    37    36    2
    60    52    51    1
    61   119   118    1
    62   119   120    1
    63    36    35    1
    64   121   120    2
    65    89    86    1
    66    85    86    1
    67    86    87    1
    68    51    54    1
    69    51    50    1
    70    38    35    1
    71    38    39    1
    72    54    55    1
    73    35    34    1
    74    40    39    1
    75    87    90   am
    76    87    88    2
    77    90    91    1
    78    95    97    1
    79    95    94    1
    80   109   108    2
    81    50    44   am
    82    93    92    2
    83    39    41    1
    84    48    46    1
    85    55    56    2
    86    55    57   am
    87   113   112    1
    88   113   114    2
    89    91    94    1
    90    91    92    1
    91    94    96    1
    92   112   111    1
    93   112   115    1
    94    92    98   am
    95    44    45    2
    96    44    43    1
    97   108   111   am
    98   108   107    1
    99   110   107    1
   100   111   117    1
   101    46    43    1
   102    46    47    1
   103    43    42    1
   104   107   106    1
   105   106   100   am
   106   115   116    1
   107    98    99    1
   108    49    47    1
   109   104   103    1
   110    99   100    1
   111    99   102    1
   112   100   101    2
   113   117   116    1
   114   102   103    1
   115   103   105    1
