@<TRIPOS>MOLECULE
tmp/3mhcA00.pdb
 172 166 0 0 0
SMALL
GASTEIGER

@<TRIPOS>ATOM
      1  N         -8.9610    2.1270    2.0220 N.3    57  LEU57      -0.1245
      2  CA        -7.5480    2.2820    1.7120 C.3    57  LEU57       0.1561
      3  C         -6.7400    1.1300    2.2880 C.2    57  LEU57       0.2260
      4  O         -6.8910    0.7840    3.4590 O.2    57  LEU57      -0.2867
      5  CB        -7.0340    3.6060    2.3040 C.3    57  LEU57       0.0270
      6  CG        -5.5110    3.7840    2.3170 C.3    57  LEU57       0.0019
      7  CD1       -5.0100    4.1690    0.9390 C.3    57  LEU57       0.0001
      8  CD2       -5.0610    4.8220    3.3440 C.3    57  LEU57       0.0001
      9  N         -3.3090    0.4440    3.6060 N.3    59  ASN59      -0.1240
     10  CA        -2.2130    1.2990    4.0580 C.3    59  ASN59       0.1653
     11  C         -0.9420    0.5060    4.3130 C.2    59  ASN59       0.2266
     12  O          0.0330    1.0270    4.8480 O.2    59  ASN59      -0.2867
     13  CB        -2.6130    2.1210    5.2940 C.3    59  ASN59       0.1155
     14  CG        -2.9500    1.2500    6.4940 C.2    59  ASN59       0.2627
     15  OD1       -2.6070    0.0700    6.5310 O.2    59  ASN59      -0.2716
     16  ND2       -3.6330    1.8280    7.4750 N.am   59  ASN59      -0.0877
     17  N         -0.6270   -2.0270    6.2990 N.3    61  HIS61      -0.1241
     18  CA        -0.7320   -2.7810    7.5650 C.3    61  HIS61       0.1621
     19  C         -2.1420   -3.2970    7.8460 C.2    61  HIS61       0.2264
     20  O         -2.3160   -4.2690    8.5760 O.2    61  HIS61      -0.2867
     21  CB        -0.1120   -2.0680    8.7790 C.3    61  HIS61       0.0745
     22  CG        -0.4820   -0.6240    8.9190 C.ar   61  HIS61       0.0817
     23  ND1       -1.3610   -0.1720    9.8800 N.ar   61  HIS61      -0.2268
     24  CD2       -0.0490    0.4760    8.2590 C.ar   61  HIS61       0.1154
     25  CE1       -1.4700    1.1410    9.7930 C.ar   61  HIS61       0.1986
     26  NE2       -0.6880    1.5590    8.8130 N.ar   61  HIS61      -0.2212
     27  N         -8.3720    0.5330    5.8670 N.3    64  ASN64      -0.1240
     28  CA        -9.1710    1.4830    6.6200 C.3    64  ASN64       0.1653
     29  C        -10.3350    1.9200    5.7660 C.2    64  ASN64       0.2266
     30  O        -10.1350    2.3100    4.6050 O.2    64  ASN64      -0.2867
     31  CB        -8.3660    2.7470    6.9370 C.3    64  ASN64       0.1155
     32  CG        -7.3440    2.5520    8.0370 C.2    64  ASN64       0.2627
     33  OD1       -6.6260    3.4920    8.3970 O.2    64  ASN64      -0.2716
     34  ND2       -7.2650    1.3550    8.5700 N.am   64  ASN64      -0.0877
     35  N        -12.6620    4.9530    5.6700 N.3    66  GLU66      -0.1245
     36  CA       -12.6230    6.3110    6.2130 C.3    66  GLU66       0.1567
     37  C        -13.9700    7.0180    6.1300 C.2    66  GLU66       0.2260
     38  O        -14.7460    6.7810    5.2040 O.2    66  GLU66      -0.2867
     39  CB       -11.6000    7.1440    5.4560 C.3    66  GLU66       0.0388
     40  CG       -10.2010    6.6070    5.5900 C.3    66  GLU66       0.1160
     41  CD        -9.2540    7.1930    4.5630 C.2    66  GLU66       0.3649
     42  OE1       -9.7250    7.8980    3.6440 O.co2  66  GLU66      -0.2457
     43  OE2       -8.0430    6.9350    4.6770 O.co2  66  GLU66      -0.2457
     44  N        -13.8730    8.2780   12.7410 N.3    88  ILE88      -0.1231
     45  CA       -12.9780    8.6870   11.6560 C.3    88  ILE88       0.1692
     46  C        -12.6860    7.5230   10.7010 C.2    88  ILE88       0.2591
     47  O        -12.6550    7.6960    9.4830 O.2    88  ILE88      -0.2718
     48  CB       -11.6620    9.3470   12.1710 C.3    88  ILE88       0.0266
     49  CG1      -10.7340    9.6790   10.9950 C.3    88  ILE88       0.0019
     50  CG2      -10.9280    8.4570   13.1580 C.3    88  ILE88       0.0020
     51  CD1       -9.5010   10.4700   11.4070 C.3    88  ILE88       0.0001
     52  N        -12.4910    6.3250   11.2420 N.am   89  GLN89      -0.1979
     53  CA       -12.2330    5.1780   10.3760 C.3    89  GLN89       0.1601
     54  C        -12.5030    3.8980   11.1300 C.2    89  GLN89       0.2287
     55  O        -12.5670    3.9230   12.3510 O.2    89  GLN89      -0.2864
     56  CB       -10.7810    5.1810    9.8840 C.3    89  GLN89       0.0394
     57  CG        -9.7340    5.2980   10.9800 C.3    89  GLN89       0.0908
     58  CD        -9.0520    3.9810   11.3000 C.2    89  GLN89       0.2608
     59  OE1       -9.6240    2.9090   11.1110 O.2    89  GLN89      -0.2717
     60  NE2       -7.8180    4.0550   11.7850 N.am   89  GLN89      -0.0878
     61  N        -11.1290   -0.4430   10.8730 N.3    91  HIS91      -0.1241
     62  CA       -10.2640   -1.4080   10.2250 C.3    91  HIS91       0.1621
     63  C        -10.3390   -2.6900   11.0450 C.2    91  HIS91       0.2264
     64  O        -11.0120   -2.7370   12.0880 O.2    91  HIS91      -0.2867
     65  CB        -8.8220   -0.9030   10.2140 C.3    91  HIS91       0.0745
     66  CG        -8.3010   -0.6160   11.5850 C.ar   91  HIS91       0.0817
     67  ND1       -8.4660    0.6070   12.1960 N.ar   91  HIS91      -0.2268
     68  CD2       -7.6800   -1.4130   12.4830 C.ar   91  HIS91       0.1154
     69  CE1       -7.9570    0.5550   13.4150 C.ar   91  HIS91       0.1986
     70  NE2       -7.4610   -0.6540   13.6080 N.ar   91  HIS91      -0.2212
     71  N         -8.0020   -6.4210   12.3660 N.3    93  HIS93      -0.1241
     72  CA        -6.7870   -7.2050   12.5070 C.3    93  HIS93       0.1621
     73  C         -7.2220   -8.6540   12.4120 C.2    93  HIS93       0.2264
     74  O         -8.2520   -9.0170   12.9640 O.2    93  HIS93      -0.2867
     75  CB        -6.1520   -6.9650   13.8720 C.3    93  HIS93       0.0745
     76  CG        -5.8650   -5.5260   14.1440 C.ar   93  HIS93       0.0817
     77  ND1       -4.6340   -4.9570   13.8980 N.ar   93  HIS93      -0.2268
     78  CD2       -6.6630   -4.5270   14.5960 C.ar   93  HIS93       0.1154
     79  CE1       -4.6770   -3.6740   14.2140 C.ar   93  HIS93       0.1986
     80  NE2       -5.8990   -3.3870   14.6230 N.ar   93  HIS93      -0.2212
     81  N        -11.9080   -2.6060   14.7510 N.3   116  HIS116     -0.1241
     82  CA       -11.7100   -1.3850   15.5300 C.3   116  HIS116      0.1621
     83  C        -12.3780   -0.2190   14.8370 C.2   116  HIS116      0.2264
     84  O        -12.0190    0.1300   13.7080 O.2   116  HIS116     -0.2867
     85  CB       -10.2190   -1.0980   15.6730 C.3   116  HIS116      0.0745
     86  CG        -9.5250   -2.0720   16.5700 C.ar  116  HIS116      0.0817
     87  ND1       -8.1630   -2.2880   16.5360 N.ar  116  HIS116     -0.2268
     88  CD2      -10.0180   -2.9160   17.5030 C.ar  116  HIS116      0.1154
     89  CE1       -7.8440   -3.2030   17.4370 C.ar  116  HIS116      0.1986
     90  NE2       -8.9490   -3.5940   18.0430 N.ar  116  HIS116     -0.2212
     91  N        -12.6420    3.5950   15.1760 N.3   118  VAL118     -0.1245
     92  CA       -11.8180    4.6040   15.8390 C.3   118  VAL118      0.1561
     93  C        -12.5340    5.9440   15.8750 C.2   118  VAL118      0.2260
     94  O        -12.9840    6.4260   14.8320 O.2   118  VAL118     -0.2867
     95  CB       -10.4890    4.7610   15.0810 C.3   118  VAL118      0.0252
     96  CG1       -9.5910    5.7840   15.7470 C.3   118  VAL118      0.0019
     97  CG2       -9.7910    3.4100   14.9610 C.3   118  VAL118      0.0019
     98  N         -8.1740   15.0210   14.7780 N.3   127  PHE127     -0.1241
     99  CA        -7.6090   13.7500   15.2040 C.3   127  PHE127      0.1605
    100  C         -6.1450   13.8980   15.5910 C.2   127  PHE127      0.2264
    101  O         -5.6920   13.2710   16.5390 O.2   127  PHE127     -0.2867
    102  CB        -7.7670   12.6920   14.1090 C.3   127  PHE127      0.0534
    103  CG        -7.1350   11.3700   14.4500 C.ar  127  PHE127     -0.0203
    104  CD1       -7.8820   10.3610   15.0350 C.ar  127  PHE127     -0.0042
    105  CD2       -5.7940   11.1370   14.1890 C.ar  127  PHE127     -0.0042
    106  CE1       -7.3080    9.1470   15.3470 C.ar  127  PHE127     -0.0003
    107  CE2       -5.2110    9.9280   14.5000 C.ar  127  PHE127     -0.0003
    108  CZ        -5.9650    8.9280   15.0830 C.ar  127  PHE127     -0.0000
    109  N        -11.8160    3.8470   21.0760 N.3   139  VAL139     -0.1245
    110  CA       -11.8750    2.8250   20.0460 C.3   139  VAL139      0.1561
    111  C        -12.8380    1.7360   20.4930 C.2   139  VAL139      0.2260
    112  O        -12.7180    1.1940   21.5920 O.2   139  VAL139     -0.2867
    113  CB       -10.4850    2.2340   19.7210 C.3   139  VAL139      0.0252
    114  CG1      -10.5960    1.1830   18.5960 C.3   139  VAL139      0.0019
    115  CG2       -9.5430    3.3350   19.2970 C.3   139  VAL139      0.0019
    116  N         -2.9630    3.1860   21.2050 N.3   194  LEU194     -0.1231
    117  CA        -2.9900    2.6740   19.8340 C.3   194  LEU194      0.1693
    118  C         -2.2450    1.3450   19.8320 C.2   194  LEU194      0.2593
    119  O         -1.2250    1.1920   20.5140 O.2   194  LEU194     -0.2718
    120  CB        -2.2820    3.6370   18.8750 C.3   194  LEU194      0.0284
    121  CG        -2.7680    5.0840   18.7820 C.3   194  LEU194      0.0019
    122  CD1       -1.9040    5.8510   17.8010 C.3   194  LEU194      0.0001
    123  CD2       -4.2210    5.1020   18.3540 C.3   194  LEU194      0.0001
    124  N         -2.7170    0.3770   19.0590 N.am  195  THR195     -0.1939
    125  CA        -2.0110   -0.9030   19.0120 C.3   195  THR195      0.2028
    126  C         -1.0040   -0.9890   17.8570 C.2   195  THR195      0.2643
    127  O         -0.3670   -2.0310   17.6640 O.2   195  THR195     -0.2714
    128  CB        -2.9780   -2.0800   18.8780 C.3   195  THR195      0.1808
    129  OG1       -3.6050   -2.0110   17.5910 O.3   195  THR195     -0.2208
    130  CG2       -4.0300   -2.0610   19.9990 C.3   195  THR195      0.0379
    131  N         -0.8810    0.0850   17.0750 N.am  196  THR196     -0.1937
    132  CA         0.1920    0.1930   16.0810 C.3   196  THR196      0.2013
    133  C          1.0150    1.4430   16.3620 C.2   196  THR196      0.2484
    134  O          0.5110    2.4020   16.9470 O.2   196  THR196     -0.2729
    135  CB        -0.3440    0.3290   14.6350 C.3   196  THR196      0.1807
    136  OG1       -1.2630    1.4310   14.5580 O.3   196  THR196     -0.2208
    137  CG2       -1.0480   -0.9440   14.1620 C.3   196  THR196      0.0379
    138  N          2.2770    1.4560   15.9130 N.am  197  PRO197     -0.2715
    139  CA         3.0650    2.6840   16.0780 C.3   197  PRO197      0.1521
    140  C          2.2610    3.8630   15.5430 C.2   197  PRO197      0.2440
    141  O          1.5830    3.7130   14.5220 O.2   197  PRO197     -0.2731
    142  CB         4.2860    2.4050   15.2100 C.3   197  PRO197      0.0310
    143  CG         4.4750    0.9370   15.3380 C.3   197  PRO197      0.0237
    144  CD         3.0670    0.3720   15.3040 C.3   197  PRO197      0.0939
    145  N          2.3270    5.0270   16.2030 N.am  198  PRO198     -0.2727
    146  CA         3.2140    5.4100   17.3050 C.3   198  PRO198      0.1402
    147  C          2.8080    4.9360   18.7020 C.2   198  PRO198      0.2269
    148  O          3.4020    5.4090   19.6640 O.2   198  PRO198     -0.2865
    149  CB         3.1940    6.9430   17.2470 C.3   198  PRO198      0.0296
    150  CG         1.8890    7.2930   16.6280 C.3   198  PRO198      0.0237
    151  CD         1.4140    6.1170   15.8210 C.3   198  PRO198      0.0939
    152  N         -6.0300    6.3140   24.2610 N.3   203  VAL203     -0.1245
    153  CA        -7.2540    5.5870   23.9110 C.3   203  VAL203      0.1561
    154  C         -8.0400    5.1050   25.1200 C.2   203  VAL203      0.2260
    155  O         -7.4990    4.4790   26.0310 O.2   203  VAL203     -0.2867
    156  CB        -6.9680    4.3500   23.0340 C.3   203  VAL203      0.0252
    157  CG1       -8.2880    3.6470   22.6900 C.3   203  VAL203      0.0019
    158  CG2       -6.2020    4.7470   21.7590 C.3   203  VAL203      0.0019
    159  N        -10.3490    2.3190   25.6310 N.3   205  TRP205     -0.1241
    160  CA       -10.8270    1.1320   24.9470 C.3   205  TRP205      0.1605
    161  C        -12.2050    0.6990   25.4350 C.2   205  TRP205      0.2264
    162  O        -12.4620    0.6280   26.6360 O.2   205  TRP205     -0.2867
    163  CB        -9.8090   -0.0050   25.0850 C.3   205  TRP205      0.0550
    164  CG        -8.7320    0.1230   24.0780 C.ar  205  TRP205      0.0003
    165  CD1       -7.5110    0.7030   24.2440 C.ar  205  TRP205      0.0946
    166  CD2       -8.7950   -0.3120   22.7160 C.ar  205  TRP205      0.0152
    167  NE1       -6.8050    0.6500   23.0670 N.ar  205  TRP205     -0.2442
    168  CE2       -7.5700    0.0200   22.1170 C.ar  205  TRP205      0.0810
    169  CE3       -9.7700   -0.9670   21.9490 C.ar  205  TRP205      0.0012
    170  CZ2       -7.2920   -0.2670   20.7910 C.ar  205  TRP205      0.0191
    171  CZ3       -9.4930   -1.2550   20.6390 C.ar  205  TRP205      0.0001
    172  CH2       -8.2590   -0.9190   20.0720 C.ar  205  TRP205      0.0015
@<TRIPOS>BOND
     1     7     6    1
     2     2     1    1
     3     2     3    1
     4     2     5    1
     5     3     4    2
     6     5     6    1
     7     6     8    1
     8     9    10    1
     9    42    41   ar
    10    10    11    1
    11    10    13    1
    12    11    12    2
    13    41    43   ar
    14    41    40    1
    15    30    29    2
    16    38    37    2
    17    13    14    1
    18    39    40    1
    19    39    36    1
    20    35    36    1
    21    29    28    1
    22    27    28    1
    23    37    36    1
    24    17    18    1
    25    14    15    2
    26    14    16   am
    27    28    31    1
    28    31    32    1
    29    18    19    1
    30    18    21    1
    31    19    20    2
    32    32    33    2
    33    32    34   am
    34    24    26   ar
    35    24    22   ar
    36    21    22    1
    37    26    25   ar
    38    22    23   ar
    39    47    46    2
    40    25    23   ar
    41    56    53    1
    42    56    57    1
    43    65    62    1
    44    65    66    1
    45    62    61    1
    46    62    63    1
    47    53    54    1
    48    53    52    1
    49    46    52   am
    50    46    45    1
    51    57    58    1
    52    49    51    1
    53    49    48    1
    54    63    64    2
    55    59    58    2
    56    54    55    2
    57    58    60   am
    58    66    67   ar
    59    66    68   ar
    60    45    48    1
    61    45    44    1
    62    48    50    1
    63    67    69   ar
    64    71    72    1
    65    73    72    1
    66    73    74    2
    67    68    70   ar
    68    72    75    1
    69    69    70   ar
    70    84    83    2
    71    75    76    1
    72    77    76   ar
    73    77    79   ar
    74   102   103    1
    75   102    99    1
    76    76    78   ar
    77   137   135    1
    78   105   103   ar
    79   105   107   ar
    80    79    80   ar
    81   103   104   ar
    82   107   108   ar
    83   141   140    2
    84   136   135    1
    85    78    80   ar
    86   135   132    1
    87    81    82    1
    88    98    99    1
    89    94    93    2
    90    83    82    1
    91    97    95    1
    92   104   106   ar
    93    95    96    1
    94    95    92    1
    95   108   106   ar
    96    91    92    1
    97    99   100    1
    98   142   143    1
    99   142   139    1
   100   144   143    1
   101   144   138    1
   102    82    85    1
   103   140   139    1
   104   140   145   am
   105   100   101    2
   106    85    86    1
   107   151   145    1
   108   151   150    1
   109    92    93    1
   110   138   139    1
   111   138   133   am
   112   132   133    1
   113   132   131    1
   114   145   146    1
   115   133   134    2
   116    87    86   ar
   117    87    89   ar
   118    86    88   ar
   119   150   149    1
   120   131   126   am
   121   149   146    1
   122   146   147    1
   123    89    90   ar
   124    88    90   ar
   125   129   128    1
   126   127   126    2
   127   122   121    1
   128   126   125    1
   129   123   121    1
   130   114   113    1
   131   147   148    2
   132   121   120    1
   133   120   117    1
   134   128   125    1
   135   128   130    1
   136   125   124    1
   137   124   118   am
   138   115   113    1
   139   113   110    1
   140   118   117    1
   141   118   119    2
   142   117   116    1
   143   110   111    1
   144   110   109    1
   145   172   171   ar
   146   172   170   ar
   147   111   112    2
   148   171   169   ar
   149   170   168   ar
   150   158   156    1
   151   169   166   ar
   152   168   166   ar
   153   168   167   ar
   154   157   156    1
   155   166   164   ar
   156   156   153    1
   157   167   165   ar
   158   153   152    1
   159   153   154    1
   160   164   165   ar
   161   164   163    1
   162   160   163    1
   163   160   161    1
   164   160   159    1
   165   154   155    2
   166   161   162    2
