@<TRIPOS>MOLECULE
tmp/3mhiA00.pdb
 143 141 0 0 0
SMALL
GASTEIGER

@<TRIPOS>ATOM
      1  N          8.2920   -0.5820   10.5040 N.3     2  TRP2       -0.1241
      2  CA         7.6260   -1.5820   11.3340 C.3     2  TRP2        0.1605
      3  C          6.5860   -2.3200   10.5190 C.2     2  TRP2        0.2264
      4  O          6.0110   -1.7640    9.5440 O.2     2  TRP2       -0.2867
      5  CB         6.9010   -0.8710   12.4890 C.3     2  TRP2        0.0550
      6  CG         5.7380   -0.0050   12.0890 C.ar    2  TRP2        0.0003
      7  CD1        5.7510    1.3490   11.7800 C.ar    2  TRP2        0.0946
      8  CD2        4.3790   -0.4190   12.0220 C.ar    2  TRP2        0.0152
      9  NE1        4.4470    1.7890   11.5440 N.ar    2  TRP2       -0.2442
     10  CE2        3.6040    0.7160   11.6350 C.ar    2  TRP2        0.0810
     11  CE3        3.7350   -1.6480   12.2510 C.ar    2  TRP2        0.0012
     12  CZ2        2.1870    0.6710   11.4730 C.ar    2  TRP2        0.0191
     13  CZ3        2.2990   -1.7020   12.0130 C.ar    2  TRP2        0.0001
     14  CH2        1.5650   -0.4960   11.7170 C.ar    2  TRP2        0.0015
     15  N        -12.7270    6.1900   11.1310 N.3    89  GLN89      -0.1245
     16  CA       -12.3950    5.0530   10.2500 C.3    89  GLN89       0.1566
     17  C        -12.6290    3.7580   11.0340 C.2    89  GLN89       0.2260
     18  O        -12.6750    3.7850   12.2670 O.2    89  GLN89      -0.2867
     19  CB       -10.9150    5.1290    9.7370 C.3    89  GLN89       0.0367
     20  CG        -9.8620    5.2000   10.9750 C.3    89  GLN89       0.0905
     21  CD        -9.1010    3.8440   11.2200 C.2    89  GLN89       0.2608
     22  OE1       -9.6910    2.7670   11.0760 O.2    89  GLN89      -0.2717
     23  NE2       -7.7980    3.9420   11.5620 N.am   89  GLN89      -0.0878
     24  N        -11.1510   -0.5160   10.8620 N.3    91  HIS91      -0.1241
     25  CA       -10.2820   -1.4760   10.2230 C.3    91  HIS91       0.1621
     26  C        -10.3750   -2.7760   11.0860 C.2    91  HIS91       0.2264
     27  O        -10.9950   -2.8020   12.1390 O.2    91  HIS91      -0.2867
     28  CB        -8.8080   -1.0380   10.2030 C.3    91  HIS91       0.0745
     29  CG        -8.3100   -0.6990   11.5980 C.ar   91  HIS91       0.0817
     30  ND1       -8.5470    0.5260   12.2290 N.ar   91  HIS91      -0.2268
     31  CD2       -7.6400   -1.4680   12.4720 C.ar   91  HIS91       0.1154
     32  CE1       -8.0050    0.4650   13.4510 C.ar   91  HIS91       0.1986
     33  NE2       -7.4940   -0.7510   13.6250 N.ar   91  HIS91      -0.2212
     34  N         -8.0790   -6.5140   12.4100 N.3    93  HIS93      -0.1241
     35  CA        -6.8000   -7.2880   12.5850 C.3    93  HIS93       0.1621
     36  C         -7.1830   -8.7470   12.4630 C.2    93  HIS93       0.2264
     37  O         -8.2710   -9.1180   12.9570 O.2    93  HIS93      -0.2867
     38  CB        -6.1510   -7.0470   13.9240 C.3    93  HIS93       0.0745
     39  CG        -5.9230   -5.5740   14.2250 C.ar   93  HIS93       0.0817
     40  ND1       -4.7020   -4.9760   13.9500 N.ar   93  HIS93      -0.2268
     41  CD2       -6.7590   -4.5770   14.6260 C.ar   93  HIS93       0.1154
     42  CE1       -4.7370   -3.7110   14.3590 C.ar   93  HIS93       0.1986
     43  NE2       -6.0010   -3.4120   14.6630 N.ar   93  HIS93      -0.2212
     44  N        -12.0170   -2.6420   14.7440 N.3   116  HIS116     -0.1241
     45  CA       -11.7710   -1.4430   15.5180 C.3   116  HIS116      0.1621
     46  C        -12.4720   -0.2680   14.8850 C.2   116  HIS116      0.2264
     47  O        -12.0660    0.0670   13.7510 O.2   116  HIS116     -0.2867
     48  CB       -10.2280   -1.2250   15.5910 C.3   116  HIS116      0.0745
     49  CG        -9.5690   -2.2060   16.5350 C.ar  116  HIS116      0.0817
     50  ND1       -8.2030   -2.4350   16.5600 N.ar  116  HIS116     -0.2268
     51  CD2      -10.1020   -3.0310   17.4940 C.ar  116  HIS116      0.1154
     52  CE1       -7.9160   -3.3330   17.4650 C.ar  116  HIS116      0.1986
     53  NE2       -9.0410   -3.7000   18.0700 N.ar  116  HIS116     -0.2212
     54  N        -12.9200    3.5200   15.0590 N.3   118  VAL118     -0.1245
     55  CA       -12.0020    4.4730   15.7300 C.3   118  VAL118      0.1561
     56  C        -12.6780    5.8400   15.7690 C.2   118  VAL118      0.2260
     57  O        -13.0950    6.3610   14.7040 O.2   118  VAL118     -0.2867
     58  CB       -10.6250    4.5660   14.9370 C.3   118  VAL118      0.0252
     59  CG1       -9.5730    5.5930   15.6520 C.3   118  VAL118      0.0019
     60  CG2       -9.9980    3.1750   14.6100 C.3   118  VAL118      0.0019
     61  N         -8.5170   14.9060   14.6650 N.3   127  PHE127     -0.1241
     62  CA        -7.8410   13.6550   14.9820 C.3   127  PHE127      0.1605
     63  C         -6.3810   13.8220   15.4230 C.2   127  PHE127      0.2264
     64  O         -5.9270   13.2130   16.4210 O.2   127  PHE127     -0.2867
     65  CB        -7.8950   12.6690   13.8070 C.3   127  PHE127      0.0534
     66  CG        -7.3350   11.3130   14.1510 C.ar  127  PHE127     -0.0203
     67  CD1       -8.1570   10.3720   14.7930 C.ar  127  PHE127     -0.0042
     68  CD2       -5.9730   10.9750   13.9530 C.ar  127  PHE127     -0.0042
     69  CE1       -7.6490    9.1410   15.1790 C.ar  127  PHE127     -0.0003
     70  CE2       -5.4910    9.7350   14.3040 C.ar  127  PHE127     -0.0003
     71  CZ        -6.3500    8.8110   14.9280 C.ar  127  PHE127     -0.0000
     72  N         -5.0770   12.6110   19.3180 N.3   131  VAL131     -0.1301
     73  CA        -4.1150   11.4790   19.6590 C.3   131  VAL131      0.1246
     74  C         -2.9730   11.8990   20.6310 C.3   131  VAL131      0.2009
     75  O         -2.2490   11.0090   21.2130 O.3   131  VAL131     -0.2188
     76  CB        -3.4690   10.7730   18.4000 C.3   131  VAL131      0.0202
     77  CG1       -4.6200   10.1260   17.5440 C.3   131  VAL131      0.0016
     78  CG2       -2.5510   11.7200   17.6130 C.3   131  VAL131      0.0016
     79  N        -11.9250    3.7280   21.0000 N.3   139  VAL139     -0.1245
     80  CA       -11.9810    2.6730   20.0060 C.3   139  VAL139      0.1561
     81  C        -12.9160    1.6070   20.5060 C.2   139  VAL139      0.2260
     82  O        -12.7440    1.0990   21.5930 O.2   139  VAL139     -0.2867
     83  CB       -10.5990    2.1440   19.6090 C.3   139  VAL139      0.0252
     84  CG1      -10.6490    1.0680   18.4710 C.3   139  VAL139      0.0019
     85  CG2       -9.6250    3.2990   19.2940 C.3   139  VAL139      0.0019
     86  N         -3.0950    3.1630   21.1100 N.3   194  LEU194     -0.1231
     87  CA        -3.1110    2.6050   19.7220 C.3   194  LEU194      0.1693
     88  C         -2.3190    1.2660   19.7860 C.2   194  LEU194      0.2593
     89  O         -1.2840    1.1470   20.4880 O.2   194  LEU194     -0.2718
     90  CB        -2.3410    3.5420   18.8210 C.3   194  LEU194      0.0284
     91  CG        -2.8360    4.9720   18.7610 C.3   194  LEU194      0.0019
     92  CD1       -2.0270    5.7040   17.6990 C.3   194  LEU194      0.0001
     93  CD2       -4.3520    5.1610   18.4710 C.3   194  LEU194      0.0001
     94  N         -2.7900    0.2640   19.0350 N.am  195  THR195     -0.1939
     95  CA        -2.0920   -1.0200   18.9810 C.3   195  THR195      0.2028
     96  C         -1.0690   -1.0880   17.8320 C.2   195  THR195      0.2643
     97  O         -0.5070   -2.2190   17.6320 O.2   195  THR195     -0.2714
     98  CB        -3.1160   -2.2450   18.8310 C.3   195  THR195      0.1808
     99  OG1       -3.8220   -2.0970   17.5800 O.3   195  THR195     -0.2208
    100  CG2       -4.1490   -2.2450   19.9930 C.3   195  THR195      0.0379
    101  N         -0.9250   -0.0150   17.0320 N.am  196  THR196     -0.1937
    102  CA         0.1440    0.0350   16.0350 C.3   196  THR196      0.2013
    103  C          0.9950    1.2480   16.3170 C.2   196  THR196      0.2484
    104  O          0.5080    2.2710   16.9270 O.2   196  THR196     -0.2729
    105  CB        -0.4180    0.1120   14.5810 C.3   196  THR196      0.1807
    106  OG1       -1.4220    1.1640   14.4900 O.3   196  THR196     -0.2208
    107  CG2       -1.0100   -1.2350   14.1720 C.3   196  THR196      0.0379
    108  N          2.2820    1.1730   15.8620 N.am  197  PRO197     -0.2715
    109  CA         3.0080    2.4650   15.9690 C.3   197  PRO197      0.1521
    110  C          2.1820    3.6480   15.3840 C.2   197  PRO197      0.2440
    111  O          1.5460    3.5130   14.2770 O.2   197  PRO197     -0.2731
    112  CB         4.2950    2.1600   15.1590 C.3   197  PRO197      0.0310
    113  CG         4.4990    0.7260   15.3150 C.3   197  PRO197      0.0237
    114  CD         3.1210    0.0870   15.3250 C.3   197  PRO197      0.0939
    115  N          2.2160    4.8570   16.0220 N.am  198  PRO198     -0.2727
    116  CA         3.0730    5.2550   17.1420 C.3   198  PRO198      0.1402
    117  C          2.6640    4.8600   18.5750 C.2   198  PRO198      0.2269
    118  O          3.3360    5.2920   19.5660 O.2   198  PRO198     -0.2865
    119  CB         3.1300    6.7940   16.9970 C.3   198  PRO198      0.0296
    120  CG         1.7970    7.1670   16.4610 C.3   198  PRO198      0.0237
    121  CD         1.4570    6.0500   15.5000 C.3   198  PRO198      0.0939
    122  N          0.4380    5.4380   20.7110 N.3   200  LEU200     -0.1245
    123  CA         0.1260    6.5880   21.5950 C.3   200  LEU200      0.1561
    124  C         -0.8570    6.1590   22.6740 C.2   200  LEU200      0.2260
    125  O         -1.8390    5.4860   22.3990 O.2   200  LEU200     -0.2867
    126  CB        -0.3910    7.8090   20.7900 C.3   200  LEU200      0.0270
    127  CG         0.7250    8.3420   19.8390 C.3   200  LEU200      0.0019
    128  CD1        0.0930    9.3830   18.8870 C.3   200  LEU200      0.0001
    129  CD2        1.9740    8.9180   20.6510 C.3   200  LEU200      0.0001
    130  N        -10.4980    2.2360   25.6310 N.3   205  TRP205     -0.1241
    131  CA       -10.9160    1.0310   24.8870 C.3   205  TRP205      0.1605
    132  C        -12.3130    0.6300   25.3820 C.2   205  TRP205      0.2264
    133  O        -12.5420    0.5520   26.5710 O.2   205  TRP205     -0.2867
    134  CB        -9.9490   -0.1120   25.1110 C.3   205  TRP205      0.0550
    135  CG        -8.8080    0.0170   24.1220 C.ar  205  TRP205      0.0003
    136  CD1       -7.5570    0.6160   24.3060 C.ar  205  TRP205      0.0946
    137  CD2       -8.9110   -0.3180   22.7400 C.ar  205  TRP205      0.0152
    138  NE1       -6.8370    0.6190   23.1070 N.ar  205  TRP205     -0.2442
    139  CE2       -7.6520    0.0240   22.1250 C.ar  205  TRP205      0.0810
    140  CE3       -9.9320   -0.9340   21.9590 C.ar  205  TRP205      0.0012
    141  CZ2       -7.4000   -0.2510   20.7800 C.ar  205  TRP205      0.0191
    142  CZ3       -9.7000   -1.2000   20.6210 C.ar  205  TRP205      0.0001
    143  CH2       -8.4340   -0.8890   20.0400 C.ar  205  TRP205      0.0015
@<TRIPOS>BOND
     1     4     3    2
     2    19    16    1
     3    19    20    1
     4    28    25    1
     5    28    29    1
     6    25    24    1
     7    25    26    1
     8    16    17    1
     9    16    15    1
    10     1     2    1
    11     3     2    1
    12    20    21    1
    13    17    18    2
    14    22    21    2
    15    26    27    2
    16    21    23   am
    17     2     5    1
    18    12    10   ar
    19    12    14   ar
    20     9    10   ar
    21     9     7   ar
    22    29    30   ar
    23    29    31   ar
    24    10     8   ar
    25    14    13   ar
    26     7     6   ar
    27    13    11   ar
    28     8     6   ar
    29     8    11   ar
    30     6     5    1
    31    30    32   ar
    32    34    35    1
    33    36    35    1
    34    36    37    2
    35    31    33   ar
    36    35    38    1
    37    32    33   ar
    38    47    46    2
    39    65    66    1
    40    65    62    1
    41    38    39    1
    42    40    39   ar
    43    40    42   ar
    44    68    66   ar
    45    68    70   ar
    46    66    67   ar
    47   107   105    1
    48    39    41   ar
    49   111   110    2
    50    70    71   ar
    51    42    43   ar
    52   106   105    1
    53   105   102    1
    54    60    58    1
    55    41    43   ar
    56    61    62    1
    57    57    56    2
    58    44    45    1
    59    67    69   ar
    60    46    45    1
    61    71    69   ar
    62    58    59    1
    63    58    55    1
    64    62    63    1
    65    54    55    1
    66   112   113    1
    67   112   109    1
    68   113   114    1
    69   114   108    1
    70   110   109    1
    71   110   115   am
    72    63    64    2
    73   121   115    1
    74   121   120    1
    75    45    48    1
    76    48    49    1
    77    55    56    1
    78   108   109    1
    79   108   103   am
    80   115   116    1
    81   102   103    1
    82   102   101    1
    83   103   104    2
    84   120   119    1
    85    49    50   ar
    86    49    51   ar
    87    50    52   ar
    88   119   116    1
    89   101    96   am
    90   116   117    1
    91    52    53   ar
    92    51    53   ar
    93    77    76    1
    94    99    98    1
    95    78    76    1
    96    97    96    2
    97    92    91    1
    98    96    95    1
    99    76    73    1
   100    93    91    1
   101    84    83    1
   102   117   118    2
   103    91    90    1
   104    90    87    1
   105    98    95    1
   106    98   100    1
   107   128   127    1
   108    95    94    1
   109    94    88   am
   110    85    83    1
   111    72    73    1
   112    83    80    1
   113    73    74    1
   114    87    88    1
   115    87    86    1
   116    88    89    2
   117   127   129    1
   118   127   126    1
   119    80    81    1
   120    80    79    1
   121   143   142   ar
   122   143   141   ar
   123    81    82    2
   124   142   140   ar
   125    74    75    1
   126   122   123    1
   127   141   139   ar
   128   126   123    1
   129   123   124    1
   130   140   137   ar
   131   139   137   ar
   132   139   138   ar
   133   125   124    2
   134   137   135   ar
   135   138   136   ar
   136   135   136   ar
   137   135   134    1
   138   131   134    1
   139   131   132    1
   140   131   130    1
   141   132   133    2
