@<TRIPOS>MOLECULE
tmp/3mhiA01.pdb
 107 111 0 0 0
SMALL
GASTEIGER

@<TRIPOS>ATOM
      1  N         11.0120   -0.1000    8.0460 N.3     1  HIS1       -0.1226
      2  CA         9.6410    0.2180    8.6310 C.3     1  HIS1        0.1752
      3  C          9.0640   -0.9350    9.5000 C.2     1  HIS1        0.2596
      4  O          9.2420   -2.0790    9.2070 O.2     1  HIS1       -0.2718
      5  CB         8.6580    0.4200    7.5000 C.3     1  HIS1        0.0759
      6  CG         7.4330    1.1830    7.8960 C.ar    1  HIS1        0.0818
      7  ND1        7.4520    2.5480    8.1240 N.ar    1  HIS1       -0.2268
      8  CD2        6.1450    0.7790    8.1070 C.ar    1  HIS1        0.1154
      9  CE1        6.2320    2.9460    8.4760 C.ar    1  HIS1        0.1986
     10  NE2        5.4190    1.8940    8.4460 N.ar    1  HIS1       -0.2212
     11  N          8.2920   -0.5820   10.5040 N.am    2  TRP2       -0.1976
     12  CA         7.6260   -1.5820   11.3340 C.3     2  TRP2        0.1640
     13  C          6.5860   -2.3200   10.5190 C.2     2  TRP2        0.2290
     14  O          6.0110   -1.7640    9.5440 O.2     2  TRP2       -0.2864
     15  CB         6.9010   -0.8710   12.4890 C.3     2  TRP2        0.0576
     16  CG         5.7380   -0.0050   12.0890 C.ar    2  TRP2        0.0006
     17  CD1        5.7510    1.3490   11.7800 C.ar    2  TRP2        0.0946
     18  CD2        4.3790   -0.4190   12.0220 C.ar    2  TRP2        0.0152
     19  NE1        4.4470    1.7890   11.5440 N.ar    2  TRP2       -0.2442
     20  CE2        3.6040    0.7160   11.6350 C.ar    2  TRP2        0.0810
     21  CE3        3.7350   -1.6480   12.2510 C.ar    2  TRP2        0.0012
     22  CZ2        2.1870    0.6710   11.4730 C.ar    2  TRP2        0.0191
     23  CZ3        2.2990   -1.7020   12.0130 C.ar    2  TRP2        0.0001
     24  CH2        1.5650   -0.4960   11.7170 C.ar    2  TRP2        0.0015
     25  N          6.1800   -8.6870    9.9860 N.3     5  GLY5       -0.1210
     26  CA         6.8950   -9.7500    9.2930 C.3     5  GLY5        0.1956
     27  C          7.8610  -10.4640   10.2220 C.2     5  GLY5        0.2612
     28  O          7.9030  -10.2100   11.4400 O.2     5  GLY5       -0.2717
     29  N          8.7080  -11.3330    9.6150 N.am    6  LYS6       -0.1965
     30  CA         9.6870  -12.0690   10.4470 C.3     6  LYS6        0.1728
     31  C         10.6940  -11.2100   11.2710 C.2     6  LYS6        0.2616
     32  O         11.2340  -11.7480   12.2350 O.2     6  LYS6       -0.2715
     33  CB        10.4020  -13.1510    9.5980 C.3     6  LYS6        0.0311
     34  CG         9.5140  -14.3700    9.2110 C.3     6  LYS6        0.0038
     35  CD         9.4140  -15.3870   10.3780 C.3     6  LYS6        0.0206
     36  CE         9.1520  -16.8500    9.8720 C.3     6  LYS6        0.1093
     37  NZ         9.8460  -17.9890   10.6460 N.3     6  LYS6       -0.1314
     38  N         10.9710   -9.9350   10.8620 N.am    7  HIS7       -0.1959
     39  CA        12.1150   -9.0950   11.3450 C.3     7  HIS7        0.1787
     40  C         11.7350   -7.6760   11.8030 C.2     7  HIS7        0.2620
     41  O         12.5620   -6.9140   12.2640 O.2     7  HIS7       -0.2715
     42  CB        13.2070   -8.9340   10.2210 C.3     7  HIS7        0.0785
     43  CG        13.7280  -10.2550    9.7360 C.ar    7  HIS7        0.0821
     44  ND1       14.7200  -10.9470   10.4050 N.ar    7  HIS7       -0.2267
     45  CD2       13.3340  -11.0470    8.6900 C.ar    7  HIS7        0.1154
     46  CE1       14.8760  -12.1350    9.8270 C.ar    7  HIS7        0.1986
     47  NE2       14.0640  -12.2100    8.7730 N.ar    7  HIS7       -0.2212
     48  N         10.4360   -7.3190   11.6900 N.am    8  ASN8       -0.1972
     49  CA        10.0290   -5.9690   12.0340 C.3     8  ASN8        0.1688
     50  C          8.6670   -5.9890   12.8060 C.2     8  ASN8        0.2292
     51  O          7.9950   -4.9560   12.8640 O.2     8  ASN8       -0.2864
     52  CB         9.8600   -5.1680   10.7610 C.3     8  ASN8        0.1181
     53  CG         8.7320   -5.6960    9.8760 C.2     8  ASN8        0.2629
     54  OD1        8.2070   -6.8250   10.0830 O.2     8  ASN8       -0.2716
     55  ND2        8.4230   -4.9220    8.7600 N.am    8  ASN8       -0.0877
     56  N          9.8500   -5.9110   17.9880 N.3    12  HIS12      -0.1226
     57  CA        10.8180   -4.9210   17.5150 C.3    12  HIS12       0.1752
     58  C         10.3980   -3.4360   17.6420 C.2    12  HIS12       0.2596
     59  O         11.2940   -2.5130   17.5170 O.2    12  HIS12      -0.2718
     60  CB        11.1690   -5.1370   16.0450 C.3    12  HIS12       0.0759
     61  CG        11.8190   -6.4830   15.7820 C.ar   12  HIS12       0.0818
     62  ND1       13.1790   -6.7080   15.9640 N.ar   12  HIS12      -0.2268
     63  CD2       11.2880   -7.6640   15.3640 C.ar   12  HIS12       0.1154
     64  CE1       13.4340   -7.9910   15.6950 C.ar   12  HIS12       0.1986
     65  NE2       12.3110   -8.5870   15.3380 N.ar   12  HIS12      -0.2212
     66  N          9.0790   -3.1970   17.8340 N.am   13  TRP13      -0.1976
     67  CA         8.5920   -1.8380   17.7560 C.3    13  TRP13       0.1640
     68  C          9.1930   -0.8780   18.7910 C.2    13  TRP13       0.2290
     69  O          9.3090    0.3400   18.4910 O.2    13  TRP13      -0.2864
     70  CB         7.0490   -1.8200   17.8730 C.3    13  TRP13       0.0576
     71  CG         6.3640   -2.6020   16.7510 C.ar   13  TRP13       0.0006
     72  CD1        6.9170   -3.1380   15.5880 C.ar   13  TRP13       0.0946
     73  CD2        4.9450   -2.8780   16.6810 C.ar   13  TRP13       0.0152
     74  NE1        5.9390   -3.7530   14.8320 N.ar   13  TRP13      -0.2442
     75  CE2        4.7130   -3.5950   15.4500 C.ar   13  TRP13       0.0810
     76  CE3        3.8680   -2.5930   17.5360 C.ar   13  TRP13       0.0012
     77  CZ2        3.3930   -4.0250   15.0590 C.ar   13  TRP13       0.0191
     78  CZ3        2.6300   -3.0240   17.2060 C.ar   13  TRP13       0.0001
     79  CH2        2.3610   -3.7150   15.9700 C.ar   13  TRP13       0.0015
     80  N         12.1050   -0.3650   19.7480 N.3    15  LYS15      -0.1231
     81  CA        13.3530    0.3060   19.3020 C.3    15  LYS15       0.1693
     82  C         13.0940    1.6050   18.5480 C.2    15  LYS15       0.2592
     83  O         13.8830    2.5170   18.6590 O.2    15  LYS15      -0.2718
     84  CB        14.1440   -0.6550   18.4140 C.3    15  LYS15       0.0285
     85  CG        14.7650   -1.8340   19.1210 C.3    15  LYS15       0.0035
     86  CD        15.3910   -2.7530   18.0950 C.3    15  LYS15       0.0206
     87  CE        14.4170   -3.7820   17.4950 C.3    15  LYS15       0.1093
     88  NZ        15.1390   -4.5720   16.4320 N.3    15  LYS15      -0.1314
     89  N         11.9820    1.7220   17.7920 N.am   16  ASP16      -0.1960
     90  CA        11.5850    3.0240   17.2890 C.3    16  ASP16       0.1840
     91  C         10.4900    3.8090   18.0410 C.2    16  ASP16       0.2622
     92  O         10.3610    5.0530   17.8630 O.2    16  ASP16      -0.2715
     93  CB        11.2510    2.9110   15.8190 C.3    16  ASP16       0.1450
     94  CG        12.5290    2.6780   15.0060 C.2    16  ASP16       0.3671
     95  OD1       13.2070    3.6520   14.7210 O.co2  16  ASP16      -0.2456
     96  OD2       12.8610    1.4980   14.7670 O.co2  16  ASP16      -0.2456
     97  N          9.7220    3.0590   18.8580 N.am   17  PHE17      -0.1974
     98  CA         8.6120    3.6120   19.6030 C.3    17  PHE17       0.1639
     99  C          8.6900    3.1540   21.0580 C.2    17  PHE17       0.2290
    100  O          8.0260    2.1760   21.4310 O.2    17  PHE17      -0.2864
    101  CB         7.3030    3.1240   18.9270 C.3    17  PHE17       0.0560
    102  CG         7.2210    3.5460   17.5180 C.ar   17  PHE17      -0.0200
    103  CD1        6.8680    4.8750   17.2000 C.ar   17  PHE17      -0.0042
    104  CD2        7.6020    2.6350   16.4930 C.ar   17  PHE17      -0.0042
    105  CE1        6.7820    5.2470   15.8720 C.ar   17  PHE17      -0.0003
    106  CE2        7.5780    2.9900   15.1470 C.ar   17  PHE17      -0.0003
    107  CZ         7.1790    4.3030   14.8390 C.ar   17  PHE17      -0.0000
@<TRIPOS>BOND
     1     5     6    1
     2     5     2    1
     3     6     8   ar
     4     6     7   ar
     5     1     2    1
     6     8    10   ar
     7     7     9   ar
     8    10     9   ar
     9     2     3    1
    10    45    47   ar
    11    45    43   ar
    12    55    53   am
    13    47    46   ar
    14     4     3    2
    15    34    33    1
    16    34    35    1
    17    26    25    1
    18    26    27    1
    19     3    11   am
    20    14    13    2
    21    33    30    1
    22    29    27   am
    23    29    30    1
    24    43    42    1
    25    43    44   ar
    26    46    44   ar
    27    36    35    1
    28    36    37    1
    29    53    54    2
    30    53    52    1
    31    42    39    1
    32    27    28    2
    33    30    31    1
    34    11    12    1
    35    13    12    1
    36    52    49    1
    37    38    31   am
    38    38    39    1
    39    31    32    2
    40    12    15    1
    41    39    40    1
    42    22    20   ar
    43    22    24   ar
    44    19    20   ar
    45    19    17   ar
    46    20    18   ar
    47    48    40   am
    48    48    49    1
    49    24    23   ar
    50    17    16   ar
    51    40    41    2
    52    23    21   ar
    53    18    16   ar
    54    18    21   ar
    55    49    50    1
    56    16    15    1
    57    50    51    2
    58    95    94   ar
    59    96    94   ar
    60    74    75   ar
    61    74    72   ar
    62   107   106   ar
    63   107   105   ar
    64    94    93    1
    65    77    75   ar
    66    77    79   ar
    67   106   104   ar
    68    65    63   ar
    69    65    64   ar
    70    63    61   ar
    71    75    73   ar
    72    72    71   ar
    73    64    62   ar
    74    61    62   ar
    75    61    60    1
    76    93    90    1
    77   105   103   ar
    78    79    78   ar
    79    60    57    1
    80    88    87    1
    81   104   102   ar
    82    73    71   ar
    83    73    76   ar
    84    71    70    1
    85   103   102   ar
    86    78    76   ar
    87    90    89    1
    88    90    91    1
    89    87    86    1
    90    57    58    1
    91    57    56    1
    92    59    58    2
    93   102   101    1
    94    58    66   am
    95    67    66    1
    96    67    70    1
    97    67    68    1
    98    89    82   am
    99    92    91    2
   100    91    97   am
   101    86    85    1
   102    84    85    1
   103    84    81    1
   104    69    68    2
   105    82    83    2
   106    82    81    1
   107    97    98    1
   108   101    98    1
   109    81    80    1
   110    98    99    1
   111    99   100    2
