@<TRIPOS>MOLECULE
tmp/3mhjB00.pdb
 126 125 0 0 0
SMALL
GASTEIGER

@<TRIPOS>ATOM
      1  N         -9.3220    7.1420   17.3970 N.3    80  HIS80      -0.1226
      2  CA        -8.9570    7.4280   16.0270 C.3    80  HIS80       0.1752
      3  C        -10.2330    7.5970   15.2080 C.2    80  HIS80       0.2597
      4  O        -11.1220    6.7280   15.2470 O.2    80  HIS80      -0.2718
      5  CB        -8.0820    6.3020   15.4260 C.3    80  HIS80       0.0759
      6  CG        -7.7520    6.5540   13.9910 C.ar   80  HIS80       0.0818
      7  ND1       -6.7120    7.3630   13.5990 N.ar   80  HIS80      -0.2268
      8  CD2       -8.4020    6.1940   12.8510 C.ar   80  HIS80       0.1154
      9  CE1       -6.7000    7.4530   12.2750 C.ar   80  HIS80       0.1986
     10  NE2       -7.7200    6.7560   11.7980 N.ar   80  HIS80      -0.2212
     11  N        -10.3100    8.6920   14.4690 N.am   81  GLY81      -0.1942
     12  CA       -11.3850    8.8980   13.4980 C.3    81  GLY81       0.2014
     13  C        -10.8260    9.2220   12.1540 C.2    81  GLY81       0.2640
     14  O         -9.8170    9.9060   12.0390 O.2    81  GLY81      -0.2714
     15  N        -11.4480    8.7160   11.0970 N.am   82  SER82      -0.1936
     16  CA       -10.9800    9.0560    9.7680 C.3    82  SER82       0.2040
     17  C        -11.9160    8.3820    8.7790 C.2    82  SER82       0.2485
     18  O        -12.7440    7.5580    9.1730 O.2    82  SER82      -0.2729
     19  CB        -9.5520    8.5810    9.5320 C.3    82  SER82       0.2129
     20  OG        -9.5250    7.1800    9.3370 O.3    82  SER82      -0.2179
     21  N        -11.8170    8.7660    7.5010 N.am   83  PRO83      -0.2715
     22  CA       -12.6540    8.0840    6.5130 C.3    83  PRO83       0.1536
     23  C        -12.2000    6.6520    6.2680 C.2    83  PRO83       0.2598
     24  O        -12.8930    5.9210    5.5490 O.2    83  PRO83      -0.2715
     25  CB       -12.4510    8.9180    5.2260 C.3    83  PRO83       0.0310
     26  CG       -11.9640   10.2320    5.7180 C.3    83  PRO83       0.0237
     27  CD       -11.0880    9.8950    6.9040 C.3    83  PRO83       0.0939
     28  N        -11.0690    6.2510    6.8490 N.am   84  PHE84      -0.1974
     29  CA       -10.5230    4.8920    6.6630 C.3    84  PHE84       0.1639
     30  C        -11.0670    3.8070    7.6570 C.2    84  PHE84       0.2290
     31  O        -10.5960    2.6480    7.6250 O.2    84  PHE84      -0.2864
     32  CB        -9.0090    4.9160    6.8310 C.3    84  PHE84       0.0560
     33  CG        -8.3080    5.8690    5.9090 C.ar   84  PHE84      -0.0200
     34  CD1       -8.2800    5.6250    4.5460 C.ar   84  PHE84      -0.0042
     35  CD2       -7.6520    6.9800    6.4090 C.ar   84  PHE84      -0.0042
     36  CE1       -7.6310    6.5020    3.6800 C.ar   84  PHE84      -0.0003
     37  CE2       -7.0040    7.8560    5.5600 C.ar   84  PHE84      -0.0003
     38  CZ        -6.9880    7.6180    4.1920 C.ar   84  PHE84      -0.0000
     39  N          0.1360   11.2650    4.7000 N.3   100  ILE100     -0.1231
     40  CA        -0.8550   12.3410    4.8720 C.3   100  ILE100      0.1692
     41  C         -0.4590   13.2390    6.0420 C.2   100  ILE100      0.2593
     42  O         -0.6500   14.4530    6.0030 O.2   100  ILE100     -0.2718
     43  CB        -2.2710   11.7710    5.1070 C.3   100  ILE100      0.0266
     44  CG1       -2.8320   11.2290    3.7960 C.3   100  ILE100      0.0019
     45  CG2       -3.2070   12.8240    5.7150 C.3   100  ILE100      0.0020
     46  CD1       -3.9030   10.1380    3.9780 C.3   100  ILE100      0.0001
     47  N          0.0680   12.6070    7.0830 N.am  101  GLY101     -0.1942
     48  CA         0.6990   13.2870    8.1840 C.3   101  GLY101      0.2014
     49  C         -0.1740   14.2180    8.9870 C.2   101  GLY101      0.2639
     50  O         -1.3720   13.9800    9.2000 O.2   101  GLY101     -0.2714
     51  N          0.4770   15.2690    9.4730 N.am  102  GLY102     -0.1954
     52  CA        -0.1590   16.3000   10.2430 C.3   102  GLY102      0.1869
     53  C          0.9840   17.0020   10.9480 C.2   102  GLY102      0.2309
     54  O          2.1010   17.0130   10.4430 O.2   102  GLY102     -0.2863
     55  N         -2.3010    8.9040   13.5080 N.3   109  TYR109     -0.1227
     56  CA        -2.5980    9.7690   14.6330 C.3   109  TYR109      0.1736
     57  C         -3.7720    9.2590   15.4960 C.2   109  TYR109      0.2595
     58  O         -4.7960    8.7570   14.9790 O.2   109  TYR109     -0.2718
     59  CB        -2.9610   11.1580   14.1260 C.3   109  TYR109      0.0548
     60  CG        -1.7830   11.9760   13.6220 C.ar  109  TYR109     -0.0200
     61  CD1       -1.0510   11.5620   12.4970 C.ar  109  TYR109     -0.0009
     62  CD2       -1.4110   13.1310   14.2790 C.ar  109  TYR109     -0.0009
     63  CE1        0.0110   12.2640   12.0490 C.ar  109  TYR109      0.0417
     64  CE2       -0.3310   13.8440   13.8440 C.ar  109  TYR109      0.0417
     65  CZ         0.3890   13.4120   12.7320 C.ar  109  TYR109      0.1957
     66  OH         1.4910   14.1640   12.3290 O.3   109  TYR109     -0.2866
     67  N         -3.5900    9.4520   16.8030 N.am  110  PHE110     -0.1962
     68  CA        -4.5710    9.0960   17.8370 C.3   110  PHE110      0.1771
     69  C         -4.7540   10.2590   18.8320 C.2   110  PHE110      0.2619
     70  O         -3.8230   11.1030   19.0450 O.2   110  PHE110     -0.2715
     71  CB        -4.0890    7.8390   18.5740 C.3   110  PHE110      0.0574
     72  CG        -3.9900    6.6430   17.7010 C.ar  110  PHE110     -0.0200
     73  CD1       -5.0690    5.7710   17.5660 C.ar  110  PHE110     -0.0042
     74  CD2       -2.8380    6.3790   16.9660 C.ar  110  PHE110     -0.0042
     75  CE1       -4.9680    4.6370   16.7420 C.ar  110  PHE110     -0.0003
     76  CE2       -2.7820    5.3040   16.1080 C.ar  110  PHE110     -0.0003
     77  CZ        -3.8450    4.4320   16.0060 C.ar  110  PHE110     -0.0000
     78  N         -5.9350   10.3140   19.4610 N.am  111  ALA111     -0.1977
     79  CA        -6.2460   11.3720   20.4040 C.3   111  ALA111      0.1597
     80  C         -6.7540   10.8420   21.7230 C.2   111  ALA111      0.2287
     81  O         -7.5350    9.8820   21.7340 O.2   111  ALA111     -0.2864
     82  CB        -7.2980   12.3900   19.8180 C.3   111  ALA111      0.0319
     83  N        -11.4610   15.4800   19.4080 N.3   116  LYS116     -0.1231
     84  CA       -10.3760   15.6570   18.4400 C.3   116  LYS116      0.1693
     85  C        -10.4800   14.6710   17.2870 C.2   116  LYS116      0.2592
     86  O        -10.4760   15.0780   16.1160 O.2   116  LYS116     -0.2718
     87  CB        -8.9710   15.6010   19.1010 C.3   116  LYS116      0.0285
     88  CG        -7.8630   15.7650   18.0890 C.3   116  LYS116      0.0035
     89  CD        -7.8530   17.2890   17.7040 C.3   116  LYS116      0.0206
     90  CE        -7.0830   17.6760   16.5650 C.3   116  LYS116      0.1093
     91  NZ        -7.2210   19.1910   16.5080 N.3   116  LYS116     -0.1314
     92  N        -10.6640   13.3770   17.5930 N.am  117  SER117     -0.1952
     93  CA       -10.8510   12.3800   16.5470 C.3   117  SER117      0.1924
     94  C        -12.1090   12.6410   15.7410 C.2   117  SER117      0.2314
     95  O        -12.1030   12.4060   14.5300 O.2   117  SER117     -0.2863
     96  CB       -10.8680   10.9770   17.1240 C.3   117  SER117      0.2116
     97  OG        -9.5750   10.6300   17.6070 O.3   117  SER117     -0.2180
     98  N        -12.0170   14.4630   12.3700 N.3   120  TYR120     -0.1241
     99  CA       -11.4430   13.8120   11.2190 C.3   120  TYR120      0.1605
    100  C        -12.3380   12.7820   10.5520 C.2   120  TYR120      0.2264
    101  O        -11.9320   12.2080    9.5650 O.2   120  TYR120     -0.2867
    102  CB       -10.1260   13.1650   11.6320 C.3   120  TYR120      0.0534
    103  CG        -9.0700   14.2150   11.8750 C.ar  120  TYR120     -0.0201
    104  CD1       -8.2790   14.6710   10.8500 C.ar  120  TYR120     -0.0009
    105  CD2       -8.8680   14.7420   13.1470 C.ar  120  TYR120     -0.0009
    106  CE1       -7.3110   15.6700   11.0750 C.ar  120  TYR120      0.0417
    107  CE2       -7.8970   15.7360   13.3700 C.ar  120  TYR120      0.0417
    108  CZ        -7.1460   16.1870   12.3400 C.ar  120  TYR120      0.1957
    109  OH        -6.1720   17.1570   12.5760 O.3   120  TYR120     -0.2866
    110  N         -9.7290   15.3690    6.6040 N.3   124  ILE124     -0.1245
    111  CA        -8.9180   16.4340    7.2020 C.3   124  ILE124      0.1561
    112  C         -9.7390   17.7070    7.2210 C.2   124  ILE124      0.2260
    113  O        -10.3850   18.0450    6.2220 O.2   124  ILE124     -0.2867
    114  CB        -7.6450   16.7110    6.3950 C.3   124  ILE124      0.0252
    115  CG1       -6.7520   15.4740    6.2900 C.3   124  ILE124      0.0019
    116  CG2       -6.8400   17.8850    7.0300 C.3   124  ILE124      0.0019
    117  CD1       -6.5070   14.7760    7.5600 C.3   124  ILE124      0.0001
    118  N         -2.1240   14.1740   21.9720 N.3   184  GLU184     -0.1245
    119  CA        -2.2980   13.4340   20.7330 C.3   184  GLU184      0.1567
    120  C         -1.0190   12.6250   20.5440 C.2   184  GLU184      0.2260
    121  O          0.0450   12.9840   21.1040 O.2   184  GLU184     -0.2867
    122  CB        -2.5250   14.4170   19.6000 C.3   184  GLU184      0.0388
    123  CG        -3.7810   15.2670   19.8800 C.3   184  GLU184      0.1160
    124  CD        -3.9440   16.4850   19.0150 C.2   184  GLU184      0.3649
    125  OE1       -3.3630   16.5210   17.9020 O.co2 184  GLU184     -0.2457
    126  OE2       -4.6740   17.4070   19.4820 O.co2 184  GLU184     -0.2457
@<TRIPOS>BOND
     1    36    38   ar
     2    36    34   ar
     3    44    46    1
     4    44    43    1
     5    38    37   ar
     6    34    33   ar
     7    39    40    1
     8    40    43    1
     9    40    41    1
    10    43    45    1
    11    25    26    1
    12    25    22    1
    13    24    23    2
    14    37    35   ar
    15    26    27    1
    16    33    35   ar
    17    33    32    1
    18    42    41    2
    19    41    47   am
    20   113   112    2
    21    23    22    1
    22    23    28   am
    23   115   114    1
    24   115   117    1
    25   114   116    1
    26   114   111    1
    27    22    21    1
    28   110   111    1
    29    29    32    1
    30    29    28    1
    31    29    30    1
    32    27    21    1
    33    47    48    1
    34   111   112    1
    35    21    17   am
    36    31    30    2
    37    48    49    1
    38    17    18    2
    39    17    16    1
    40    49    50    2
    41    49    51   am
    42    20    19    1
    43    51    52    1
    44    19    16    1
    45   101   100    2
    46    16    15    1
    47    52    53    1
    48    54    53    2
    49   100    99    1
    50   104   106   ar
    51   104   103   ar
    52   106   108   ar
    53    15    13   am
    54    99   102    1
    55    99    98    1
    56   102   103    1
    57    10     9   ar
    58    10     8   ar
    59   103   105   ar
    60    14    13    2
    61    63    61   ar
    62    63    65   ar
    63    13    12    1
    64     9     7   ar
    65    66    65    1
    66   108   109    1
    67   108   107   ar
    68    61    60   ar
    69    65    64   ar
    70     8     6   ar
    71   105   107   ar
    72    12    11    1
    73    55    56    1
    74     7     6   ar
    75    60    59    1
    76    60    62   ar
    77    64    62   ar
    78     6     5    1
    79    59    56    1
    80    11     3   am
    81    95    94    2
    82    56    57    1
    83    58    57    2
    84     3     4    2
    85     3     2    1
    86     5     2    1
    87    57    67   am
    88    94    93    1
    89    77    76   ar
    90    77    75   ar
    91     2     1    1
    92    76    74   ar
    93    86    85    2
    94    91    90    1
    95    93    96    1
    96    93    92    1
    97    90    89    1
    98    75    73   ar
    99    67    68    1
   100    74    72   ar
   101    96    97    1
   102    85    92   am
   103    85    84    1
   104    73    72   ar
   105    72    71    1
   106    89    88    1
   107    68    71    1
   108    68    69    1
   109   125   124   ar
   110    88    87    1
   111    84    87    1
   112    84    83    1
   113    69    70    2
   114    69    78   am
   115   124   126   ar
   116   124   123    1
   117    78    79    1
   118   122   123    1
   119   122   119    1
   120    82    79    1
   121    79    80    1
   122   120   119    1
   123   120   121    2
   124   119   118    1
   125    80    81    2
