@<TRIPOS>MOLECULE
tmp/3mhkA00.pdb
 141 142 0 0 0
SMALL
GASTEIGER

@<TRIPOS>ATOM
      1  N        -26.7510   17.6330   -5.7470 N.3    80  HIS80      -0.1226
      2  CA       -26.9960   16.2590   -5.3300 C.3    80  HIS80       0.1752
      3  C        -26.1310   15.9300   -4.1030 C.2    80  HIS80       0.2597
      4  O        -24.9170   16.1170   -4.1240 O.2    80  HIS80      -0.2718
      5  CB       -26.6600   15.3010   -6.4880 C.3    80  HIS80       0.0759
      6  CG       -26.8660   13.8680   -6.1450 C.ar   80  HIS80       0.0818
      7  ND1      -28.1180   13.2810   -6.1280 N.ar   80  HIS80      -0.2268
      8  CD2      -25.9850   12.9080   -5.7580 C.ar   80  HIS80       0.1154
      9  CE1      -27.9870   12.0120   -5.7580 C.ar   80  HIS80       0.1986
     10  NE2      -26.7050   11.7660   -5.5220 N.ar   80  HIS80      -0.2212
     11  N        -26.7590   15.4480   -3.0350 N.am   81  GLY81      -0.1942
     12  CA       -26.0160   14.9950   -1.8430 C.3    81  GLY81       0.2014
     13  C        -26.2080   13.5080   -1.6780 C.2    81  GLY81       0.2640
     14  O        -27.3120   12.9810   -1.8880 O.2    81  GLY81      -0.2714
     15  N        -25.1450   12.8320   -1.2820 N.am   82  SER82      -0.1936
     16  CA       -25.1390   11.3840   -1.2220 C.3    82  SER82       0.2040
     17  C        -23.8770   10.8510   -0.5430 C.2    82  SER82       0.2485
     18  O        -22.8040   11.3920   -0.7550 O.2    82  SER82      -0.2729
     19  CB       -25.2010   10.8520   -2.6650 C.3    82  SER82       0.2129
     20  OG       -24.9700    9.4750   -2.7430 O.3    82  SER82      -0.2179
     21  N        -23.9920    9.7400    0.2250 N.am   83  PRO83      -0.2715
     22  CA       -22.7940    9.0620    0.6890 C.3    83  PRO83       0.1536
     23  C        -21.9530    8.4710   -0.4580 C.2    83  PRO83       0.2598
     24  O        -20.8500    8.0120   -0.2040 O.2    83  PRO83      -0.2715
     25  CB       -23.3320    7.9370    1.5770 C.3    83  PRO83       0.0310
     26  CG       -24.7890    8.1480    1.7020 C.3    83  PRO83       0.0237
     27  CD       -25.2060    8.9720    0.5400 C.3    83  PRO83       0.0939
     28  N        -22.4390    8.5300   -1.7040 N.am   84  PHE84      -0.1974
     29  CA       -21.7860    7.8490   -2.8080 C.3    84  PHE84       0.1639
     30  C        -21.0660    8.7700   -3.7970 C.2    84  PHE84       0.2290
     31  O        -20.7610    8.3830   -4.9440 O.2    84  PHE84      -0.2864
     32  CB       -22.8380    7.0170   -3.5390 C.3    84  PHE84       0.0560
     33  CG       -23.6050    6.0980   -2.6330 C.ar   84  PHE84      -0.0200
     34  CD1      -22.9470    5.1170   -1.9050 C.ar   84  PHE84      -0.0042
     35  CD2      -24.9720    6.2220   -2.4900 C.ar   84  PHE84      -0.0042
     36  CE1      -23.6470    4.2720   -1.0630 C.ar   84  PHE84      -0.0003
     37  CE2      -25.6780    5.3620   -1.6600 C.ar   84  PHE84      -0.0003
     38  CZ       -25.0170    4.4050   -0.9410 C.ar   84  PHE84      -0.0000
     39  N        -27.1650    4.6970   -6.9000 N.3    97  HIS97      -0.1226
     40  CA       -27.3130    6.0800   -6.4610 C.3    97  HIS97       0.1752
     41  C        -28.7480    6.5320   -6.4650 C.2    97  HIS97       0.2596
     42  O        -29.0390    7.6800   -6.1280 O.2    97  HIS97      -0.2718
     43  CB       -26.4530    6.9640   -7.3600 C.3    97  HIS97       0.0759
     44  CG       -25.0650    6.4420   -7.4970 C.ar   97  HIS97       0.0818
     45  ND1      -24.4160    6.3510   -8.7060 N.ar   97  HIS97      -0.2268
     46  CD2      -24.2460    5.8700   -6.5820 C.ar   97  HIS97       0.1154
     47  CE1      -23.2330    5.7890   -8.5200 C.ar   97  HIS97       0.1986
     48  NE2      -23.1040    5.4920   -7.2400 N.ar   97  HIS97      -0.2212
     49  N        -29.6490    5.6250   -6.8280 N.am   98  ALA98      -0.1966
     50  CA       -31.0680    5.9460   -6.8720 C.3    98  ALA98       0.1728
     51  C        -31.6480    5.9900   -5.4590 C.2    98  ALA98       0.2616
     52  O        -31.1790    5.2790   -4.5580 O.2    98  ALA98      -0.2715
     53  CB       -31.8130    4.9260   -7.7360 C.3    98  ALA98       0.0334
     54  N        -32.6520    6.8420   -5.2630 N.am   99  TYR99      -0.1974
     55  CA       -33.3570    6.9130   -3.9880 C.3    99  TYR99       0.1639
     56  C        -34.6540    6.1270   -4.1180 C.2    99  TYR99       0.2290
     57  O        -35.6400    6.6150   -4.7020 O.2    99  TYR99      -0.2864
     58  CB       -33.6300    8.3650   -3.6040 C.3    99  TYR99       0.0560
     59  CG       -34.3760    8.5860   -2.2910 C.ar   99  TYR99      -0.0198
     60  CD1      -34.9450    9.8090   -2.0200 C.ar   99  TYR99      -0.0009
     61  CD2      -34.5120    7.5910   -1.3370 C.ar   99  TYR99      -0.0009
     62  CE1      -35.6260   10.0470   -0.8430 C.ar   99  TYR99       0.0417
     63  CE2      -35.2010    7.8230   -0.1470 C.ar   99  TYR99       0.0417
     64  CZ       -35.7490    9.0550    0.0870 C.ar   99  TYR99       0.1957
     65  OH       -36.4410    9.3300    1.2460 O.3    99  TYR99      -0.2866
     66  N        -32.2890   11.7980   -7.5440 N.3   109  TYR109     -0.1227
     67  CA       -32.9330   13.0220   -7.0760 C.3   109  TYR109      0.1736
     68  C        -31.9510   14.1680   -6.9710 C.2   109  TYR109      0.2595
     69  O        -30.8490   14.0100   -6.4800 O.2   109  TYR109     -0.2718
     70  CB       -33.5910   12.8100   -5.7060 C.3   109  TYR109      0.0548
     71  CG       -34.8600   12.0370   -5.7810 C.ar  109  TYR109     -0.0200
     72  CD1      -36.0880   12.6260   -5.5180 C.ar  109  TYR109     -0.0009
     73  CD2      -34.8410   10.7040   -6.1470 C.ar  109  TYR109     -0.0009
     74  CE1      -37.2670   11.8820   -5.6140 C.ar  109  TYR109      0.0417
     75  CE2      -36.0130    9.9480   -6.2450 C.ar  109  TYR109      0.0417
     76  CZ       -37.2090   10.5310   -5.9880 C.ar  109  TYR109      0.1957
     77  OH       -38.3350    9.7600   -6.1090 O.3   109  TYR109     -0.2866
     78  N        -32.3820   15.3370   -7.4280 N.am  110  PHE110     -0.1962
     79  CA       -31.5720   16.5450   -7.4160 C.3   110  PHE110      0.1771
     80  C        -32.4350   17.6180   -6.7740 C.2   110  PHE110      0.2619
     81  O        -33.6600   17.5270   -6.8250 O.2   110  PHE110     -0.2715
     82  CB       -31.1610   16.9430   -8.8420 C.3   110  PHE110      0.0574
     83  CG       -30.2330   15.9360   -9.5120 C.ar  110  PHE110     -0.0200
     84  CD1      -28.8670   16.0680   -9.4020 C.ar  110  PHE110     -0.0042
     85  CD2      -30.7420   14.8420  -10.2010 C.ar  110  PHE110     -0.0042
     86  CE1      -28.0240   15.1690   -9.9770 C.ar  110  PHE110     -0.0003
     87  CE2      -29.8940   13.9030  -10.7760 C.ar  110  PHE110     -0.0003
     88  CZ       -28.5300   14.0600  -10.6590 C.ar  110  PHE110     -0.0000
     89  N        -31.7950   18.6250   -6.1820 N.am  111  ALA111     -0.1977
     90  CA       -32.4840   19.7730   -5.5870 C.3   111  ALA111      0.1597
     91  C        -31.9650   21.0650   -6.2000 C.2   111  ALA111      0.2287
     92  O        -30.8210   21.1190   -6.6430 O.2   111  ALA111     -0.2864
     93  CB       -32.2410   19.7810   -4.0860 C.3   111  ALA111      0.0319
     94  N        -31.2890   21.2990    0.8570 N.3   116  LYS116     -0.1231
     95  CA       -32.0830   20.0850    0.6690 C.3   116  LYS116      0.1693
     96  C        -31.1810   18.8690    0.3930 C.2   116  LYS116      0.2592
     97  O        -31.3150   17.7970    1.0280 O.2   116  LYS116     -0.2718
     98  CB       -33.1110   20.2930   -0.4340 C.3   116  LYS116      0.0285
     99  CG       -34.1650   19.1740   -0.5400 C.3   116  LYS116      0.0035
    100  CD       -35.3710   19.6070   -1.3450 C.3   116  LYS116      0.0206
    101  CE       -36.4020   18.4700   -1.4280 C.3   116  LYS116      0.1093
    102  NZ       -37.7080   18.8040   -2.0670 N.3   116  LYS116     -0.1314
    103  N        -30.2480   19.0300   -0.5480 N.am  117  SER117     -0.1952
    104  CA       -29.2890   17.9710   -0.7990 C.3   117  SER117      0.1924
    105  C        -28.3600   17.7740    0.3910 C.2   117  SER117      0.2314
    106  O        -27.8610   16.6830    0.5820 O.2   117  SER117     -0.2863
    107  CB       -28.4670   18.2680   -2.0330 C.3   117  SER117      0.2116
    108  OG       -29.2730   18.1920   -3.1860 O.3   117  SER117     -0.2180
    109  N        -28.8620   14.7880    2.6910 N.3   120  TYR120     -0.1241
    110  CA       -28.6770   13.4230    2.2110 C.3   120  TYR120      0.1605
    111  C        -27.2150   13.0430    2.0980 C.2   120  TYR120      0.2264
    112  O        -26.9030   11.9340    1.6670 O.2   120  TYR120     -0.2867
    113  CB       -29.3570   13.2620    0.8480 C.3   120  TYR120      0.0534
    114  CG       -30.8520   13.2740    0.9340 C.ar  120  TYR120     -0.0201
    115  CD1      -31.5600   12.0970    1.1280 C.ar  120  TYR120     -0.0009
    116  CD2      -31.5570   14.4520    0.8310 C.ar  120  TYR120     -0.0009
    117  CE1      -32.9510   12.1120    1.2270 C.ar  120  TYR120      0.0417
    118  CE2      -32.9380   14.4820    0.9200 C.ar  120  TYR120      0.0417
    119  CZ       -33.6430   13.3130    1.1230 C.ar  120  TYR120      0.1957
    120  OH       -35.0420   13.3360    1.2160 O.3   120  TYR120     -0.2866
    121  N        -26.6990   10.3100    4.3380 N.3   123  GLY123     -0.1210
    122  CA       -27.6600    9.2360    4.0950 C.3   123  GLY123      0.1956
    123  C        -29.0630    9.7860    4.1160 C.2   123  GLY123      0.2611
    124  O        -29.2760   10.9840    4.3140 O.2   123  GLY123     -0.2717
    125  N        -30.0180    8.8910    3.9350 N.am  124  ILE124     -0.1979
    126  CA       -31.4310    9.2450    3.9350 C.3   124  ILE124      0.1595
    127  C        -31.8080    9.6740    5.3600 C.2   124  ILE124      0.2287
    128  O        -31.4490    9.0080    6.3180 O.2   124  ILE124     -0.2864
    129  CB       -32.2950    8.0600    3.4280 C.3   124  ILE124      0.0276
    130  CG1      -31.9370    7.7250    1.9730 C.3   124  ILE124      0.0022
    131  CG2      -33.7890    8.3790    3.5510 C.3   124  ILE124      0.0022
    132  CD1      -32.3110    6.2460    1.5480 C.3   124  ILE124      0.0001
    133  N        -37.9180   19.4060   -6.2790 N.3   187  GLU187     -0.1245
    134  CA       -37.1300   18.1770   -6.4270 C.3   187  GLU187      0.1567
    135  C        -37.2150   17.7890   -7.8870 C.2   187  GLU187      0.2260
    136  O        -38.2720   17.9190   -8.4740 O.2   187  GLU187     -0.2867
    137  CB       -37.7930   16.9930   -5.7070 C.3   187  GLU187      0.0388
    138  CG       -37.3580   16.8040   -4.3560 C.3   187  GLU187      0.1160
    139  CD       -38.2330   15.8570   -3.5790 C.2   187  GLU187      0.3649
    140  OE1      -38.7250   14.8490   -4.1460 O.co2 187  GLU187     -0.2457
    141  OE2      -38.3880   16.1320   -2.3690 O.co2 187  GLU187     -0.2457
@<TRIPOS>BOND
     1    87    88   ar
     2    87    85   ar
     3    88    86   ar
     4    85    83   ar
     5    86    84   ar
     6    83    84   ar
     7    83    82    1
     8    82    79    1
     9    45    47   ar
    10    45    44   ar
    11    47    48   ar
    12   136   135    2
    13   135   134    1
    14    53    50    1
    15    66    67    1
    16    44    43    1
    17    44    46   ar
    18    78    79    1
    19    78    68   am
    20    79    80    1
    21    43    40    1
    22    48    46   ar
    23    67    68    1
    24    67    70    1
    25    68    69    2
    26    39    40    1
    27    50    49    1
    28    50    51    1
    29    49    41   am
    30    81    80    2
    31    80    89   am
    32    92    91    2
    33     5     6    1
    34     5     2    1
    35    41    40    1
    36    41    42    2
    37   134   133    1
    38   134   137    1
    39    75    73   ar
    40    75    76   ar
    41    91    90    1
    42    89    90    1
    43    73    71   ar
    44     6     7   ar
    45     6     8   ar
    46     7     9   ar
    47    77    76    1
    48    76    74   ar
    49    71    70    1
    50    71    72   ar
    51     8    10   ar
    52     9    10   ar
    53     1     2    1
    54   137   138    1
    55    74    72   ar
    56    90    93    1
    57    51    54   am
    58    51    52    2
    59     2     3    1
    60    54    55    1
    61    31    30    2
    62    57    56    2
    63   138   139    1
    64   140   139   ar
    65     4     3    2
    66    56    55    1
    67     3    11   am
    68    55    58    1
    69    30    29    1
    70    58    59    1
    71   139   141   ar
    72    32    29    1
    73    32    33    1
    74   108   107    1
    75    11    12    1
    76    29    28    1
    77    20    19    1
    78    19    16    1
    79    33    35   ar
    80    33    34   ar
    81    35    37   ar
    82    59    60   ar
    83    59    61   ar
    84   102   101    1
    85   107   104    1
    86    60    62   ar
    87    34    36   ar
    88    14    13    2
    89    12    13    1
    90    28    23   am
    91    13    15   am
    92    37    38   ar
    93   101   100    1
    94   100    99    1
    95    61    63   ar
    96    15    16    1
    97    16    17    1
    98    36    38   ar
    99    62    64   ar
   100   104   103    1
   101   104   105    1
   102    18    17    2
   103   103    96   am
   104    17    21   am
   105    99    98    1
   106    23    24    2
   107    23    22    1
   108    98    95    1
   109    63    64   ar
   110    64    65    1
   111    21    27    1
   112    21    22    1
   113   105   106    2
   114    96    95    1
   115    96    97    2
   116    27    26    1
   117    95    94    1
   118    22    25    1
   119   116   118   ar
   120   116   114   ar
   121   113   114    1
   122   113   110    1
   123   118   119   ar
   124   114   115   ar
   125   119   120    1
   126   119   117   ar
   127   115   117   ar
   128   132   130    1
   129    25    26    1
   130   112   111    2
   131   130   129    1
   132   111   110    1
   133   110   109    1
   134   129   131    1
   135   129   126    1
   136   126   125    1
   137   126   127    1
   138   125   123   am
   139   122   123    1
   140   122   121    1
   141   123   124    2
   142   127   128    2
