@<TRIPOS>MOLECULE
tmp/3mhlA00.pdb
 157 152 0 0 0
SMALL
GASTEIGER

@<TRIPOS>ATOM
      1  N         -7.9880    0.2760    5.6140 N.3    64  ASN64      -0.1240
      2  CA        -8.8390    1.1870    6.3680 C.3    64  ASN64       0.1653
      3  C         -9.9940    1.6050    5.5190 C.2    64  ASN64       0.2266
      4  O         -9.8110    1.9350    4.3450 O.2    64  ASN64      -0.2867
      5  CB        -8.1650    2.5420    6.7660 C.3    64  ASN64       0.1155
      6  CG        -6.9260    2.3850    7.5500 C.2    64  ASN64       0.2627
      7  OD1       -5.9980    3.2190    7.4350 O.2    64  ASN64      -0.2716
      8  ND2       -6.8590    1.3370    8.3690 N.am   64  ASN64      -0.0877
      9  N        -12.2290    4.8140    5.5670 N.3    66  GLU66      -0.1245
     10  CA       -12.2360    6.1770    6.0880 C.3    66  GLU66       0.1567
     11  C        -13.5810    6.8400    5.8520 C.2    66  GLU66       0.2260
     12  O        -14.2530    6.5600    4.8260 O.2    66  GLU66      -0.2867
     13  CB       -11.1470    6.9130    5.3580 C.3    66  GLU66       0.0388
     14  CG        -9.8230    6.2070    5.5440 C.3    66  GLU66       0.1160
     15  CD        -8.6880    6.5850    4.5520 C.2    66  GLU66       0.3649
     16  OE1       -8.5550    5.8950    3.5060 O.co2  66  GLU66      -0.2457
     17  OE2       -7.8620    7.4850    4.8650 O.co2  66  GLU66      -0.2457
     18  N        -13.6190    8.1670   12.6260 N.3    88  ILE88      -0.1231
     19  CA       -12.7910    8.4950   11.4700 C.3    88  ILE88       0.1692
     20  C        -12.5060    7.3380   10.4990 C.2    88  ILE88       0.2591
     21  O        -12.4050    7.5060    9.2590 O.2    88  ILE88      -0.2718
     22  CB       -11.4510    9.1650   11.9310 C.3    88  ILE88       0.0266
     23  CG1      -10.5640    9.5490   10.7000 C.3    88  ILE88       0.0019
     24  CG2      -10.7400    8.3280   12.9920 C.3    88  ILE88       0.0020
     25  CD1       -9.3330   10.4730   11.1130 C.3    88  ILE88       0.0001
     26  N        -12.3440    6.1200   11.0590 N.am   89  GLN89      -0.1979
     27  CA       -11.9940    5.0000   10.1830 C.3    89  GLN89       0.1601
     28  C        -12.2560    3.7160   10.9580 C.2    89  GLN89       0.2287
     29  O        -12.3920    3.7580   12.1580 O.2    89  GLN89      -0.2864
     30  CB       -10.5000    5.0690    9.6990 C.3    89  GLN89       0.0394
     31  CG        -9.4690    5.0760   10.8140 C.3    89  GLN89       0.0908
     32  CD        -8.6760    3.7030   10.8730 C.2    89  GLN89       0.2608
     33  OE1       -9.2640    2.6720   10.9740 O.2    89  GLN89      -0.2717
     34  NE2       -7.3830    3.7580   10.8990 N.am   89  GLN89      -0.0878
     35  N        -10.7340   -0.5290   10.6960 N.3    91  HIS91      -0.1241
     36  CA        -9.8180   -1.4390   10.0730 C.3    91  HIS91       0.1621
     37  C         -9.9360   -2.7270   10.9040 C.2    91  HIS91       0.2264
     38  O        -10.6140   -2.7730   11.9250 O.2    91  HIS91      -0.2867
     39  CB        -8.3810   -0.8860   10.0670 C.3    91  HIS91       0.0745
     40  CG        -7.8670   -0.6380   11.4400 C.ar   91  HIS91       0.0817
     41  ND1       -8.1230    0.5300   12.1630 N.ar   91  HIS91      -0.2268
     42  CD2       -7.2690   -1.4890   12.2860 C.ar   91  HIS91       0.1154
     43  CE1       -7.5830    0.4030   13.3710 C.ar   91  HIS91       0.1986
     44  NE2       -7.0570   -0.8290   13.4700 N.ar   91  HIS91      -0.2212
     45  N         -7.6420   -6.5010   12.1980 N.3    93  HIS93      -0.1241
     46  CA        -6.3700   -7.2820   12.2940 C.3    93  HIS93       0.1621
     47  C         -6.8400   -8.7020   12.1570 C.2    93  HIS93       0.2264
     48  O         -7.9250   -9.0160   12.6330 O.2    93  HIS93      -0.2867
     49  CB        -5.7650   -7.1120   13.6480 C.3    93  HIS93       0.0745
     50  CG        -5.5150   -5.6700   13.9720 C.ar   93  HIS93       0.0817
     51  ND1       -4.3240   -5.0650   13.6360 N.ar   93  HIS93      -0.2268
     52  CD2       -6.3530   -4.6730   14.3960 C.ar   93  HIS93       0.1154
     53  CE1       -4.3890   -3.7750   13.9870 C.ar   93  HIS93       0.1986
     54  NE2       -5.6240   -3.5050   14.3960 N.ar   93  HIS93      -0.2212
     55  N        -11.6660   -2.6340   14.5490 N.3   116  HIS116     -0.1241
     56  CA       -11.4560   -1.4730   15.3530 C.3   116  HIS116      0.1621
     57  C        -12.1400   -0.3010   14.6890 C.2   116  HIS116      0.2264
     58  O        -11.8470   -0.0200   13.5590 O.2   116  HIS116     -0.2867
     59  CB        -9.9110   -1.2110   15.4500 C.3   116  HIS116      0.0745
     60  CG        -9.2320   -2.1880   16.3740 C.ar  116  HIS116      0.0817
     61  ND1       -7.8730   -2.4350   16.3750 N.ar  116  HIS116     -0.2268
     62  CD2       -9.7530   -2.9600   17.3550 C.ar  116  HIS116      0.1154
     63  CE1       -7.5880   -3.3150   17.3300 C.ar  116  HIS116      0.1986
     64  NE2       -8.7160   -3.6840   17.9050 N.ar  116  HIS116     -0.2212
     65  N        -12.4800    3.4730   15.0680 N.3   118  VAL118     -0.1245
     66  CA       -11.5770    4.4220   15.7190 C.3   118  VAL118      0.1561
     67  C        -12.2510    5.7720   15.7060 C.2   118  VAL118      0.2260
     68  O        -12.6770    6.2510   14.6280 O.2   118  VAL118     -0.2867
     69  CB       -10.2830    4.5780   14.8300 C.3   118  VAL118      0.0252
     70  CG1       -9.2780    5.6140   15.4440 C.3   118  VAL118      0.0019
     71  CG2       -9.5670    3.1850   14.6310 C.3   118  VAL118      0.0019
     72  N         -8.1530   14.5130   14.4070 N.3   127  PHE127     -0.1227
     73  CA        -7.5440   13.2440   14.7700 C.3   127  PHE127      0.1736
     74  C         -6.0860   13.4950   15.0950 C.2   127  PHE127      0.2596
     75  O         -5.5870   12.9970   16.0880 O.2   127  PHE127     -0.2718
     76  CB        -7.6290   12.2080   13.6340 C.3   127  PHE127      0.0547
     77  CG        -6.9420   10.9470   13.9760 C.ar  127  PHE127     -0.0202
     78  CD1       -7.6160    9.9570   14.6680 C.ar  127  PHE127     -0.0042
     79  CD2       -5.5980   10.7480   13.6940 C.ar  127  PHE127     -0.0042
     80  CE1       -6.9700    8.7750   15.0040 C.ar  127  PHE127     -0.0003
     81  CE2       -4.9330    9.5770   14.0750 C.ar  127  PHE127     -0.0003
     82  CZ        -5.6240    8.5970   14.7520 C.ar  127  PHE127     -0.0000
     83  N         -5.3910   14.2470   14.2320 N.am  128  GLY128     -0.1957
     84  CA        -3.9660   14.4510   14.4860 C.3   128  GLY128      0.1869
     85  C         -3.6460   15.0930   15.8250 C.2   128  GLY128      0.2309
     86  O         -2.6190   14.7810   16.4570 O.2   128  GLY128     -0.2863
     87  N         -4.6760   12.3860   19.0090 N.3   131  VAL131     -0.1245
     88  CA        -3.7050   11.2980   19.3340 C.3   131  VAL131      0.1561
     89  C         -2.5820   11.7010   20.2280 C.2   131  VAL131      0.2260
     90  O         -1.9320   10.8470   20.8420 O.2   131  VAL131     -0.2867
     91  CB        -3.0880   10.5410   18.1030 C.3   131  VAL131      0.0252
     92  CG1       -4.1290    9.8370   17.4330 C.3   131  VAL131      0.0019
     93  CG2       -2.2890   11.4740   17.1520 C.3   131  VAL131      0.0019
     94  N        -11.5980    3.6550   20.8810 N.3   139  VAL139     -0.1245
     95  CA       -11.5940    2.6670   19.8210 C.3   139  VAL139      0.1561
     96  C        -12.5160    1.5540   20.2860 C.2   139  VAL139      0.2260
     97  O        -12.3470    1.0420   21.4020 O.2   139  VAL139     -0.2867
     98  CB       -10.2270    2.1020   19.4550 C.3   139  VAL139      0.0252
     99  CG1      -10.4450    1.0600   18.3330 C.3   139  VAL139      0.0019
    100  CG2       -9.2650    3.2360   18.9950 C.3   139  VAL139      0.0019
    101  N         -2.6800    3.0830   20.9090 N.3   194  LEU194     -0.1231
    102  CA        -2.6990    2.5310   19.5640 C.3   194  LEU194      0.1693
    103  C         -2.0200    1.1720   19.6390 C.2   194  LEU194      0.2593
    104  O         -1.0330    1.0100   20.4190 O.2   194  LEU194     -0.2718
    105  CB        -1.9730    3.4310   18.5660 C.3   194  LEU194      0.0284
    106  CG        -2.4410    4.9050   18.5030 C.3   194  LEU194      0.0019
    107  CD1       -1.5680    5.6610   17.5820 C.3   194  LEU194      0.0001
    108  CD2       -3.9010    5.0460   18.0540 C.3   194  LEU194      0.0001
    109  N         -2.4570    0.2190   18.7860 N.am  195  THR195     -0.1939
    110  CA        -1.8040   -1.0810   18.8150 C.3   195  THR195      0.2028
    111  C         -0.7760   -1.2440   17.6940 C.2   195  THR195      0.2643
    112  O         -0.2180   -2.3850   17.4500 O.2   195  THR195     -0.2714
    113  CB        -2.8240   -2.2310   18.6430 C.3   195  THR195      0.1808
    114  OG1       -3.4220   -2.1420   17.3440 O.3   195  THR195     -0.2208
    115  CG2       -3.8080   -2.2470   19.8490 C.3   195  THR195      0.0379
    116  N         -0.6010   -0.1480   16.9550 N.am  196  THR196     -0.1937
    117  CA         0.4650   -0.0540   15.9980 C.3   196  THR196      0.2013
    118  C          1.3060    1.2150   16.2770 C.2   196  THR196      0.2484
    119  O          0.8280    2.1740   16.9010 O.2   196  THR196     -0.2729
    120  CB        -0.0380    0.0580   14.5680 C.3   196  THR196      0.1807
    121  OG1       -0.6480    1.3590   14.3320 O.3   196  THR196     -0.2208
    122  CG2       -1.0030   -1.1180   14.1870 C.3   196  THR196      0.0379
    123  N          2.5470    1.2280   15.7700 N.am  197  PRO197     -0.2715
    124  CA         3.3140    2.4400   15.8200 C.3   197  PRO197      0.1521
    125  C          2.4390    3.5410   15.3220 C.2   197  PRO197      0.2440
    126  O          1.8070    3.3830   14.2820 O.2   197  PRO197     -0.2731
    127  CB         4.4250    2.1570   14.8090 C.3   197  PRO197      0.0310
    128  CG         4.7460    0.7140   15.0650 C.3   197  PRO197      0.0237
    129  CD         3.3150    0.1120   15.1870 C.3   197  PRO197      0.0939
    130  N          2.4570    4.7170   15.9720 N.am  198  PRO198     -0.2727
    131  CA         3.3510    5.2040   17.0550 C.3   198  PRO198      0.1402
    132  C          3.0070    4.7950   18.4300 C.2   198  PRO198      0.2269
    133  O          3.7000    5.1990   19.3520 O.2   198  PRO198     -0.2865
    134  CB         3.2510    6.7460   16.9370 C.3   198  PRO198      0.0296
    135  CG         1.9940    7.0320   16.2840 C.3   198  PRO198      0.0237
    136  CD         1.6020    5.8090   15.4320 C.3   198  PRO198      0.0939
    137  N         -5.7600    6.1310   23.9860 N.3   203  VAL203     -0.1245
    138  CA        -6.9910    5.3920   23.6310 C.3   203  VAL203      0.1561
    139  C         -7.7770    4.9360   24.8570 C.2   203  VAL203      0.2260
    140  O         -7.2190    4.3900   25.8240 O.2   203  VAL203     -0.2867
    141  CB        -6.6550    4.1360   22.7830 C.3   203  VAL203      0.0252
    142  CG1       -7.9510    3.4510   22.3680 C.3   203  VAL203      0.0019
    143  CG2       -5.8880    4.4980   21.5360 C.3   203  VAL203      0.0019
    144  N        -10.1340    2.1850   25.3650 N.3   205  TRP205     -0.1241
    145  CA       -10.5700    0.9920   24.6560 C.3   205  TRP205      0.1605
    146  C        -11.9340    0.5440   25.1370 C.2   205  TRP205      0.2264
    147  O        -12.1410    0.4600   26.3370 O.2   205  TRP205     -0.2867
    148  CB        -9.5900   -0.1810   24.8760 C.3   205  TRP205      0.0550
    149  CG        -8.4760   -0.0140   23.8300 C.ar  205  TRP205      0.0003
    150  CD1       -7.2200    0.5180   24.0510 C.ar  205  TRP205      0.0946
    151  CD2       -8.5100   -0.4630   22.4740 C.ar  205  TRP205      0.0152
    152  NE1       -6.5160    0.5230   22.8480 N.ar  205  TRP205     -0.2442
    153  CE2       -7.2820   -0.0960   21.8790 C.ar  205  TRP205      0.0810
    154  CE3       -9.5150   -1.0530   21.6620 C.ar  205  TRP205      0.0012
    155  CZ2       -7.0090   -0.3250   20.5360 C.ar  205  TRP205      0.0191
    156  CZ3       -9.2360   -1.3040   20.3500 C.ar  205  TRP205      0.0001
    157  CH2       -7.9880   -0.9490   19.7850 C.ar  205  TRP205      0.0015
@<TRIPOS>BOND
     1    16    15   ar
     2     4     3    2
     3    15    17   ar
     4    15    14    1
     5    12    11    2
     6    13    14    1
     7    13    10    1
     8     3     2    1
     9     9    10    1
    10     1     2    1
    11    11    10    1
    12     2     5    1
    13     5     6    1
    14     7     6    2
    15     6     8   am
    16    21    20    2
    17    30    27    1
    18    30    31    1
    19    39    36    1
    20    39    40    1
    21    36    35    1
    22    36    37    1
    23    27    28    1
    24    27    26    1
    25    20    26   am
    26    20    19    1
    27    23    25    1
    28    23    22    1
    29    31    32    1
    30    32    34   am
    31    32    33    2
    32    37    38    2
    33    28    29    2
    34    40    41   ar
    35    40    42   ar
    36    19    22    1
    37    19    18    1
    38    22    24    1
    39    47    46    1
    40    47    48    2
    41    41    43   ar
    42    45    46    1
    43    42    44   ar
    44    46    49    1
    45    43    44   ar
    46    58    57    2
    47    76    77    1
    48    76    73    1
    49    51    50   ar
    50    51    53   ar
    51    49    50    1
    52    79    77   ar
    53    79    81   ar
    54    50    52   ar
    55    77    78   ar
    56    53    54   ar
    57    81    82   ar
    58   122   120    1
    59    83    84    1
    60    83    74   am
    61   126   125    2
    62   121   120    1
    63    54    52   ar
    64    72    73    1
    65    84    85    1
    66    55    56    1
    67   120   117    1
    68    68    67    2
    69    71    69    1
    70    78    80   ar
    71    57    56    1
    72    82    80   ar
    73    73    74    1
    74   127   128    1
    75   127   124    1
    76    69    70    1
    77    69    66    1
    78   128   129    1
    79    65    66    1
    80    74    75    2
    81   129   123    1
    82   125   124    1
    83   125   130   am
    84    56    59    1
    85   136   130    1
    86   136   135    1
    87    59    60    1
    88    67    66    1
    89   123   124    1
    90   123   118   am
    91    85    86    2
    92   130   131    1
    93   117   118    1
    94   117   116    1
    95   118   119    2
    96   135   134    1
    97    60    61   ar
    98    60    62   ar
    99    61    63   ar
   100   134   131    1
   101   116   111   am
   102   131   132    1
   103    93    91    1
   104    63    64   ar
   105   114   113    1
   106    62    64   ar
   107    92    91    1
   108   112   111    2
   109   107   106    1
   110   111   110    1
   111   108   106    1
   112    91    88    1
   113    99    98    1
   114   132   133    2
   115   106   105    1
   116   105   102    1
   117   113   110    1
   118   113   115    1
   119   109   110    1
   120   109   103   am
   121   100    98    1
   122    87    88    1
   123    88    89    1
   124    98    95    1
   125   102   103    1
   126   102   101    1
   127   103   104    2
   128   157   156   ar
   129   157   155   ar
   130    95    96    1
   131    95    94    1
   132    89    90    2
   133    96    97    2
   134   156   154   ar
   135   155   153   ar
   136   143   141    1
   137   154   151   ar
   138   153   151   ar
   139   153   152   ar
   140   142   141    1
   141   151   149   ar
   142   141   138    1
   143   152   150   ar
   144   138   137    1
   145   138   139    1
   146   149   150   ar
   147   149   148    1
   148   145   148    1
   149   145   146    1
   150   145   144    1
   151   139   140    2
   152   146   147    2
