@<TRIPOS>MOLECULE
tmp/3mhmA00.pdb
 165 160 0 0 0
SMALL
GASTEIGER

@<TRIPOS>ATOM
      1  N         -8.2590    0.3850    5.8610 N.3    64  ASN64      -0.1240
      2  CA        -9.1280    1.3430    6.5960 C.3    64  ASN64       0.1653
      3  C        -10.3250    1.7570    5.7770 C.2    64  ASN64       0.2266
      4  O        -10.1540    2.1320    4.6300 O.2    64  ASN64      -0.2867
      5  CB        -8.3880    2.6350    6.9460 C.3    64  ASN64       0.1155
      6  CG        -7.3420    2.4540    7.9950 C.2    64  ASN64       0.2627
      7  OD1       -7.1080    1.3460    8.5350 O.2    64  ASN64      -0.2716
      8  ND2       -6.6530    3.5650    8.2970 N.am   64  ASN64      -0.0877
      9  N        -15.4120   12.9670    8.9290 N.3    69  ASP69      -0.1239
     10  CA       -15.4910   13.2690   10.3750 C.3    69  ASP69       0.1674
     11  C        -15.4360   14.8220   10.5120 C.2    69  ASP69       0.2266
     12  O        -14.9770   15.3070   11.5360 O.2    69  ASP69      -0.2867
     13  CB       -14.2770   12.6250   11.1410 C.3    69  ASP69       0.1410
     14  CG       -12.9220   13.1550   10.6830 C.2    69  ASP69       0.3668
     15  OD1      -12.7780   13.8630    9.6190 O.co2  69  ASP69      -0.2456
     16  OD2      -11.9140   12.9300   11.4010 O.co2  69  ASP69      -0.2456
     17  N        -13.7810    8.1690   12.7380 N.3    88  ILE88      -0.1231
     18  CA       -12.8130    8.5570   11.6470 C.3    88  ILE88       0.1692
     19  C        -12.4970    7.3930   10.7000 C.2    88  ILE88       0.2591
     20  O        -12.5060    7.5540    9.4790 O.2    88  ILE88      -0.2718
     21  CB       -11.5040    9.2190   12.1140 C.3    88  ILE88       0.0266
     22  CG1      -10.6140    9.5490   10.9070 C.3    88  ILE88       0.0019
     23  CG2      -10.7550    8.3980   13.2390 C.3    88  ILE88       0.0020
     24  CD1       -9.4510   10.5790   11.3170 C.3    88  ILE88       0.0001
     25  N        -12.3850    6.1600   11.2570 N.am   89  GLN89      -0.1979
     26  CA       -12.1710    5.0240   10.3530 C.3    89  GLN89       0.1601
     27  C        -12.4000    3.7400   11.1580 C.2    89  GLN89       0.2287
     28  O        -12.3970    3.7790   12.3790 O.2    89  GLN89      -0.2864
     29  CB       -10.7550    4.9710    9.7490 C.3    89  GLN89       0.0394
     30  CG        -9.5960    5.1560   10.7780 C.3    89  GLN89       0.0908
     31  CD        -8.9250    3.8410   11.2310 C.2    89  GLN89       0.2608
     32  OE1       -9.4690    2.7180   11.1560 O.2    89  GLN89      -0.2717
     33  NE2       -7.7850    4.0290   11.9100 N.am   89  GLN89      -0.0878
     34  N        -11.0160   -0.5580   10.9220 N.3    91  HIS91      -0.1241
     35  CA       -10.1410   -1.5390   10.2750 C.3    91  HIS91       0.1621
     36  C        -10.2140   -2.7990   11.1090 C.2    91  HIS91       0.2264
     37  O        -10.8410   -2.8160   12.1870 O.2    91  HIS91      -0.2867
     38  CB        -8.6700   -1.0590   10.1990 C.3    91  HIS91       0.0745
     39  CG        -8.1200   -0.7640   11.5900 C.ar   91  HIS91       0.0817
     40  ND1       -8.3130    0.4520   12.2380 N.ar   91  HIS91      -0.2268
     41  CD2       -7.4940   -1.5740   12.5000 C.ar   91  HIS91       0.1154
     42  CE1       -7.8000    0.3620   13.4670 C.ar   91  HIS91       0.1986
     43  NE2       -7.3170   -0.8620   13.6480 N.ar   91  HIS91      -0.2212
     44  N         -7.9080   -6.5340   12.4930 N.3    93  HIS93      -0.1241
     45  CA        -6.7000   -7.3380   12.6410 C.3    93  HIS93       0.1621
     46  C         -7.1350   -8.8020   12.5340 C.2    93  HIS93       0.2264
     47  O         -8.1850   -9.1850   13.0820 O.2    93  HIS93      -0.2867
     48  CB        -6.0490   -7.0980   14.0290 C.3    93  HIS93       0.0745
     49  CG        -5.7550   -5.6690   14.3090 C.ar   93  HIS93       0.0817
     50  ND1       -4.5050   -5.0980   14.1040 N.ar   93  HIS93      -0.2268
     51  CD2       -6.5870   -4.6560   14.7080 C.ar   93  HIS93       0.1154
     52  CE1       -4.5780   -3.7960   14.4110 C.ar   93  HIS93       0.1986
     53  NE2       -5.8060   -3.5000   14.7550 N.ar   93  HIS93      -0.2212
     54  N        -11.8250   -2.6840   14.8150 N.3   116  HIS116     -0.1241
     55  CA       -11.5880   -1.5140   15.6420 C.3   116  HIS116      0.1621
     56  C        -12.2790   -0.3390   14.9340 C.2   116  HIS116      0.2264
     57  O        -11.8930    0.0270   13.7930 O.2   116  HIS116     -0.2867
     58  CB       -10.1110   -1.2370   15.7260 C.3   116  HIS116      0.0745
     59  CG        -9.4370   -2.1910   16.6380 C.ar  116  HIS116      0.0817
     60  ND1       -8.0740   -2.4350   16.6280 N.ar  116  HIS116     -0.2268
     61  CD2       -9.9670   -3.0140   17.5740 C.ar  116  HIS116      0.1154
     62  CE1       -7.7810   -3.3540   17.5380 C.ar  116  HIS116      0.1986
     63  NE2       -8.9200   -3.7450   18.1270 N.ar  116  HIS116     -0.2212
     64  N        -12.5690    3.4870   15.1880 N.3   118  VAL118     -0.1245
     65  CA       -11.6870    4.4940   15.8370 C.3   118  VAL118      0.1561
     66  C        -12.3860    5.8310   15.8650 C.2   118  VAL118      0.2260
     67  O        -12.8360    6.3010   14.7970 O.2   118  VAL118     -0.2867
     68  CB       -10.3170    4.5870   15.0960 C.3   118  VAL118      0.0252
     69  CG1       -9.4120    5.6600   15.7610 C.3   118  VAL118      0.0019
     70  CG2       -9.6600    3.1960   14.9920 C.3   118  VAL118      0.0019
     71  N         -9.3480   17.8140   16.1260 N.3   126  ASP126     -0.1225
     72  CA        -9.0170   16.9220   15.0300 C.3   126  ASP126      0.1805
     73  C         -8.2850   15.6890   15.5960 C.2   126  ASP126      0.2598
     74  O         -7.8470   15.7120   16.7640 O.2   126  ASP126     -0.2718
     75  CB        -8.2850   17.6330   13.8450 C.3   126  ASP126      0.1424
     76  CG        -6.8790   18.0410   14.1720 C.2   126  ASP126      0.3668
     77  OD1       -6.1560   17.4320   14.9490 O.co2 126  ASP126     -0.2456
     78  OD2       -6.3400   18.9590   13.6250 O.co2 126  ASP126     -0.2456
     79  N         -8.1670   14.6560   14.7540 N.am  127  PHE127     -0.1962
     80  CA        -7.5130   13.4220   15.1720 C.3   127  PHE127      0.1771
     81  C         -6.0990   13.6860   15.5880 C.2   127  PHE127      0.2620
     82  O         -5.6640   13.0790   16.6090 O.2   127  PHE127     -0.2715
     83  CB        -7.6020   12.3860   14.0110 C.3   127  PHE127      0.0574
     84  CG        -6.9950   11.0560   14.3110 C.ar  127  PHE127     -0.0200
     85  CD1       -7.7170   10.0200   14.9720 C.ar  127  PHE127     -0.0042
     86  CD2       -5.6520   10.8540   14.0290 C.ar  127  PHE127     -0.0042
     87  CE1       -7.0900    8.8510   15.2440 C.ar  127  PHE127     -0.0003
     88  CE2       -5.0520    9.6480   14.3250 C.ar  127  PHE127     -0.0003
     89  CZ        -5.7810    8.6460   14.9350 C.ar  127  PHE127     -0.0000
     90  N         -5.3410   14.4680   14.7880 N.am  128  GLY128     -0.1954
     91  CA        -3.9350   14.6210   15.1010 C.3   128  GLY128      0.1869
     92  C         -3.6840   15.2260   16.4680 C.2   128  GLY128      0.2309
     93  O         -2.6620   14.9230   17.1580 O.2   128  GLY128     -0.2863
     94  N         -4.7330   12.5320   19.4240 N.3   131  VAL131     -0.1245
     95  CA        -3.8340   11.4080   19.7990 C.3   131  VAL131      0.1561
     96  C         -2.7430   11.8580   20.8200 C.2   131  VAL131      0.2260
     97  O         -2.0280   11.0110   21.3680 O.2   131  VAL131     -0.2867
     98  CB        -3.1530   10.6580   18.5940 C.3   131  VAL131      0.0252
     99  CG1       -4.1820    9.9650   17.7960 C.3   131  VAL131      0.0019
    100  CG2       -2.2670   11.5540   17.7490 C.3   131  VAL131      0.0019
    101  N         -8.8490    9.4370   22.2660 N.3   137  LEU137     -0.1245
    102  CA        -9.5490    8.4810   21.3520 C.3   137  LEU137      0.1561
    103  C        -10.4160    7.5240   22.1310 C.2   137  LEU137      0.2260
    104  O        -10.1610    7.2750   23.3260 O.2   137  LEU137     -0.2867
    105  CB        -8.5440    7.5790   20.6330 C.3   137  LEU137      0.0270
    106  CG        -7.6590    8.2210   19.6060 C.3   137  LEU137      0.0019
    107  CD1       -6.9230    7.1660   18.7640 C.3   137  LEU137      0.0001
    108  CD2       -8.1870    9.3560   18.7070 C.3   137  LEU137      0.0001
    109  N        -11.7630    3.6850   21.1810 N.3   139  VAL139     -0.1245
    110  CA       -11.7910    2.6550   20.1670 C.3   139  VAL139      0.1561
    111  C        -12.7960    1.5700   20.6270 C.2   139  VAL139      0.2260
    112  O        -12.6540    1.0730   21.7390 O.2   139  VAL139     -0.2867
    113  CB       -10.4020    2.0700   19.8080 C.3   139  VAL139      0.0252
    114  CG1      -10.5360    0.9970   18.6840 C.3   139  VAL139      0.0019
    115  CG2       -9.4200    3.1980   19.3630 C.3   139  VAL139      0.0019
    116  N         -2.9150    3.0730   21.2530 N.3   194  LEU194     -0.1231
    117  CA        -2.9480    2.4890   19.8870 C.3   194  LEU194      0.1693
    118  C         -2.1890    1.1910   19.9160 C.2   194  LEU194      0.2593
    119  O         -1.1540    1.0760   20.6230 O.2   194  LEU194     -0.2718
    120  CB        -2.2820    3.4340   18.9080 C.3   194  LEU194      0.0284
    121  CG        -2.8030    4.8640   18.8350 C.3   194  LEU194      0.0019
    122  CD1       -1.9950    5.7730   17.8180 C.3   194  LEU194      0.0001
    123  CD2       -4.1810    4.8210   18.3540 C.3   194  LEU194      0.0001
    124  N         -2.6330    0.2270   19.1060 N.am  195  THR195     -0.1939
    125  CA        -1.9240   -1.0490   19.0740 C.3   195  THR195      0.2028
    126  C         -0.9260   -1.1430   17.8980 C.2   195  THR195      0.2643
    127  O         -0.2940   -2.2110   17.7040 O.2   195  THR195     -0.2714
    128  CB        -2.9510   -2.1930   18.9520 C.3   195  THR195      0.1808
    129  OG1       -3.5620   -2.1130   17.6750 O.3   195  THR195     -0.2208
    130  CG2       -3.9630   -2.2130   20.1170 C.3   195  THR195      0.0379
    131  N         -0.8300   -0.0650   17.0920 N.am  196  THR196     -0.1937
    132  CA         0.2350   -0.0080   16.1170 C.3   196  THR196      0.2013
    133  C          1.0400    1.2350   16.4100 C.2   196  THR196      0.2484
    134  O          0.5550    2.2320   17.0010 O.2   196  THR196     -0.2729
    135  CB        -0.3570    0.1410   14.6690 C.3   196  THR196      0.1807
    136  OG1       -1.2090    1.3220   14.6290 O.3   196  THR196     -0.2208
    137  CG2       -1.1150   -1.0560   14.2250 C.3   196  THR196      0.0379
    138  N          2.3130    1.2500   15.9590 N.am  197  PRO197     -0.2715
    139  CA         3.1100    2.5430   16.0840 C.3   197  PRO197      0.1521
    140  C          2.2480    3.7120   15.5450 C.2   197  PRO197      0.2440
    141  O          1.6160    3.5770   14.4530 O.2   197  PRO197     -0.2731
    142  CB         4.3290    2.2670   15.1380 C.3   197  PRO197      0.0310
    143  CG         4.5520    0.7440   15.4290 C.3   197  PRO197      0.0237
    144  CD         3.1050    0.1540   15.3720 C.3   197  PRO197      0.0939
    145  N          2.2860    4.8820   16.1820 N.am  198  PRO198     -0.2727
    146  CA         3.2390    5.2590   17.2860 C.3   198  PRO198      0.1402
    147  C          2.8500    4.7990   18.7150 C.2   198  PRO198      0.2269
    148  O          3.4700    5.2330   19.6840 O.2   198  PRO198     -0.2865
    149  CB         3.2660    6.7880   17.1890 C.3   198  PRO198      0.0296
    150  CG         1.8690    7.1690   16.5980 C.3   198  PRO198      0.0237
    151  CD         1.5180    6.0290   15.6490 C.3   198  PRO198      0.0939
    152  N        -10.3640    2.2410   25.7750 N.3   205  TRP205     -0.1241
    153  CA       -10.8310    1.0150   25.0310 C.3   205  TRP205      0.1605
    154  C        -12.2330    0.6200   25.5240 C.2   205  TRP205      0.2264
    155  O        -12.4690    0.5370   26.7660 O.2   205  TRP205     -0.2867
    156  CB        -9.8300   -0.1660   25.2710 C.3   205  TRP205      0.0550
    157  CG        -8.7170   -0.0560   24.3090 C.ar  205  TRP205      0.0003
    158  CD1       -7.4890    0.5670   24.5020 C.ar  205  TRP205      0.0946
    159  CD2       -8.7650   -0.4570   22.9020 C.ar  205  TRP205      0.0152
    160  NE1       -6.7730    0.5210   23.3350 N.ar  205  TRP205     -0.2442
    161  CE2       -7.5260   -0.0950   22.3300 C.ar  205  TRP205      0.0810
    162  CE3       -9.7620   -1.1060   22.0900 C.ar  205  TRP205      0.0012
    163  CZ2       -7.2300   -0.3370   20.9710 C.ar  205  TRP205      0.0191
    164  CZ3       -9.4570   -1.3880   20.7750 C.ar  205  TRP205      0.0001
    165  CH2       -8.1900   -0.9910   20.2270 C.ar  205  TRP205      0.0015
@<TRIPOS>BOND
     1     4     3    2
     2     3     2    1
     3     1     2    1
     4     2     5    1
     5     5     6    1
     6     6     8   am
     7     6     7    2
     8     9    10    1
     9    20    19    2
    10    15    14   ar
    11    29    26    1
    12    29    30    1
    13    38    35    1
    14    38    39    1
    15    35    34    1
    16    35    36    1
    17    26    27    1
    18    26    25    1
    19    10    11    1
    20    10    13    1
    21    11    12    2
    22    14    13    1
    23    14    16   ar
    24    19    25   am
    25    19    18    1
    26    30    31    1
    27    22    24    1
    28    22    21    1
    29    36    37    2
    30    32    31    2
    31    27    28    2
    32    31    33   am
    33    39    40   ar
    34    39    41   ar
    35    18    21    1
    36    18    17    1
    37    21    23    1
    38    40    42   ar
    39    44    45    1
    40    41    43   ar
    41    46    45    1
    42    46    47    2
    43    45    48    1
    44    42    43   ar
    45    78    76   ar
    46    57    56    2
    47    75    76    1
    48    75    72    1
    49    83    84    1
    50    83    80    1
    51    48    49    1
    52    86    84   ar
    53    86    88   ar
    54    50    49   ar
    55    50    52   ar
    56    76    77   ar
    57   137   135    1
    58    49    51   ar
    59    84    85   ar
    60    88    89   ar
    61    52    53   ar
    62   141   140    2
    63   136   135    1
    64   135   132    1
    65    51    53   ar
    66    79    80    1
    67    79    73   am
    68    90    91    1
    69    90    81   am
    70    67    66    2
    71    54    55    1
    72    56    55    1
    73    89    87   ar
    74    85    87   ar
    75    70    68    1
    76    72    73    1
    77    72    71    1
    78    68    69    1
    79    68    65    1
    80    91    92    1
    81   142   143    1
    82   142   139    1
    83    80    81    1
    84    64    65    1
    85   144   143    1
    86   144   138    1
    87   140   139    1
    88   140   145   am
    89    81    82    2
    90    73    74    2
    91    55    58    1
    92   151   145    1
    93   151   150    1
    94    58    59    1
    95    65    66    1
    96   138   139    1
    97   138   133   am
    98   132   133    1
    99   132   131    1
   100   145   146    1
   101   133   134    2
   102    92    93    2
   103   150   149    1
   104    60    59   ar
   105    60    62   ar
   106    59    61   ar
   107   131   126   am
   108   149   146    1
   109   146   147    1
   110    62    63   ar
   111    61    63   ar
   112   129   128    1
   113   127   126    2
   114   100    98    1
   115    99    98    1
   116   122   121    1
   117   126   125    1
   118   123   121    1
   119    98    95    1
   120   114   113    1
   121   108   106    1
   122   147   148    2
   123   107   106    1
   124   121   120    1
   125   120   117    1
   126   128   125    1
   127   128   130    1
   128   125   124    1
   129   124   118   am
   130   115   113    1
   131    94    95    1
   132   106   105    1
   133    95    96    1
   134   113   110    1
   135   117   118    1
   136   117   116    1
   137   118   119    2
   138   110   111    1
   139   110   109    1
   140   165   164   ar
   141   165   163   ar
   142   111   112    2
   143   105   102    1
   144   164   162   ar
   145    96    97    2
   146   163   161   ar
   147   102   103    1
   148   102   101    1
   149   162   159   ar
   150   103   104    2
   151   161   159   ar
   152   161   160   ar
   153   159   157   ar
   154   160   158   ar
   155   157   158   ar
   156   157   156    1
   157   153   156    1
   158   153   154    1
   159   153   152    1
   160   154   155    2
