@<TRIPOS>MOLECULE
tmp/3mhoA01.pdb
 108 104 0 0 0
SMALL
GASTEIGER

@<TRIPOS>ATOM
      1  N          8.3210   -0.3550   10.5070 N.3     2  TRP2       -0.1241
      2  CA         7.6500   -1.3450   11.3410 C.3     2  TRP2        0.1605
      3  C          6.6170   -2.1340   10.5450 C.2     2  TRP2        0.2264
      4  O          6.0620   -1.6420    9.5620 O.2     2  TRP2       -0.2867
      5  CB         6.9990   -0.6790   12.5560 C.3     2  TRP2        0.0550
      6  CG         5.7790    0.1280   12.2310 C.ar    2  TRP2        0.0003
      7  CD1        5.7240    1.4670   11.9420 C.ar    2  TRP2        0.0946
      8  CD2        4.4280   -0.3480   12.1810 C.ar    2  TRP2        0.0152
      9  NE1        4.4290    1.8460   11.7060 N.ar    2  TRP2       -0.2442
     10  CE2        3.6120    0.7540   11.8450 C.ar    2  TRP2        0.0810
     11  CE3        3.8280   -1.6010   12.3850 C.ar    2  TRP2        0.0012
     12  CZ2        2.2270    0.6440   11.7090 C.ar    2  TRP2        0.0191
     13  CZ3        2.4500   -1.7090   12.2440 C.ar    2  TRP2        0.0001
     14  CH2        1.6670   -0.5890   11.9100 C.ar    2  TRP2        0.0015
     15  N          4.6720   -6.4660   10.7670 N.3     4  TYR4       -0.1241
     16  CA         4.2430   -7.6170   11.5530 C.3     4  TYR4        0.1605
     17  C          5.1180   -8.8550   11.3660 C.2     4  TYR4        0.2264
     18  O          4.8200   -9.9130   11.9180 O.2     4  TYR4       -0.2867
     19  CB         2.7780   -7.9350   11.2560 C.3     4  TYR4        0.0534
     20  CG         1.8340   -6.8900   11.7990 C.ar    4  TYR4       -0.0201
     21  CD1        1.4500   -6.9050   13.1410 C.ar    4  TYR4       -0.0009
     22  CD2        1.3300   -5.8860   10.9800 C.ar    4  TYR4       -0.0009
     23  CE1        0.5850   -5.9480   13.6490 C.ar    4  TYR4        0.0417
     24  CE2        0.4670   -4.9250   11.4750 C.ar    4  TYR4        0.0417
     25  CZ         0.0930   -4.9680   12.8080 C.ar    4  TYR4        0.1957
     26  OH        -0.7620   -4.0170   13.2870 O.3     4  TYR4       -0.2866
     27  N         -3.4440    0.2800    3.6640 N.3    59  ASN59      -0.1240
     28  CA        -2.3350    1.1030    4.1360 C.3    59  ASN59       0.1653
     29  C         -1.0390    0.3170    4.3560 C.2    59  ASN59       0.2266
     30  O         -0.0720    0.8430    4.9120 O.2    59  ASN59      -0.2867
     31  CB        -2.7330    1.8890    5.3930 C.3    59  ASN59       0.1155
     32  CG        -2.8810    1.0070    6.6170 C.2    59  ASN59       0.2627
     33  OD1       -2.7250   -0.2120    6.5570 O.2    59  ASN59      -0.2716
     34  ND2       -3.1590    1.6300    7.7490 N.am   59  ASN59      -0.0877
     35  N         -0.7770   -2.2660    6.2760 N.3    61  HIS61      -0.1226
     36  CA        -0.8920   -2.9360    7.5790 C.3    61  HIS61       0.1752
     37  C         -2.2350   -3.6500    7.7010 C.2    61  HIS61       0.2595
     38  O         -2.3020   -4.8160    8.1110 O.2    61  HIS61      -0.2718
     39  CB        -0.7070   -1.9310    8.7160 C.3    61  HIS61       0.0759
     40  CG         0.5820   -1.1830    8.6390 C.ar   61  HIS61       0.0818
     41  ND1        1.8060   -1.7980    8.7880 N.ar   61  HIS61      -0.2268
     42  CD2        0.8410    0.1260    8.4170 C.ar   61  HIS61       0.1154
     43  CE1        2.7640   -0.8960    8.6630 C.ar   61  HIS61       0.1986
     44  NE2        2.2050    0.2800    8.4420 N.ar   61  HIS61      -0.2212
     45  N         -3.2910   -2.9370    7.3270 N.am   62  ALA62      -0.1980
     46  CA        -4.6460   -3.4560    7.2650 C.3    62  ALA62       0.1597
     47  C         -5.3500   -2.6620    6.1680 C.2    62  ALA62       0.2287
     48  O         -4.6900   -2.0550    5.3230 O.2    62  ALA62      -0.2864
     49  CB        -5.3410   -3.2930    8.6170 C.3    62  ALA62       0.0319
     50  N         -8.3810    0.4300    5.8940 N.3    64  ASN64      -0.1240
     51  CA        -9.2180    1.3780    6.6200 C.3    64  ASN64       0.1653
     52  C        -10.4250    1.7660    5.7960 C.2    64  ASN64       0.2266
     53  O        -10.2760    2.1660    4.6430 O.2    64  ASN64      -0.2867
     54  CB        -8.4530    2.6720    6.9250 C.3    64  ASN64       0.1155
     55  CG        -7.3420    2.4860    7.9190 C.2    64  ASN64       0.2627
     56  OD1       -7.2550    1.4690    8.5950 O.2    64  ASN64      -0.2716
     57  ND2       -6.4740    3.4880    8.0160 N.am   64  ASN64      -0.0877
     58  N        -12.5300    6.1810   11.2520 N.3    89  GLN89      -0.1245
     59  CA       -12.2600    5.0190   10.4140 C.3    89  GLN89       0.1566
     60  C        -12.5270    3.7540   11.1840 C.2    89  GLN89       0.2260
     61  O        -12.5500    3.7700   12.4210 O.2    89  GLN89      -0.2867
     62  CB       -10.8080    5.0270    9.9140 C.3    89  GLN89       0.0367
     63  CG        -9.7420    5.1090   11.0080 C.3    89  GLN89       0.0905
     64  CD        -9.0160    3.7960   11.2680 C.2    89  GLN89       0.2608
     65  OE1       -9.5930    2.7170   11.2180 O.2    89  GLN89      -0.2717
     66  NE2       -7.7410    3.8980   11.5840 N.am   89  GLN89      -0.0878
     67  N        -11.1220   -0.5230   10.9170 N.3    91  HIS91      -0.1241
     68  CA       -10.2530   -1.5040   10.2930 C.3    91  HIS91       0.1621
     69  C        -10.3310   -2.7730   11.1240 C.2    91  HIS91       0.2264
     70  O        -10.9590   -2.7910   12.1850 O.2    91  HIS91      -0.2867
     71  CB        -8.8180   -0.9890   10.2700 C.3    91  HIS91       0.0745
     72  CG        -8.2750   -0.7480   11.6360 C.ar   91  HIS91       0.0817
     73  ND1       -8.4310    0.4510   12.2950 N.ar   91  HIS91      -0.2268
     74  CD2       -7.6400   -1.5740   12.5000 C.ar   91  HIS91       0.1154
     75  CE1       -7.8930    0.3600   13.4990 C.ar   91  HIS91       0.1986
     76  NE2       -7.4170   -0.8640   13.6530 N.ar   91  HIS91      -0.2212
     77  N         -8.0280   -6.4970   12.4680 N.3    93  HIS93      -0.1241
     78  CA        -6.8190   -7.2980   12.6280 C.3    93  HIS93       0.1621
     79  C         -7.2580   -8.7440   12.5050 C.2    93  HIS93       0.2264
     80  O         -8.3240   -9.1040   12.9950 O.2    93  HIS93      -0.2867
     81  CB        -6.1820   -7.0600   13.9990 C.3    93  HIS93       0.0745
     82  CG        -5.8910   -5.6230   14.2790 C.ar   93  HIS93       0.0817
     83  ND1       -4.6280   -5.0860   14.1760 N.ar   93  HIS93      -0.2268
     84  CD2       -6.7070   -4.6010   14.6300 C.ar   93  HIS93       0.1154
     85  CE1       -4.6760   -3.7970   14.4680 C.ar   93  HIS93       0.1986
     86  NE2       -5.9280   -3.4750   14.7420 N.ar   93  HIS93      -0.2212
     87  N         -2.6990    0.1880   19.1330 N.3   195  THR195     -0.1203
     88  CA        -2.0600   -1.1270   19.0970 C.3   195  THR195      0.1994
     89  C         -1.0210   -1.2390   17.9860 C.2   195  THR195      0.2618
     90  O         -0.4310   -2.3030   17.7920 O.2   195  THR195     -0.2717
     91  CB        -3.0780   -2.2620   18.9520 C.3   195  THR195      0.1784
     92  OG1       -3.6920   -2.1700   17.6640 O.3   195  THR195     -0.2211
     93  CG2       -4.1410   -2.2170   20.0510 C.3   195  THR195      0.0376
     94  N         -0.8170   -0.1560   17.2420 N.am  196  THR196     -0.1952
     95  CA         0.2890   -0.0860   16.2930 C.3   196  THR196      0.1897
     96  C          1.0910    1.1680   16.5940 C.2   196  THR196      0.2313
     97  O          0.5770    2.1040   17.2120 O.2   196  THR196     -0.2863
     98  CB        -0.1780    0.0140   14.8210 C.3   196  THR196      0.1794
     99  OG1       -0.7640    1.2960   14.5870 O.3   196  THR196     -0.2208
    100  CG2       -1.1510   -1.0730   14.4630 C.3   196  THR196      0.0378
    101  N         -1.7820   -9.6230   11.3550 N.3   240  ASN240     -0.1240
    102  CA        -1.5190   -8.2120   11.5880 C.3   240  ASN240      0.1653
    103  C         -2.0680   -7.7580   12.9430 C.2   240  ASN240      0.2266
    104  O         -2.7460   -6.7310   13.0520 O.2   240  ASN240     -0.2867
    105  CB        -2.0490   -7.3650   10.4230 C.3   240  ASN240      0.1155
    106  CG        -3.5350   -7.5480   10.1850 C.2   240  ASN240      0.2627
    107  OD1       -4.1850   -8.3950   10.7990 O.2   240  ASN240     -0.2716
    108  ND2       -4.0830   -6.7480    9.2890 N.am  240  ASN240     -0.0877
@<TRIPOS>BOND
     1    27    28    1
     2    28    29    1
     3    28    31    1
     4    29    30    2
     5    53    52    2
     6    48    47    2
     7    31    32    1
     8    52    51    1
     9    50    51    1
    10    47    46    1
    11    35    36    1
    12    33    32    2
    13    32    34   am
    14    51    54    1
    15    54    55    1
    16    46    45    1
    17    46    49    1
    18    45    37   am
    19    36    37    1
    20    36    39    1
    21    37    38    2
    22    55    57   am
    23    55    56    2
    24    42    44   ar
    25    42    40   ar
    26    44    43   ar
    27    40    39    1
    28    40    41   ar
    29    43    41   ar
    30   108   106   am
    31     4     3    2
    32    62    59    1
    33    62    63    1
    34   106   105    1
    35   106   107    2
    36    71    68    1
    37    71    72    1
    38    68    67    1
    39    68    69    1
    40    59    60    1
    41    59    58    1
    42   105   102    1
    43     1     2    1
    44     3     2    1
    45    15    16    1
    46    22    24   ar
    47    22    20   ar
    48    63    64    1
    49    69    70    2
    50    60    61    2
    51    65    64    2
    52    19    16    1
    53    19    20    1
    54    64    66   am
    55     2     5    1
    56   101   102    1
    57    17    16    1
    58    17    18    2
    59    24    25   ar
    60   102   103    1
    61    72    73   ar
    62    72    74   ar
    63     9    10   ar
    64     9     7   ar
    65    12    10   ar
    66    12    14   ar
    67    20    21   ar
    68    10     8   ar
    69    14    13   ar
    70     7     6   ar
    71     8     6   ar
    72     8    11   ar
    73     6     5    1
    74    13    11   ar
    75    73    75   ar
    76    77    78    1
    77    74    76   ar
    78    79    78    1
    79    79    80    2
    80    78    81    1
    81    25    26    1
    82    25    23   ar
    83   103   104    2
    84    21    23   ar
    85    75    76   ar
    86    81    82    1
    87    83    82   ar
    88    83    85   ar
    89    82    84   ar
    90   100    98    1
    91    85    86   ar
    92    99    98    1
    93    84    86   ar
    94    98    95    1
    95    95    96    1
    96    95    94    1
    97    96    97    2
    98    94    89   am
    99    92    91    1
   100    90    89    2
   101    89    88    1
   102    91    88    1
   103    91    93    1
   104    88    87    1
