@<TRIPOS>MOLECULE
tmp/3mhoA00.pdb
 169 165 0 0 0
SMALL
GASTEIGER

@<TRIPOS>ATOM
      1  N          8.3210   -0.3550   10.5070 N.3     2  TRP2       -0.1241
      2  CA         7.6500   -1.3450   11.3410 C.3     2  TRP2        0.1605
      3  C          6.6170   -2.1340   10.5450 C.2     2  TRP2        0.2264
      4  O          6.0620   -1.6420    9.5620 O.2     2  TRP2       -0.2867
      5  CB         6.9990   -0.6790   12.5560 C.3     2  TRP2        0.0550
      6  CG         5.7790    0.1280   12.2310 C.ar    2  TRP2        0.0003
      7  CD1        5.7240    1.4670   11.9420 C.ar    2  TRP2        0.0946
      8  CD2        4.4280   -0.3480   12.1810 C.ar    2  TRP2        0.0152
      9  NE1        4.4290    1.8460   11.7060 N.ar    2  TRP2       -0.2442
     10  CE2        3.6120    0.7540   11.8450 C.ar    2  TRP2        0.0810
     11  CE3        3.8280   -1.6010   12.3850 C.ar    2  TRP2        0.0012
     12  CZ2        2.2270    0.6440   11.7090 C.ar    2  TRP2        0.0191
     13  CZ3        2.4500   -1.7090   12.2440 C.ar    2  TRP2        0.0001
     14  CH2        1.6670   -0.5890   11.9100 C.ar    2  TRP2        0.0015
     15  N         -3.4440    0.2800    3.6640 N.3    59  ASN59      -0.1240
     16  CA        -2.3350    1.1030    4.1360 C.3    59  ASN59       0.1653
     17  C         -1.0390    0.3170    4.3560 C.2    59  ASN59       0.2266
     18  O         -0.0720    0.8430    4.9120 O.2    59  ASN59      -0.2867
     19  CB        -2.7330    1.8890    5.3930 C.3    59  ASN59       0.1155
     20  CG        -2.8810    1.0070    6.6170 C.2    59  ASN59       0.2627
     21  OD1       -2.7250   -0.2120    6.5570 O.2    59  ASN59      -0.2716
     22  ND2       -3.1590    1.6300    7.7490 N.am   59  ASN59      -0.0877
     23  N         -0.7770   -2.2660    6.2760 N.3    61  HIS61      -0.1241
     24  CA        -0.8920   -2.9360    7.5790 C.3    61  HIS61       0.1621
     25  C         -2.2350   -3.6500    7.7010 C.2    61  HIS61       0.2264
     26  O         -2.3020   -4.8160    8.1110 O.2    61  HIS61      -0.2867
     27  CB        -0.7070   -1.9310    8.7160 C.3    61  HIS61       0.0745
     28  CG         0.5820   -1.1830    8.6390 C.ar   61  HIS61       0.0817
     29  ND1        1.8060   -1.7980    8.7880 N.ar   61  HIS61      -0.2268
     30  CD2        0.8410    0.1260    8.4170 C.ar   61  HIS61       0.1154
     31  CE1        2.7640   -0.8960    8.6630 C.ar   61  HIS61       0.1986
     32  NE2        2.2050    0.2800    8.4420 N.ar   61  HIS61      -0.2212
     33  N        -12.5300    6.1810   11.2520 N.3    89  GLN89      -0.1245
     34  CA       -12.2600    5.0190   10.4140 C.3    89  GLN89       0.1566
     35  C        -12.5270    3.7540   11.1840 C.2    89  GLN89       0.2260
     36  O        -12.5500    3.7700   12.4210 O.2    89  GLN89      -0.2867
     37  CB       -10.8080    5.0270    9.9140 C.3    89  GLN89       0.0367
     38  CG        -9.7420    5.1090   11.0080 C.3    89  GLN89       0.0905
     39  CD        -9.0160    3.7960   11.2680 C.2    89  GLN89       0.2608
     40  OE1       -9.5930    2.7170   11.2180 O.2    89  GLN89      -0.2717
     41  NE2       -7.7410    3.8980   11.5840 N.am   89  GLN89      -0.0878
     42  N        -11.1220   -0.5230   10.9170 N.3    91  HIS91      -0.1241
     43  CA       -10.2530   -1.5040   10.2930 C.3    91  HIS91       0.1621
     44  C        -10.3310   -2.7730   11.1240 C.2    91  HIS91       0.2264
     45  O        -10.9590   -2.7910   12.1850 O.2    91  HIS91      -0.2867
     46  CB        -8.8180   -0.9890   10.2700 C.3    91  HIS91       0.0745
     47  CG        -8.2750   -0.7480   11.6360 C.ar   91  HIS91       0.0817
     48  ND1       -8.4310    0.4510   12.2950 N.ar   91  HIS91      -0.2268
     49  CD2       -7.6400   -1.5740   12.5000 C.ar   91  HIS91       0.1154
     50  CE1       -7.8930    0.3600   13.4990 C.ar   91  HIS91       0.1986
     51  NE2       -7.4170   -0.8640   13.6530 N.ar   91  HIS91      -0.2212
     52  N         -8.0280   -6.4970   12.4680 N.3    93  HIS93      -0.1241
     53  CA        -6.8190   -7.2980   12.6280 C.3    93  HIS93       0.1621
     54  C         -7.2580   -8.7440   12.5050 C.2    93  HIS93       0.2264
     55  O         -8.3240   -9.1040   12.9950 O.2    93  HIS93      -0.2867
     56  CB        -6.1820   -7.0600   13.9990 C.3    93  HIS93       0.0745
     57  CG        -5.8910   -5.6230   14.2790 C.ar   93  HIS93       0.0817
     58  ND1       -4.6280   -5.0860   14.1760 N.ar   93  HIS93      -0.2268
     59  CD2       -6.7070   -4.6010   14.6300 C.ar   93  HIS93       0.1154
     60  CE1       -4.6760   -3.7970   14.4680 C.ar   93  HIS93       0.1986
     61  NE2       -5.9280   -3.4750   14.7420 N.ar   93  HIS93      -0.2212
     62  N        -11.9730   -2.7060   14.8330 N.3   116  HIS116     -0.1241
     63  CA       -11.7350   -1.4860   15.5960 C.3   116  HIS116      0.1621
     64  C        -12.3990   -0.3140   14.9220 C.2   116  HIS116      0.2264
     65  O        -12.0170    0.0560   13.8120 O.2   116  HIS116     -0.2867
     66  CB       -10.2390   -1.2130   15.7190 C.3   116  HIS116      0.0745
     67  CG        -9.5470   -2.1860   16.6080 C.ar  116  HIS116      0.0817
     68  ND1       -8.1870   -2.4030   16.5800 N.ar  116  HIS116     -0.2268
     69  CD2      -10.0480   -3.0190   17.5500 C.ar  116  HIS116      0.1154
     70  CE1       -7.8800   -3.3230   17.4770 C.ar  116  HIS116      0.1986
     71  NE2       -8.9900   -3.7100   18.0810 N.ar  116  HIS116     -0.2212
     72  N        -12.6900    3.4700   15.2360 N.3   118  VAL118     -0.1245
     73  CA       -11.8330    4.4770   15.8530 C.3   118  VAL118      0.1561
     74  C        -12.5300    5.8280   15.8800 C.2   118  VAL118      0.2260
     75  O        -12.9740    6.3240   14.8410 O.2   118  VAL118     -0.2867
     76  CB       -10.5120    4.5950   15.0720 C.3   118  VAL118      0.0252
     77  CG1       -9.5780    5.6190   15.7120 C.3   118  VAL118      0.0019
     78  CG2       -9.8280    3.2300   14.9480 C.3   118  VAL118      0.0019
     79  N         -8.1970   14.7950   14.8220 N.3   127  PHE127     -0.1241
     80  CA        -7.6160   13.5270   15.2200 C.3   127  PHE127      0.1605
     81  C         -6.1560   13.6670   15.6550 C.2   127  PHE127      0.2264
     82  O         -5.7450   13.0770   16.6520 O.2   127  PHE127     -0.2867
     83  CB        -7.7430   12.5280   14.0710 C.3   127  PHE127      0.0534
     84  CG        -7.1380   11.1960   14.3700 C.ar  127  PHE127     -0.0203
     85  CD1       -7.8880   10.2010   14.9790 C.ar  127  PHE127     -0.0042
     86  CD2       -5.8050   10.9370   14.0670 C.ar  127  PHE127     -0.0042
     87  CE1       -7.3270    8.9650   15.2640 C.ar  127  PHE127     -0.0003
     88  CE2       -5.2420    9.7090   14.3580 C.ar  127  PHE127     -0.0003
     89  CZ        -6.0060    8.7190   14.9580 C.ar  127  PHE127     -0.0000
     90  N         -4.8380   12.4550   19.4850 N.3   131  VAL131     -0.1245
     91  CA        -3.9300   11.3480   19.8340 C.3   131  VAL131      0.1561
     92  C         -2.8330   11.7640   20.8060 C.2   131  VAL131      0.2260
     93  O         -2.1180   10.9180   21.3430 O.2   131  VAL131     -0.2867
     94  CB        -3.2940   10.6470   18.6070 C.3   131  VAL131      0.0252
     95  CG1       -4.3630   10.0110   17.7430 C.3   131  VAL131      0.0019
     96  CG2       -2.4240   11.6090   17.7930 C.3   131  VAL131      0.0019
     97  N         -8.9560    9.4050   22.2270 N.3   137  LEU137     -0.1245
     98  CA        -9.6370    8.4460   21.3640 C.3   137  LEU137      0.1561
     99  C        -10.5060    7.5070   22.1590 C.2   137  LEU137      0.2260
    100  O        -10.2340    7.2180   23.3240 O.2   137  LEU137     -0.2867
    101  CB        -8.6350    7.6040   20.5710 C.3   137  LEU137      0.0270
    102  CG        -7.7110    8.2560   19.5390 C.3   137  LEU137      0.0019
    103  CD1       -7.0640    7.1810   18.6750 C.3   137  LEU137      0.0001
    104  CD2       -8.3650    9.3330   18.6750 C.3   137  LEU137      0.0001
    105  N        -11.8600    3.6680   21.1160 N.3   139  VAL139     -0.1245
    106  CA       -11.9090    2.6250   20.1070 C.3   139  VAL139      0.1561
    107  C        -12.8630    1.5560   20.5820 C.2   139  VAL139      0.2260
    108  O        -12.7360    1.0340   21.6890 O.2   139  VAL139     -0.2867
    109  CB       -10.5220    2.0390   19.7360 C.3   139  VAL139      0.0252
    110  CG1      -10.6630    1.0310   18.6080 C.3   139  VAL139      0.0019
    111  CG2       -9.5610    3.1370   19.3220 C.3   139  VAL139      0.0019
    112  N         -2.9860    3.0190   21.2620 N.3   194  LEU194     -0.1231
    113  CA        -2.9910    2.4710   19.9170 C.3   194  LEU194      0.1693
    114  C         -2.2450    1.1420   19.9400 C.2   194  LEU194      0.2593
    115  O         -1.2510    0.9870   20.6640 O.2   194  LEU194     -0.2718
    116  CB        -2.2670    3.4100   18.9550 C.3   194  LEU194      0.0284
    117  CG        -2.7220    4.8680   18.8990 C.3   194  LEU194      0.0019
    118  CD1       -1.8580    5.6560   17.9330 C.3   194  LEU194      0.0001
    119  CD2       -4.1760    4.9770   18.5150 C.3   194  LEU194      0.0001
    120  N         -2.6990    0.1880   19.1330 N.am  195  THR195     -0.1939
    121  CA        -2.0600   -1.1270   19.0970 C.3   195  THR195      0.2028
    122  C         -1.0210   -1.2390   17.9860 C.2   195  THR195      0.2643
    123  O         -0.4310   -2.3030   17.7920 O.2   195  THR195     -0.2714
    124  CB        -3.0780   -2.2620   18.9520 C.3   195  THR195      0.1808
    125  OG1       -3.6920   -2.1700   17.6640 O.3   195  THR195     -0.2208
    126  CG2       -4.1410   -2.2170   20.0510 C.3   195  THR195      0.0379
    127  N         -0.8170   -0.1560   17.2420 N.am  196  THR196     -0.1937
    128  CA         0.2890   -0.0860   16.2930 C.3   196  THR196      0.2013
    129  C          1.0910    1.1680   16.5940 C.2   196  THR196      0.2484
    130  O          0.5770    2.1040   17.2120 O.2   196  THR196     -0.2729
    131  CB        -0.1780    0.0140   14.8210 C.3   196  THR196      0.1807
    132  OG1       -0.7640    1.2960   14.5870 O.3   196  THR196     -0.2208
    133  CG2       -1.1510   -1.0730   14.4630 C.3   196  THR196      0.0379
    134  N          2.3520    1.2130   16.1370 N.am  197  PRO197     -0.2715
    135  CA         3.0680    2.4790   16.1600 C.3   197  PRO197      0.1521
    136  C          2.1740    3.5840   15.5810 C.2   197  PRO197      0.2440
    137  O          1.4680    3.3530   14.5960 O.2   197  PRO197     -0.2731
    138  CB         4.2770    2.1910   15.2760 C.3   197  PRO197      0.0310
    139  CG         4.5470    0.7370   15.5490 C.3   197  PRO197      0.0237
    140  CD         3.1850    0.1290   15.5800 C.3   197  PRO197      0.0939
    141  N          2.1940    4.7830   16.1850 N.am  198  PRO198     -0.2727
    142  CA         3.0720    5.2400   17.2700 C.3   198  PRO198      0.1402
    143  C          2.7480    4.7910   18.7130 C.2   198  PRO198      0.2269
    144  O          3.4170    5.2510   19.6400 O.2   198  PRO198     -0.2865
    145  CB         2.9860    6.7670   17.1490 C.3   198  PRO198      0.0296
    146  CG         1.6270    7.0190   16.6020 C.3   198  PRO198      0.0237
    147  CD         1.3120    5.8630   15.6960 C.3   198  PRO198      0.0939
    148  N          0.5710    5.3950   20.8940 N.3   200  LEU200     -0.1245
    149  CA         0.2540    6.4820   21.8040 C.3   200  LEU200      0.1561
    150  C         -0.8050    6.0760   22.8170 C.2   200  LEU200      0.2260
    151  O         -1.7710    5.3780   22.4950 O.2   200  LEU200     -0.2867
    152  CB        -0.1960    7.7140   21.0230 C.3   200  LEU200      0.0270
    153  CG         0.8720    8.3240   20.1090 C.3   200  LEU200      0.0019
    154  CD1        0.2650    9.3610   19.1920 C.3   200  LEU200      0.0001
    155  CD2        2.0140    8.9390   20.9150 C.3   200  LEU200      0.0001
    156  N        -10.4600    2.1610   25.6610 N.3   205  TRP205     -0.1241
    157  CA       -10.9040    0.9580   24.9700 C.3   205  TRP205      0.1605
    158  C        -12.2680    0.5330   25.4690 C.2   205  TRP205      0.2264
    159  O        -12.5150    0.4920   26.6750 O.2   205  TRP205     -0.2867
    160  CB        -9.8900   -0.1810   25.1520 C.3   205  TRP205      0.0550
    161  CG        -8.7960   -0.0580   24.1670 C.ar  205  TRP205      0.0003
    162  CD1       -7.5770    0.5210   24.3480 C.ar  205  TRP205      0.0946
    163  CD2       -8.8510   -0.4620   22.8000 C.ar  205  TRP205      0.0152
    164  NE1       -6.8670    0.4970   23.1770 N.ar  205  TRP205     -0.2442
    165  CE2       -7.6240   -0.1040   22.2060 C.ar  205  TRP205      0.0810
    166  CE3       -9.8220   -1.0970   22.0170 C.ar  205  TRP205      0.0012
    167  CZ2       -7.3350   -0.3670   20.8680 C.ar  205  TRP205      0.0191
    168  CZ3       -9.5350   -1.3670   20.6910 C.ar  205  TRP205      0.0001
    169  CH2       -8.3000   -0.9990   20.1280 C.ar  205  TRP205      0.0015
@<TRIPOS>BOND
     1    15    16    1
     2    16    17    1
     3    16    19    1
     4    17    18    2
     5    19    20    1
     6    23    24    1
     7    21    20    2
     8    20    22   am
     9    24    25    1
    10    24    27    1
    11    25    26    2
    12    30    32   ar
    13    30    28   ar
    14    32    31   ar
    15    28    27    1
    16    28    29   ar
    17    31    29   ar
    18     4     3    2
    19    37    34    1
    20    37    38    1
    21    46    43    1
    22    46    47    1
    23    43    42    1
    24    43    44    1
    25    34    35    1
    26    34    33    1
    27     1     2    1
    28     3     2    1
    29    38    39    1
    30    44    45    2
    31    35    36    2
    32    40    39    2
    33    39    41   am
    34     2     5    1
    35    47    48   ar
    36    47    49   ar
    37     9    10   ar
    38     9     7   ar
    39    12    10   ar
    40    12    14   ar
    41    10     8   ar
    42    14    13   ar
    43     7     6   ar
    44     8     6   ar
    45     8    11   ar
    46     6     5    1
    47    13    11   ar
    48    48    50   ar
    49    52    53    1
    50    49    51   ar
    51    54    53    1
    52    54    55    2
    53    53    56    1
    54    50    51   ar
    55    65    64    2
    56    56    57    1
    57    86    88   ar
    58    86    84   ar
    59    83    84    1
    60    83    80    1
    61    58    57   ar
    62    58    60   ar
    63    57    59   ar
    64    88    89   ar
    65    84    85   ar
    66   133   131    1
    67    60    61   ar
    68   132   131    1
    69   137   136    2
    70    59    61   ar
    71   131   128    1
    72    79    80    1
    73    62    63    1
    74    75    74    2
    75    64    63    1
    76    78    76    1
    77    89    87   ar
    78    85    87   ar
    79    76    77    1
    80    76    73    1
    81    80    81    1
    82    72    73    1
    83   138   139    1
    84   138   135    1
    85   139   140    1
    86   140   134    1
    87   136   135    1
    88   136   141   am
    89    63    66    1
    90    81    82    2
    91   147   141    1
    92   147   146    1
    93    66    67    1
    94    73    74    1
    95   134   135    1
    96   134   129   am
    97   141   142    1
    98   128   129    1
    99   128   127    1
   100    68    67   ar
   101    68    70   ar
   102   129   130    2
   103   146   145    1
   104    67    69   ar
   105   145   142    1
   106   127   122   am
   107   142   143    1
   108    70    71   ar
   109    69    71   ar
   110   125   124    1
   111    95    94    1
   112   123   122    2
   113    96    94    1
   114   118   117    1
   115   122   121    1
   116   119   117    1
   117    94    91    1
   118   110   109    1
   119   104   102    1
   120   103   102    1
   121   143   144    2
   122   117   116    1
   123   124   121    1
   124   124   126    1
   125   116   113    1
   126   121   120    1
   127   120   114   am
   128   154   153    1
   129   111   109    1
   130    90    91    1
   131   102   101    1
   132   109   106    1
   133    91    92    1
   134   113   114    1
   135   113   112    1
   136   114   115    2
   137   106   107    1
   138   106   105    1
   139   153   155    1
   140   153   152    1
   141   169   168   ar
   142   169   167   ar
   143   101    98    1
   144   107   108    2
   145   168   166   ar
   146    92    93    2
   147   167   165   ar
   148   148   149    1
   149   152   149    1
   150    98    99    1
   151    98    97    1
   152   149   150    1
   153   166   163   ar
   154    99   100    2
   155   165   163   ar
   156   165   164   ar
   157   151   150    2
   158   163   161   ar
   159   164   162   ar
   160   161   162   ar
   161   161   160    1
   162   157   160    1
   163   157   158    1
   164   157   156    1
   165   158   159    2
