@<TRIPOS>MOLECULE
tmp/3mhrA00.pdb
 146 139 0 0 0
SMALL
GASTEIGER

@<TRIPOS>ATOM
      1  N         25.5740  -12.4320   -2.7900 N.3    53  LYS53      -0.1245
      2  CA        24.4020  -12.1290   -3.6210 C.3    53  LYS53       0.1561
      3  C         24.0300  -10.6790   -3.4670 C.2    53  LYS53       0.2260
      4  O         23.6450  -10.0080   -4.4430 O.2    53  LYS53      -0.2867
      5  CB        23.1610  -12.9740   -3.3240 C.3    53  LYS53       0.0271
      6  CG        22.2550  -13.0150   -4.6610 C.3    53  LYS53       0.0035
      7  CD        21.4090  -14.1650   -4.8450 C.3    53  LYS53       0.0206
      8  CE        20.4700  -13.8720   -5.9860 C.3    53  LYS53       0.1093
      9  NZ        21.2290  -13.0230   -6.9550 N.3    53  LYS53      -0.1314
     10  N         25.1200   -5.2020  -10.0320 N.3    60  ARG60      -0.1245
     11  CA        24.3170   -5.5070  -11.2320 C.3    60  ARG60       0.1563
     12  C         23.2840   -4.4130  -11.4540 C.2    60  ARG60       0.2260
     13  O         23.0780   -3.9560  -12.5870 O.2    60  ARG60      -0.2867
     14  CB        23.6330   -6.8590  -11.0710 C.3    60  ARG60       0.0307
     15  CG        24.5840   -8.0390  -11.0830 C.3    60  ARG60       0.0489
     16  CD        23.9740   -9.3260  -10.5690 C.3    60  ARG60       0.2205
     17  NE        22.9500   -9.8510  -11.4820 N.pl3  60  ARG60      -0.0865
     18  CZ        21.9560  -10.6560  -11.1190 C.cat  60  ARG60       0.5346
     19  NH1       21.6830  -10.8930   -9.8280 N.pl3  60  ARG60       0.1354
     20  NH2       21.1940  -11.1960  -12.0520 N.pl3  60  ARG60       0.1354
     21  N         25.7260  -24.7710   -8.2120 N.3   126  LYS126     -0.1245
     22  CA        24.7330  -23.7430   -8.5430 C.3   126  LYS126      0.1561
     23  C         25.3490  -22.3580   -8.4160 C.2   126  LYS126      0.2260
     24  O         25.1900  -21.5200   -9.2920 O.2   126  LYS126     -0.2867
     25  CB        23.5170  -23.8750   -7.6280 C.3   126  LYS126      0.0271
     26  CG        22.5260  -22.7830   -7.8260 C.3   126  LYS126      0.0035
     27  CD        21.4000  -22.8040   -6.8230 C.3   126  LYS126      0.0206
     28  CE        20.5780  -21.5590   -6.7870 C.3   126  LYS126      0.1093
     29  NZ        21.4250  -20.3920   -6.3170 N.3   126  LYS126     -0.1314
     30  N         27.0600  -16.7720  -14.7320 N.3   133  ARG133     -0.1231
     31  CA        25.9500  -16.0790  -15.3600 C.3   133  ARG133      0.1694
     32  C         26.0590  -14.5710  -15.1780 C.2   133  ARG133      0.2592
     33  O         25.7870  -13.8050  -16.0990 O.2   133  ARG133     -0.2718
     34  CB        24.6250  -16.6370  -14.8490 C.3   133  ARG133      0.0321
     35  CG        23.3970  -15.8480  -15.2850 C.3   133  ARG133      0.0489
     36  CD        22.1050  -16.6080  -15.1040 C.3   133  ARG133      0.2205
     37  NE        21.8420  -17.0210  -13.7190 N.pl3 133  ARG133     -0.0865
     38  CZ        21.2450  -16.2620  -12.8150 C.cat 133  ARG133      0.5346
     39  NH1       20.7310  -15.0860  -13.1210 N.pl3 133  ARG133      0.1354
     40  NH2       21.1720  -16.7190  -11.5750 N.pl3 133  ARG133      0.1354
     41  N         26.4220  -14.1020  -13.9750 N.am  134  TYR134     -0.1976
     42  CA        26.5930  -12.6780  -13.7600 C.3   134  TYR134      0.1639
     43  C         27.7130  -12.1340  -14.6060 C.2   134  TYR134      0.2290
     44  O         27.6150  -11.0050  -15.1730 O.2   134  TYR134     -0.2864
     45  CB        26.7940  -12.3700  -12.2720 C.3   134  TYR134      0.0560
     46  CG        25.7070  -12.9080  -11.3470 C.ar  134  TYR134     -0.0198
     47  CD1       24.4110  -13.0840  -11.7620 C.ar  134  TYR134     -0.0009
     48  CD2       26.0330  -13.2880  -10.0420 C.ar  134  TYR134     -0.0009
     49  CE1       23.4570  -13.6380  -10.9190 C.ar  134  TYR134      0.0417
     50  CE2       25.1050  -13.8450   -9.2090 C.ar  134  TYR134      0.0417
     51  CZ        23.8040  -14.0260   -9.6320 C.ar  134  TYR134      0.1957
     52  OH        22.9150  -14.6190   -8.7680 O.3   134  TYR134     -0.2866
     53  N         15.7750  -24.0820   -6.5530 N.3   175  GLY175     -0.1225
     54  CA        16.4260  -22.8350   -6.8590 C.3   175  GLY175      0.1811
     55  C         17.4390  -22.9610   -8.0060 C.2   175  GLY175      0.2280
     56  O         17.6130  -22.0510   -8.8130 O.2   175  GLY175     -0.2866
     57  N         15.3320  -23.1450  -11.1950 N.3   178  LEU178     -0.1231
     58  CA        14.8960  -21.7840  -11.4420 C.3   178  LEU178      0.1693
     59  C         15.9960  -20.9980  -12.1180 C.2   178  LEU178      0.2592
     60  O         15.7920  -20.3400  -13.1520 O.2   178  LEU178     -0.2718
     61  CB        14.4710  -21.1650  -10.1340 C.3   178  LEU178      0.0284
     62  CG        14.0700  -19.6780  -10.1650 C.3   178  LEU178      0.0019
     63  CD1       12.7940  -19.4190  -10.9370 C.3   178  LEU178      0.0001
     64  CD2       13.8880  -19.1610   -8.7320 C.3   178  LEU178      0.0001
     65  N         17.1860  -21.0070  -11.5500 N.am  179  ASN179     -0.1974
     66  CA        18.2830  -20.1950  -12.0890 C.3   179  ASN179      0.1688
     67  C         18.7760  -20.7140  -13.4210 C.2   179  ASN179      0.2292
     68  O         19.1440  -19.9080  -14.2940 O.2   179  ASN179     -0.2864
     69  CB        19.4160  -20.1090  -11.0920 C.3   179  ASN179      0.1181
     70  CG        19.0990  -19.1910   -9.9330 C.2   179  ASN179      0.2629
     71  OD1       17.9440  -18.7550   -9.8050 O.2   179  ASN179     -0.2716
     72  ND2       20.1030  -18.9210   -9.0910 N.am  179  ASN179     -0.0877
     73  N         16.4380  -19.3370  -15.9320 N.3   182  VAL182     -0.1245
     74  CA        16.7610  -17.9430  -16.2150 C.3   182  VAL182      0.1561
     75  C         17.9640  -17.8400  -17.1290 C.2   182  VAL182      0.2260
     76  O         17.9810  -17.0420  -18.0680 O.2   182  VAL182     -0.2867
     77  CB        16.9580  -17.1690  -14.8760 C.3   182  VAL182      0.0252
     78  CG1       17.5310  -15.7660  -15.1730 C.3   182  VAL182      0.0019
     79  CG2       15.6530  -17.0700  -14.1170 C.3   182  VAL182      0.0019
     80  N         16.8260  -18.4830  -20.6540 N.3   185  TYR185     -0.1227
     81  CA        15.9990  -17.4160  -21.1900 C.3   185  TYR185      0.1736
     82  C         16.7940  -16.1520  -21.5090 C.2   185  TYR185      0.2595
     83  O         16.6730  -15.5320  -22.5640 O.2   185  TYR185     -0.2718
     84  CB        14.8360  -17.0740  -20.2580 C.3   185  TYR185      0.0548
     85  CG        13.7800  -16.2280  -20.8830 C.ar  185  TYR185     -0.0200
     86  CD1       13.8780  -14.8680  -20.9890 C.ar  185  TYR185     -0.0009
     87  CD2       12.6760  -16.8350  -21.4730 C.ar  185  TYR185     -0.0009
     88  CE1       12.8990  -14.1120  -21.5940 C.ar  185  TYR185      0.0417
     89  CE2       11.6770  -16.1050  -22.0950 C.ar  185  TYR185      0.0417
     90  CZ        11.8210  -14.7480  -22.1350 C.ar  185  TYR185      0.1957
     91  OH        10.8210  -13.9650  -22.7400 O.3   185  TYR185     -0.2866
     92  N         17.6210  -15.7470  -20.5560 N.am  186  GLU186     -0.1979
     93  CA        18.2840  -14.4080  -20.5740 C.3   186  GLU186      0.1602
     94  C         19.6810  -14.4520  -21.1680 C.2   186  GLU186      0.2287
     95  O         20.1410  -13.4150  -21.6630 O.2   186  GLU186     -0.2864
     96  CB        18.3580  -13.8200  -19.1800 C.3   186  GLU186      0.0415
     97  CG        17.0430  -13.5330  -18.5630 C.3   186  GLU186      0.1163
     98  CD        17.1150  -12.6670  -17.3180 C.2   186  GLU186      0.3649
     99  OE1       18.2010  -12.6250  -16.6410 O.co2 186  GLU186     -0.2457
    100  OE2       16.0360  -12.1990  -16.9190 O.co2 186  GLU186     -0.2457
    101  N          8.0480  -18.6670   -7.6680 N.3   226  LEU226     -0.1245
    102  CA         8.9540  -17.9600   -8.5670 C.3   226  LEU226      0.1561
    103  C          8.9680  -18.5880   -9.9180 C.2   226  LEU226      0.2260
    104  O          9.0010  -17.8700  -10.9340 O.2   226  LEU226     -0.2867
    105  CB        10.3620  -17.8820   -7.9760 C.3   226  LEU226      0.0270
    106  CG        10.4710  -17.1780   -6.6040 C.3   226  LEU226      0.0019
    107  CD1       11.8750  -17.3580   -6.0320 C.3   226  LEU226      0.0001
    108  CD2       10.0510  -15.7270   -6.7360 C.3   226  LEU226      0.0001
    109  N          5.7970  -17.4330  -11.5050 N.3   229  ASP229     -0.1225
    110  CA         5.8950  -16.0400  -11.9110 C.3   229  ASP229      0.1805
    111  C          6.6780  -15.8760  -13.1890 C.2   229  ASP229      0.2597
    112  O          6.2790  -15.0910  -14.0750 O.2   229  ASP229     -0.2718
    113  CB         6.5840  -15.2080  -10.7900 C.3   229  ASP229      0.1424
    114  CG         5.8340  -15.1200   -9.5220 C.2   229  ASP229      0.3668
    115  OD1        4.6050  -15.2660   -9.5100 O.co2 229  ASP229     -0.2456
    116  OD2        6.5840  -14.8110   -8.4860 O.co2 229  ASP229     -0.2456
    117  N          7.7610  -16.5770  -13.3470 N.am  230  ASN230     -0.1974
    118  CA         8.5240  -16.5000  -14.5910 C.3   230  ASN230      0.1688
    119  C          7.7210  -17.0770  -15.7380 C.2   230  ASN230      0.2292
    120  O          7.7070  -16.5040  -16.8390 O.2   230  ASN230     -0.2864
    121  CB         9.8460  -17.2380  -14.4630 C.3   230  ASN230      0.1181
    122  CG        10.8730  -16.4880  -13.6510 C.2   230  ASN230      0.2629
    123  OD1       10.6550  -15.3000  -13.3600 O.2   230  ASN230     -0.2716
    124  ND2       11.9480  -17.1130  -13.3180 N.am  230  ASN230     -0.0877
    125  N          5.4460  -14.4610  -16.9490 N.3   233  LEU233     -0.1231
    126  CA         6.1590  -13.4360  -17.6720 C.3   233  LEU233      0.1693
    127  C          6.5790  -13.9000  -19.0680 C.2   233  LEU233      0.2592
    128  O          6.6810  -13.0810  -20.0270 O.2   233  LEU233     -0.2718
    129  CB         7.3480  -12.9670  -16.8320 C.3   233  LEU233      0.0284
    130  CG         8.3000  -11.9930  -17.4590 C.3   233  LEU233      0.0019
    131  CD1        7.6240  -10.6590  -17.5190 C.3   233  LEU233      0.0001
    132  CD2        9.5540  -11.9590  -16.5810 C.3   233  LEU233      0.0001
    133  N          6.8280  -15.1720  -19.2580 N.am  234  TRP234     -0.1976
    134  CA         7.3810  -15.7060  -20.4860 C.3   234  TRP234      0.1640
    135  C          6.3600  -16.2920  -21.4560 C.2   234  TRP234      0.2290
    136  O          6.7170  -16.5300  -22.6140 O.2   234  TRP234     -0.2864
    137  CB         8.3750  -16.8550  -20.1340 C.3   234  TRP234      0.0576
    138  CG         9.5970  -16.3940  -19.3890 C.ar  234  TRP234      0.0006
    139  CD1       10.0390  -15.1310  -19.2670 C.ar  234  TRP234      0.0946
    140  CD2       10.4820  -17.2300  -18.6440 C.ar  234  TRP234      0.0152
    141  NE1       11.2080  -15.1340  -18.5190 N.ar  234  TRP234     -0.2442
    142  CE2       11.4810  -16.4140  -18.1260 C.ar  234  TRP234      0.0810
    143  CE3       10.5100  -18.5800  -18.3530 C.ar  234  TRP234      0.0012
    144  CZ2       12.5320  -16.9110  -17.3720 C.ar  234  TRP234      0.0191
    145  CZ3       11.5490  -19.0790  -17.6120 C.ar  234  TRP234      0.0001
    146  CH2       12.5450  -18.2750  -17.1580 C.ar  234  TRP234      0.0015
@<TRIPOS>BOND
     1    91    90    1
     2   136   135    2
     3    83    82    2
     4    90    89   ar
     5    90    88   ar
     6    89    87   ar
     7    95    94    2
     8    88    86   ar
     9    82    81    1
    10    82    92   am
    11    87    85   ar
    12   135   134    1
    13    81    80    1
    14    81    84    1
    15    94    93    1
    16    86    85   ar
    17    85    84    1
    18    93    92    1
    19    93    96    1
    20   134   137    1
    21   134   133    1
    22   137   138    1
    23   128   127    2
    24   138   139   ar
    25   138   140   ar
    26   139   141   ar
    27   133   127   am
    28    96    97    1
    29   127   126    1
    30   140   143   ar
    31   140   142   ar
    32    97    98    1
    33   141   142   ar
    34   143   145   ar
    35   142   144   ar
    36    76    75    2
    37   126   125    1
    38   126   129    1
    39   145   146   ar
    40   131   130    1
    41   130   129    1
    42   130   132    1
    43   144   146   ar
    44    98   100   ar
    45    98    99   ar
    46    75    74    1
    47   120   119    2
    48    74    73    1
    49    74    77    1
    50    33    32    2
    51   119   118    1
    52    31    32    1
    53    31    34    1
    54    31    30    1
    55    35    36    1
    56    35    34    1
    57    32    41   am
    58    44    43    2
    59    78    77    1
    60    36    37    1
    61    77    79    1
    62    43    42    1
    63   118   121    1
    64   118   117    1
    65   121   122    1
    66    68    67    2
    67   112   111    2
    68    41    42    1
    69    42    45    1
    70    37    38    2
    71   122   123    2
    72   122   124   am
    73    67    66    1
    74   117   111   am
    75   111   110    1
    76    60    59    2
    77    39    38    1
    78    38    40    1
    79    13    12    2
    80    45    46    1
    81    59    65   am
    82    59    58    1
    83    66    65    1
    84    66    69    1
    85    20    18    1
    86   110   109    1
    87   110   113    1
    88    47    46   ar
    89    47    49   ar
    90    17    18    2
    91    17    16    1
    92    12    11    1
    93    58    57    1
    94    58    61    1
    95    46    48   ar
    96    11    14    1
    97    11    10    1
    98    18    19    1
    99    69    70    1
   100    15    14    1
   101    15    16    1
   102    63    62    1
   103   104   103    2
   104    49    51   ar
   105   113   114    1
   106    62    61    1
   107    62    64    1
   108    48    50   ar
   109    70    71    2
   110    70    72   am
   111   103   102    1
   112    51    50   ar
   113    51    52    1
   114   114   115   ar
   115   114   116   ar
   116    24    23    2
   117    56    55    2
   118   102   105    1
   119   102   101    1
   120    22    23    1
   121    22    21    1
   122    22    25    1
   123    55    54    1
   124   105   106    1
   125    26    25    1
   126    26    27    1
   127     9     8    1
   128    54    53    1
   129    27    28    1
   130    28    29    1
   131   108   106    1
   132   106   107    1
   133     8     7    1
   134     7     6    1
   135     6     5    1
   136     4     3    2
   137     2     3    1
   138     2     5    1
   139     2     1    1
