@<TRIPOS>MOLECULE
tmp/3mhuB01.pdb
 102 95 0 0 0
SMALL
GASTEIGER

@<TRIPOS>ATOM
      1  N         -0.9060   53.8370   31.3310 N.3    22  ALA22      -0.1245
      2  CA        -1.6820   54.4280   32.3930 C.3    22  ALA22       0.1562
      3  C         -3.0990   53.8580   32.3860 C.2    22  ALA22       0.2260
      4  O         -3.7370   53.7100   31.3420 O.2    22  ALA22      -0.2867
      5  CB        -1.6970   55.9530   32.2740 C.3    22  ALA22       0.0290
      6  N         -2.6170   55.1710   37.7490 N.3    46  LYS46      -0.1231
      7  CA        -3.8440   55.4430   37.0290 C.3    46  LYS46       0.1693
      8  C         -4.0750   56.9420   36.9230 C.2    46  LYS46       0.2592
      9  O         -3.9030   57.6750   37.8820 O.2    46  LYS46      -0.2718
     10  CB        -5.0300   54.7760   37.7630 C.3    46  LYS46       0.0285
     11  CG        -6.3800   55.2950   37.3290 C.3    46  LYS46       0.0035
     12  CD        -6.8030   54.6950   35.9720 C.3    46  LYS46       0.0206
     13  CE        -8.0160   55.3930   35.3830 C.3    46  LYS46       0.1093
     14  NZ        -8.3090   54.7970   34.0130 N.3    46  LYS46      -0.1314
     15  N         -4.4800   57.4020   35.7540 N.am   47  SER47      -0.1952
     16  CA        -4.7810   58.8040   35.5760 C.3    47  SER47       0.1924
     17  C         -5.6980   59.2750   36.6790 C.2    47  SER47       0.2314
     18  O         -6.7390   58.6680   36.9210 O.2    47  SER47      -0.2863
     19  CB        -5.4980   59.0100   34.2460 C.3    47  SER47       0.2116
     20  OG        -4.5760   58.9090   33.2000 O.3    47  SER47      -0.2180
     21  N        -12.7250   49.9370   25.8970 N.3    70  ASN70      -0.1225
     22  CA       -13.1290   50.3440   27.2120 C.3    70  ASN70       0.1785
     23  C        -13.7170   51.7150   27.2040 C.2    70  ASN70       0.2598
     24  O        -13.3670   52.5650   26.3810 O.2    70  ASN70      -0.2718
     25  CB       -11.9390   50.3210   28.1760 C.3    70  ASN70       0.1169
     26  CG       -11.1280   51.6170   28.1220 C.2    70  ASN70       0.2627
     27  OD1      -11.4750   52.5970   28.7810 O.2    70  ASN70      -0.2716
     28  ND2      -10.0680   51.6410   27.2790 N.am   70  ASN70      -0.0877
     29  N        -14.6380   51.9210   28.1330 N.am   71  SER71      -0.1938
     30  CA       -15.0600   53.2400   28.5380 C.3    71  SER71       0.2055
     31  C        -15.0480   53.2580   30.0610 C.2    71  SER71       0.2643
     32  O        -16.1060   53.3110   30.6840 O.2    71  SER71      -0.2714
     33  CB       -16.4810   53.4960   28.0450 C.3    71  SER71       0.2130
     34  OG       -16.9060   54.8070   28.3690 O.3    71  SER71      -0.2179
     35  N        -13.8650   53.1660   30.6650 N.am   72  MET72      -0.1962
     36  CA       -13.7770   53.0710   32.1190 C.3    72  MET72       0.1736
     37  C        -14.4570   54.2260   32.8370 C.2    72  MET72       0.2617
     38  O        -15.0400   54.0300   33.8960 O.2    72  MET72      -0.2715
     39  CB       -12.3100   52.9560   32.5810 C.3    72  MET72       0.0427
     40  CG       -11.5500   51.8230   31.9390 C.3    72  MET72       0.0599
     41  SD       -12.2800   50.1870   32.2920 S.3    72  MET72      -0.1393
     42  CE       -11.8760   50.0010   34.0130 C.3    72  MET72       0.0692
     43  N        -14.3720   55.4280   32.2680 N.am   73  GLY73      -0.1940
     44  CA       -14.8830   56.6360   32.9200 C.3    73  GLY73       0.2014
     45  C        -13.9490   57.2290   33.9640 C.2    73  GLY73       0.2638
     46  O        -14.3960   57.8420   34.9450 O.2    73  GLY73      -0.2714
     47  N        -12.6580   56.9820   33.7980 N.am   74  LEU74      -0.1977
     48  CA       -11.6660   57.5250   34.6990 C.3    74  LEU74       0.1596
     49  C        -11.9050   57.0990   36.1880 C.2    74  LEU74       0.2287
     50  O        -11.8560   57.9250   37.0820 O.2    74  LEU74      -0.2864
     51  CB       -11.6690   59.0460   34.5830 C.3    74  LEU74       0.0297
     52  CG       -10.3250   59.7270   34.3810 C.3    74  LEU74       0.0022
     53  CD1      -10.4760   61.2610   34.4630 C.3    74  LEU74       0.0001
     54  CD2       -9.3090   59.1920   35.3380 C.3    74  LEU74       0.0001
     55  N         -2.2490   63.5390   31.0890 N.3   130  ASN130     -0.1240
     56  CA        -3.1510   62.9480   30.1500 C.3   130  ASN130      0.1653
     57  C         -3.9160   64.0500   29.4340 C.2   130  ASN130      0.2266
     58  O         -4.7550   64.6910   30.0220 O.2   130  ASN130     -0.2867
     59  CB        -4.1200   62.0000   30.8930 C.3   130  ASN130      0.1155
     60  CG        -4.9880   61.1870   29.9520 C.2   130  ASN130      0.2627
     61  OD1       -4.9640   61.3830   28.7440 O.2   130  ASN130     -0.2716
     62  ND2       -5.7510   60.2530   30.5090 N.am  130  ASN130     -0.0877
     63  N         -7.8190   62.1840   27.5920 N.3   133  CYS133     -0.1221
     64  CA        -8.8790   61.5680   28.3600 C.3   133  CYS133      0.1794
     65  C        -10.2060   61.6930   27.6120 C.2   133  CYS133      0.2443
     66  O        -10.5640   62.7850   27.1500 O.2   133  CYS133     -0.2733
     67  CB        -8.9850   62.2250   29.7350 C.3   133  CYS133      0.0970
     68  SG       -10.2000   61.4270   30.7770 S.3   133  CYS133     -0.0800
     69  N        -10.9350   60.5690   27.4720 N.am  134  PRO134     -0.2729
     70  CA       -12.2040   60.6160   26.7500 C.3   134  PRO134      0.1401
     71  C        -13.2260   61.4700   27.5000 C.2   134  PRO134      0.2269
     72  O        -14.3160   60.9890   27.8140 O.2   134  PRO134     -0.2865
     73  CB       -12.6520   59.1460   26.7350 C.3   134  PRO134      0.0296
     74  CG       -12.0460   58.5620   27.9770 C.3   134  PRO134      0.0237
     75  CD       -10.7110   59.2610   28.1250 C.3   134  PRO134      0.0939
     76  N          0.3710   62.5120   27.5050 N.3   161  LYS161     -0.1245
     77  CA        -0.2280   61.3690   26.8820 C.3   161  LYS161      0.1561
     78  C         -1.1680   61.8610   25.8050 C.2   161  LYS161      0.2260
     79  O         -2.1470   62.5590   26.0860 O.2   161  LYS161     -0.2867
     80  CB        -1.0230   60.5800   27.9210 C.3   161  LYS161      0.0271
     81  CG        -1.7620   59.3610   27.3510 C.3   161  LYS161      0.0035
     82  CD        -0.7770   58.2280   27.0640 C.3   161  LYS161      0.0206
     83  CE        -1.4870   56.8930   26.7050 C.3   161  LYS161      0.1093
     84  NZ        -2.0760   56.2660   27.9400 N.3   161  LYS161     -0.1314
     85  N         -2.9120   57.1590   23.3840 N.3   191  ASN191     -0.1225
     86  CA        -4.0520   56.7160   24.1100 C.3   191  ASN191      0.1785
     87  C         -4.8790   55.8580   23.1350 C.2   191  ASN191      0.2597
     88  O         -4.4500   55.5930   22.0100 O.2   191  ASN191     -0.2718
     89  CB        -4.8420   57.9470   24.5710 C.3   191  ASN191      0.1169
     90  CG        -5.5510   57.7230   25.8910 C.2   191  ASN191      0.2627
     91  OD1       -6.1920   56.7000   26.0840 O.2   191  ASN191     -0.2716
     92  ND2       -5.4560   58.7050   26.8020 N.am  191  ASN191     -0.0877
     93  N         -6.0590   55.4400   23.5420 N.am  192  SER192     -0.1952
     94  CA        -6.8700   54.5740   22.7000 C.3   192  SER192      0.1924
     95  C         -7.1820   55.2040   21.3640 C.2   192  SER192      0.2314
     96  O         -7.2440   56.4260   21.2400 O.2   192  SER192     -0.2863
     97  CB        -8.2200   54.3360   23.3670 C.3   192  SER192      0.2116
     98  OG        -8.0450   54.1200   24.7340 O.3   192  SER192     -0.2180
     99  N        -12.7800   53.2260   23.8530 N.3   216  GLY216     -0.1225
    100  CA       -11.4760   53.3570   23.2620 C.3   216  GLY216      0.1811
    101  C        -10.9650   51.9730   22.9140 C.2   216  GLY216      0.2280
    102  O        -11.0980   51.0270   23.6970 O.2   216  GLY216     -0.2866
@<TRIPOS>BOND
     1    96    95    2
     2    95    94    1
     3    88    87    2
     4    94    97    1
     5    94    93    1
     6   101   100    1
     7   101   102    2
     8    87    93   am
     9    87    86    1
    10   100    99    1
    11    97    98    1
    12    85    86    1
    13    86    89    1
    14    89    90    1
    15    78    79    2
    16    78    77    1
    17    90    91    2
    18    90    92   am
    19    21    22    1
    20    24    23    2
    21    83    82    1
    22    83    84    1
    23    73    70    1
    24    73    74    1
    25    70    69    1
    26    70    71    1
    27    77    76    1
    28    77    80    1
    29    82    81    1
    30    66    65    2
    31    23    22    1
    32    23    29   am
    33    22    25    1
    34    28    26   am
    35    81    80    1
    36    69    65   am
    37    69    75    1
    38    71    72    2
    39    63    64    1
    40    65    64    1
    41    74    75    1
    42    33    34    1
    43    33    30    1
    44    26    25    1
    45    26    27    2
    46    29    30    1
    47    64    67    1
    48    30    31    1
    49    61    60    2
    50    57    58    2
    51    57    56    1
    52    67    68    1
    53    60    62   am
    54    60    59    1
    55    31    35   am
    56    31    32    2
    57    56    59    1
    58    56    55    1
    59    35    36    1
    60     1     2    1
    61     4     3    2
    62    40    41    1
    63    40    39    1
    64    36    39    1
    65    36    37    1
    66    43    37   am
    67    43    44    1
    68     5     2    1
    69    41    42    1
    70     3     2    1
    71    37    38    2
    72    44    45    1
    73    20    19    1
    74    47    45   am
    75    47    48    1
    76    45    46    2
    77    14    13    1
    78    19    16    1
    79    52    53    1
    80    52    51    1
    81    52    54    1
    82    51    48    1
    83    48    49    1
    84    13    12    1
    85    16    15    1
    86    16    17    1
    87    15     8   am
    88    12    11    1
    89    49    50    2
    90    17    18    2
    91     8     7    1
    92     8     9    2
    93     7     6    1
    94     7    10    1
    95    11    10    1
