@<TRIPOS>MOLECULE
tmp/3mhwA00.pdb
 129 129 0 0 0
SMALL
GASTEIGER

@<TRIPOS>ATOM
      1  N        -27.2830   -8.3090    4.4170 N.3    46  HIS46      -0.1241
      2  CA       -26.6990   -8.2850    5.7650 C.3    46  HIS46       0.1621
      3  C        -25.2880   -8.8460    5.7870 C.2    46  HIS46       0.2264
      4  O        -24.5050   -8.5420    6.6890 O.2    46  HIS46      -0.2867
      5  CB       -27.6090   -8.9490    6.8090 C.3    46  HIS46       0.0745
      6  CG       -27.4200  -10.4240    6.9420 C.ar   46  HIS46       0.0817
      7  ND1      -28.3340  -11.3330    6.4600 N.ar   46  HIS46      -0.2268
      8  CD2      -26.4560  -11.1460    7.5620 C.ar   46  HIS46       0.1154
      9  CE1      -27.9320  -12.5550    6.7560 C.ar   46  HIS46       0.1986
     10  NE2      -26.7960  -12.4690    7.4290 N.ar   46  HIS46      -0.2212
     11  N        -31.8120  -27.4490    9.8670 N.3   191  ASP191     -0.1225
     12  CA       -32.0590  -26.0130    9.6710 C.3   191  ASP191      0.1805
     13  C        -30.8160  -25.3570    9.0990 C.2   191  ASP191      0.2598
     14  O        -29.7390  -25.9650    9.0810 O.2   191  ASP191     -0.2718
     15  CB       -32.3980  -25.3680   11.0380 C.3   191  ASP191      0.1424
     16  CG       -33.1100  -24.0030   10.9390 C.2   191  ASP191      0.3668
     17  OD1      -33.3740  -23.4570    9.8430 O.co2 191  ASP191     -0.2456
     18  OD2      -33.4160  -23.4650   12.0320 O.co2 191  ASP191     -0.2456
     19  N        -30.9790  -24.1350    8.6130 N.am  192  SER192     -0.1938
     20  CA       -29.8470  -23.2850    8.2910 C.3   192  SER192      0.2055
     21  C        -29.2390  -22.7670    9.5950 C.2   192  SER192      0.2643
     22  O        -29.8850  -22.7680   10.6580 O.2   192  SER192     -0.2714
     23  CB       -30.2990  -22.1310    7.3990 C.3   192  SER192      0.2130
     24  OG       -31.3640  -21.4250    8.0090 O.3   192  SER192     -0.2179
     25  N        -27.9920  -22.3220    9.5290 N.am  193  CYS193     -0.1953
     26  CA       -27.3370  -21.7600   10.7020 C.3   193  CYS193      0.1843
     27  C        -26.3210  -20.7020   10.3040 C.2   193  CYS193      0.2625
     28  O        -26.2140  -20.3600    9.1440 O.2   193  CYS193     -0.2714
     29  CB       -26.7010  -22.8700   11.5530 C.3   193  CYS193      0.0997
     30  SG       -26.5370  -22.3980   13.3350 S.3   193  CYS193     -0.0797
     31  N        -25.6140  -20.1490   11.2890 N.am  194  GLN194     -0.1963
     32  CA       -24.6110  -19.1210   11.0380 C.3   194  GLN194      0.1733
     33  C        -23.6330  -19.5430    9.9450 C.2   194  GLN194      0.2616
     34  O        -23.0850  -20.6470    9.9980 O.2   194  GLN194     -0.2715
     35  CB       -23.8340  -18.8170   12.3230 C.3   194  GLN194      0.0408
     36  CG       -22.7820  -17.7570   12.1220 C.3   194  GLN194      0.0908
     37  CD       -22.0820  -17.3310   13.3980 C.2   194  GLN194      0.2608
     38  OE1      -22.1430  -18.0090   14.4200 O.2   194  GLN194     -0.2717
     39  NE2      -21.4060  -16.1870   13.3360 N.am  194  GLN194     -0.0878
     40  N        -23.4370  -18.6740    8.9520 N.am  195  GLY195     -0.1955
     41  CA       -22.6100  -19.0140    7.8010 C.3   195  GLY195      0.1869
     42  C        -23.3880  -19.4830    6.5770 C.2   195  GLY195      0.2309
     43  O        -22.8180  -19.5250    5.4810 O.2   195  GLY195     -0.2863
     44  N        -26.1110  -17.8190    5.5320 N.3   197  SER197     -0.1217
     45  CA       -26.7910  -16.6400    4.9980 C.3   197  SER197      0.1889
     46  C        -26.4160  -16.3710    3.5560 C.2   197  SER197      0.2288
     47  O        -25.2870  -16.6190    3.1470 O.2   197  SER197     -0.2866
     48  CB       -26.4070  -15.4200    5.8170 C.3   197  SER197      0.2089
     49  OG       -27.0500  -15.4960    7.0610 O.3   197  SER197     -0.2183
     50  N        -31.3730  -17.3980    2.1820 N.3   215  VAL215     -0.1231
     51  CA       -31.2010  -17.5190    3.6340 C.3   215  VAL215      0.1692
     52  C        -30.9550  -16.1410    4.2660 C.2   215  VAL215      0.2593
     53  O        -29.9970  -15.4650    3.9070 O.2   215  VAL215     -0.2718
     54  CB       -30.0220  -18.4760    3.9900 C.3   215  VAL215      0.0266
     55  CG1      -29.8470  -18.5990    5.5100 C.3   215  VAL215      0.0020
     56  CG2      -30.2160  -19.8500    3.3570 C.3   215  VAL215      0.0020
     57  N        -31.7830  -15.7640    5.2430 N.am  216  SER216     -0.1938
     58  CA       -31.7100  -14.4190    5.8160 C.3   216  SER216      0.2055
     59  C        -31.4930  -14.3480    7.3340 C.2   216  SER216      0.2643
     60  O        -30.5130  -13.7610    7.7820 O.2   216  SER216     -0.2714
     61  CB       -32.9350  -13.6100    5.3940 C.3   216  SER216      0.2130
     62  OG       -32.9350  -12.3100    6.0050 O.3   216  SER216     -0.2179
     63  N        -32.3960  -14.9180    8.1250 N.am  217  TRP217     -0.1959
     64  CA       -32.2950  -14.7870    9.5720 C.3   217  TRP217      0.1771
     65  C        -33.0400  -15.8730   10.3310 C.2   217  TRP217      0.2620
     66  O        -33.8160  -16.6340    9.7530 O.2   217  TRP217     -0.2715
     67  CB       -32.7560  -13.3980   10.0400 C.3   217  TRP217      0.0590
     68  CG       -34.2120  -13.0540    9.8150 C.ar  217  TRP217      0.0006
     69  CD1      -34.7600  -12.4940    8.6980 C.ar  217  TRP217      0.0946
     70  CD2      -35.2960  -13.2280   10.7520 C.ar  217  TRP217      0.0152
     71  NE1      -36.1240  -12.3090    8.8720 N.ar  217  TRP217     -0.2442
     72  CE2      -36.4750  -12.7470   10.1230 C.ar  217  TRP217      0.0810
     73  CE3      -35.3820  -13.7320   12.0620 C.ar  217  TRP217      0.0012
     74  CZ2      -37.7250  -12.7660   10.7540 C.ar  217  TRP217      0.0191
     75  CZ3      -36.6210  -13.7450   12.6890 C.ar  217  TRP217      0.0001
     76  CH2      -37.7730  -13.2640   12.0340 C.ar  217  TRP217      0.0015
     77  N        -32.7950  -15.9420   11.6330 N.am  218  GLY218     -0.1954
     78  CA       -33.5740  -16.8310   12.4640 C.3   218  GLY218      0.1869
     79  C        -33.1260  -16.7170   13.8950 C.2   218  GLY218      0.2309
     80  O        -32.0000  -16.2890   14.1530 O.2   218  GLY218     -0.2863
     81  N        -31.4330  -18.4810   16.8090 N.3   220  GLY220     -0.1210
     82  CA       -30.7960  -19.7890   16.9380 C.3   220  GLY220      0.1956
     83  C        -30.9280  -20.6090   15.6680 C.2   220  GLY220      0.2612
     84  O        -31.1470  -20.0660   14.5690 O.2   220  GLY220     -0.2717
     85  N        -30.8080  -21.9250   15.8270 N.am  221  CYS221     -0.1970
     86  CA       -30.8190  -22.8760   14.7150 C.3   221  CYS221      0.1712
     87  C        -31.4470  -24.1730   15.2090 C.2   221  CYS221      0.2296
     88  O        -31.1230  -24.6290   16.3100 O.2   221  CYS221     -0.2864
     89  CB       -29.3810  -23.1580   14.2380 C.3   221  CYS221      0.0983
     90  SG       -28.4000  -21.6510   13.8990 S.3   221  CYS221     -0.0798
     91  N        -38.9840  -21.8830   16.0660 N.3   226  LYS226     -0.1231
     92  CA       -38.1510  -20.8150   15.5430 C.3   226  LYS226      0.1678
     93  C        -37.6310  -21.2220   14.1750 C.2   226  LYS226      0.2439
     94  O        -36.4940  -21.6760   14.0500 O.2   226  LYS226     -0.2733
     95  CB       -37.0020  -20.4660   16.4990 C.3   226  LYS226      0.0284
     96  CG       -37.4650  -20.0910   17.9150 C.3   226  LYS226      0.0035
     97  CD       -38.2710  -18.7920   17.9300 C.3   226  LYS226      0.0206
     98  CE       -39.1870  -18.7850   19.1340 C.3   226  LYS226      0.1093
     99  NZ       -39.9300  -17.5120   19.2080 N.3   226  LYS226     -0.1314
    100  N        -38.4610  -21.0750   13.1310 N.am  227  PRO227     -0.2643
    101  CA       -38.0260  -21.4830   11.7930 C.3   227  PRO227      0.1762
    102  C        -36.8860  -20.6480   11.2120 C.2   227  PRO227      0.2642
    103  O        -36.5850  -19.5670   11.6990 O.2   227  PRO227     -0.2712
    104  CB       -39.2680  -21.2840   10.9160 C.2   227  PRO227     -0.0003
    105  CG       -40.3620  -20.8490   11.7910 C.2   227  PRO227     -0.0071
    106  CD       -39.8890  -20.6950   13.1840 C.3   227  PRO227      0.1204
    107  N        -36.2700  -21.1420   10.1430 N.am  228  GLY228     -0.1938
    108  CA       -35.3990  -20.2800    9.3520 C.3   228  GLY228      0.2014
    109  C        -36.2650  -19.3240    8.5600 C.2   228  GLY228      0.2639
    110  O        -37.3810  -19.6840    8.1640 O.2   228  GLY228     -0.2714
    111  N        -35.7580  -18.1060    8.3510 N.am  229  VAL229     -0.1963
    112  CA       -36.4690  -17.0930    7.5930 C.3   229  VAL229      0.1727
    113  C        -35.6530  -16.7050    6.3780 C.2   229  VAL229      0.2616
    114  O        -34.4300  -16.5760    6.4480 O.2   229  VAL229     -0.2715
    115  CB       -36.8410  -15.8710    8.4550 C.3   229  VAL229      0.0290
    116  CG1      -37.8200  -14.9750    7.6920 C.3   229  VAL229      0.0023
    117  CG2      -37.4670  -16.3330    9.7730 C.3   229  VAL229      0.0023
    118  N        -36.3630  -16.5650    5.2590 N.am  230  TYR230     -0.1974
    119  CA       -35.7870  -16.4320    3.9250 C.3   230  TYR230      0.1639
    120  C        -36.3870  -15.2390    3.2060 C.2   230  TYR230      0.2290
    121  O        -37.5730  -14.9860    3.3270 O.2   230  TYR230     -0.2864
    122  CB       -36.0820  -17.7190    3.1200 C.3   230  TYR230      0.0560
    123  CG       -35.4690  -18.9460    3.7800 C.ar  230  TYR230     -0.0198
    124  CD1      -36.1270  -19.6140    4.8310 C.ar  230  TYR230     -0.0009
    125  CD2      -34.2230  -19.4260    3.3790 C.ar  230  TYR230     -0.0009
    126  CE1      -35.5410  -20.7050    5.4620 C.ar  230  TYR230      0.0417
    127  CE2      -33.6370  -20.5170    4.0080 C.ar  230  TYR230      0.0417
    128  CZ       -34.2920  -21.1400    5.0520 C.ar  230  TYR230      0.1957
    129  OH       -33.6900  -22.2300    5.6690 O.3   230  TYR230     -0.2866
@<TRIPOS>BOND
     1    50    51    1
     2   122   123    1
     3   122   119    1
     4    47    46    2
     5   120   121    2
     6   120   119    1
     7    56    54    1
     8   125   123   ar
     9   125   127   ar
    10    46    45    1
    11    51    54    1
    12    51    52    1
    13   123   124   ar
    14    53    52    2
    15   119   118    1
    16    54    55    1
    17   127   128   ar
    18    52    57   am
    19     1     2    1
    20   124   126   ar
    21    45    44    1
    22    45    48    1
    23   128   126   ar
    24   128   129    1
    25    57    58    1
    26   118   113   am
    27    61    58    1
    28    61    62    1
    29    43    42    2
    30     2     3    1
    31     2     5    1
    32     3     4    2
    33    58    59    1
    34    48    49    1
    35   113   114    2
    36   113   112    1
    37     7     9   ar
    38     7     6   ar
    39    42    41    1
    40     9    10   ar
    41     5     6    1
    42     6     8   ar
    43    59    60    2
    44    59    63   am
    45    23    24    1
    46    23    20    1
    47    10     8   ar
    48   112   111    1
    49   112   115    1
    50   116   115    1
    51    41    40    1
    52    63    64    1
    53   110   109    2
    54    20    19    1
    55    20    21    1
    56   111   109   am
    57   115   117    1
    58   109   108    1
    59    19    13   am
    60    69    71   ar
    61    69    68   ar
    62    71    72   ar
    63    40    33   am
    64    14    13    2
    65    13    12    1
    66    28    27    2
    67   108   107    1
    68    25    21   am
    69    25    26    1
    70    64    67    1
    71    64    65    1
    72    21    22    2
    73    12    11    1
    74    12    15    1
    75    66    65    2
    76    68    67    1
    77    68    70   ar
    78    17    16   ar
    79    33    34    2
    80    33    32    1
    81    72    70   ar
    82    72    74   ar
    83   107   102   am
    84    27    26    1
    85    27    31   am
    86    65    77   am
    87    26    29    1
    88    70    73   ar
    89    74    76   ar
    90   104   105    2
    91   104   101    1
    92    16    15    1
    93    16    18   ar
    94    32    31    1
    95    32    35    1
    96   102   103    2
    97   102   101    1
    98    29    30    1
    99    77    78    1
   100   105   106    1
   101   101   100    1
   102    76    75   ar
   103    73    75   ar
   104    36    35    1
   105    36    37    1
   106    78    79    1
   107   100   106    1
   108   100    93   am
   109    30    90    1
   110    39    37   am
   111    37    38    2
   112    79    80    2
   113    90    89    1
   114    94    93    2
   115    93    92    1
   116    89    86    1
   117    84    83    2
   118    86    87    1
   119    86    85    1
   120    87    88    2
   121    92    91    1
   122    92    95    1
   123    83    85   am
   124    83    82    1
   125    95    96    1
   126    81    82    1
   127    96    97    1
   128    97    98    1
   129    98    99    1
