@<TRIPOS>MOLECULE
tmp/3mhyB00.pdb
 127 124 0 0 0
SMALL
GASTEIGER

@<TRIPOS>ATOM
      1  N        -18.0650    8.4410   21.5690 N.3     7  ILE7       -0.1245
      2  CA       -18.6250    7.9430   20.3170 C.3     7  ILE7        0.1561
      3  C        -19.8950    7.1670   20.6460 C.2     7  ILE7        0.2260
      4  O        -19.8430    6.1390   21.3220 O.2     7  ILE7       -0.2867
      5  CB       -17.6450    7.0200   19.5740 C.3     7  ILE7        0.0252
      6  CG1      -16.2560    7.6600   19.4980 C.3     7  ILE7        0.0019
      7  CG2      -18.1650    6.7200   18.1790 C.3     7  ILE7        0.0019
      8  CD1      -16.2260    8.9780   18.7580 C.3     7  ILE7        0.0001
      9  N        -19.0870   10.5560   12.2550 N.3    33  VAL33      -0.1231
     10  CA       -17.9700    9.6540   12.0620 C.3    33  VAL33       0.1692
     11  C        -18.5250    8.2830   11.7330 C.2    33  VAL33       0.2592
     12  O        -19.7340    8.0910   11.7190 O.2    33  VAL33      -0.2718
     13  CB       -17.0760    9.5770   13.3220 C.3    33  VAL33       0.0266
     14  CG1      -16.5860   10.9720   13.7110 C.3    33  VAL33       0.0020
     15  CG2      -17.8260    8.9360   14.4840 C.3    33  VAL33       0.0020
     16  N        -17.6330    7.3440   11.4550 N.am   34  LYS34      -0.1966
     17  CA       -18.0020    5.9480   11.3150 C.3    34  LYS34       0.1728
     18  C        -17.0160    5.1800   12.1710 C.2    34  LYS34       0.2617
     19  O        -15.9340    5.6780   12.4700 O.2    34  LYS34      -0.2715
     20  CB       -17.9080    5.4950    9.8550 C.3    34  LYS34       0.0311
     21  CG       -18.8690    6.2030    8.9230 C.3    34  LYS34       0.0038
     22  CD       -18.6710    5.7420    7.4900 C.3    34  LYS34       0.0206
     23  CE       -19.5570    6.5210    6.5340 C.3    34  LYS34       0.1093
     24  NZ       -19.0160    6.5190    5.1500 N.3    34  LYS34      -0.1314
     25  N        -17.3700    3.9690   12.5670 N.am   35  GLY35      -0.1940
     26  CA       -16.4600    3.1880   13.3710 C.3    35  GLY35       0.2014
     27  C        -16.8680    1.7550   13.5640 C.2    35  GLY35       0.2639
     28  O        -17.9320    1.3250   13.1380 O.2    35  GLY35      -0.2714
     29  N        -15.9910    1.0110   14.2150 N.am   36  PHE36      -0.1959
     30  CA       -16.3510   -0.2860   14.7430 C.3    36  PHE36       0.1771
     31  C        -15.6520   -0.4670   16.0830 C.2    36  PHE36       0.2620
     32  O        -14.6860    0.2440   16.4020 O.2    36  PHE36      -0.2715
     33  CB       -16.0130   -1.4150   13.7570 C.3    36  PHE36       0.0574
     34  CG       -14.5590   -1.5130   13.4030 C.ar   36  PHE36      -0.0200
     35  CD1      -13.6610   -2.1370   14.2520 C.ar   36  PHE36      -0.0042
     36  CD2      -14.0980   -1.0210   12.1940 C.ar   36  PHE36      -0.0042
     37  CE1      -12.3170   -2.2320   13.9170 C.ar   36  PHE36      -0.0003
     38  CE2      -12.7620   -1.1110   11.8530 C.ar   36  PHE36      -0.0003
     39  CZ       -11.8700   -1.7210   12.7150 C.ar   36  PHE36      -0.0000
     40  N        -16.1810   -1.3910   16.8760 N.am   37  GLY37      -0.1940
     41  CA       -15.5670   -1.8020   18.1200 C.3    37  GLY37       0.2014
     42  C        -15.1760   -3.2630   18.0290 C.2    37  GLY37       0.2639
     43  O        -14.8330   -3.7550   16.9570 O.2    37  GLY37      -0.2714
     44  N        -15.2400   -3.9700   19.1490 N.am   38  ARG38      -0.1963
     45  CA       -14.7200   -5.3330   19.1930 C.3    38  ARG38       0.1729
     46  C        -15.5850   -6.3530   18.4410 C.2    38  ARG38       0.2616
     47  O        -15.1550   -7.4810   18.2240 O.2    38  ARG38      -0.2715
     48  CB       -14.4750   -5.7750   20.6410 C.3    38  ARG38       0.0348
     49  CG       -15.7100   -5.8530   21.5110 C.3    38  ARG38       0.0492
     50  CD       -15.3000   -5.9890   22.9650 C.3    38  ARG38       0.2205
     51  NE       -16.4250   -5.8360   23.8790 N.pl3  38  ARG38      -0.0865
     52  CZ       -16.3890   -6.1460   25.1710 C.cat  38  ARG38       0.5346
     53  NH1      -15.2840   -6.6460   25.7070 N.pl3  38  ARG38       0.1354
     54  NH2      -17.4680   -5.9680   25.9220 N.pl3  38  ARG38       0.1354
     55  N        -16.7910   -5.9630   18.0360 N.am   39  GLN39      -0.1977
     56  CA       -17.6190   -6.8260   17.1880 C.3    39  GLN39       0.1601
     57  C        -17.4120   -6.5320   15.7010 C.2    39  GLN39       0.2287
     58  O        -18.0700   -7.1210   14.8470 O.2    39  GLN39      -0.2864
     59  CB       -19.1000   -6.7150   17.5590 C.3    39  GLN39       0.0394
     60  CG       -19.4270   -7.2770   18.9370 C.3    39  GLN39       0.0908
     61  CD       -19.1960   -6.2660   20.0390 C.2    39  GLN39       0.2608
     62  OE1      -19.0160   -5.0760   19.7760 O.2    39  GLN39      -0.2717
     63  NE2      -19.2100   -6.7300   21.2800 N.am   39  GLN39      -0.0878
     64  N        -21.7330    6.7350   13.3840 N.3    58  LYS58      -0.1245
     65  CA       -21.7490    7.1250   14.7860 C.3    58  LYS58       0.1561
     66  C        -21.6880    8.6360   14.8650 C.2    58  LYS58       0.2260
     67  O        -21.4500    9.3100   13.8680 O.2    58  LYS58      -0.2867
     68  CB       -20.5500    6.5370   15.5390 C.3    58  LYS58       0.0271
     69  CG       -20.4680    5.0180   15.5340 C.3    58  LYS58       0.0035
     70  CD       -21.5480    4.3930   16.3900 C.3    58  LYS58       0.0206
     71  CE       -21.3890    2.8890   16.4480 C.3    58  LYS58       0.1093
     72  NZ       -22.4020    2.2690   17.3330 N.3    58  LYS58      -0.1314
     73  N        -26.6870   -2.6520   25.2620 N.3    85  ARG85      -0.1231
     74  CA       -26.5380   -3.2470   23.9380 C.3    85  ARG85       0.1694
     75  C        -25.1640   -2.9580   23.3450 C.2    85  ARG85       0.2592
     76  O        -24.5850   -1.9000   23.5830 O.2    85  ARG85      -0.2718
     77  CB       -27.6130   -2.7030   23.0020 C.3    85  ARG85       0.0321
     78  CG       -29.0240   -3.0890   23.4060 C.3    85  ARG85       0.0489
     79  CD       -30.0480   -2.4180   22.5100 C.3    85  ARG85       0.2205
     80  NE       -31.3990   -2.9050   22.7670 N.pl3  85  ARG85      -0.0865
     81  CZ       -31.9350   -3.9680   22.1760 C.cat  85  ARG85       0.5346
     82  NH1      -31.2340   -4.6610   21.2880 N.pl3  85  ARG85       0.1354
     83  NH2      -33.1740   -4.3380   22.4720 N.pl3  85  ARG85       0.1354
     84  N        -24.6440   -3.8900   22.5530 N.am   86  ILE86      -0.1966
     85  CA       -23.3550   -3.6690   21.9140 C.3    86  ILE86       0.1727
     86  C        -23.4340   -2.4160   21.0580 C.2    86  ILE86       0.2617
     87  O        -24.4710   -2.1200   20.4640 O.2    86  ILE86      -0.2715
     88  CB       -22.9000   -4.8590   21.0470 C.3    86  ILE86       0.0290
     89  CG1      -23.8300   -5.0590   19.8500 C.3    86  ILE86       0.0022
     90  CG2      -22.8230   -6.1220   21.8880 C.3    86  ILE86       0.0023
     91  CD1      -23.2220   -5.9120   18.7580 C.3    86  ILE86       0.0001
     92  N        -22.3410   -1.6660   21.0260 N.am   87  GLY87      -0.1940
     93  CA       -22.2640   -0.4650   20.2170 C.3    87  GLY87       0.2014
     94  C        -22.7360    0.7740   20.9510 C.2    87  GLY87       0.2639
     95  O        -22.7320    1.8710   20.3850 O.2    87  GLY87      -0.2714
     96  N        -23.1270    0.6120   22.2120 N.am   88  ASP88      -0.1957
     97  CA       -23.6680    1.7270   22.9860 C.3    88  ASP88       0.1840
     98  C        -22.6510    2.8400   23.2460 C.2    88  ASP88       0.2623
     99  O        -23.0290    3.9510   23.6130 O.2    88  ASP88      -0.2715
    100  CB       -24.2620    1.2380   24.3050 C.3    88  ASP88       0.1450
    101  CG       -25.7070    0.8030   24.1620 C.2    88  ASP88       0.3671
    102  OD1      -26.2990    1.0120   23.0850 O.co2  88  ASP88      -0.2456
    103  OD2      -26.2520    0.2530   25.1290 O.co2  88  ASP88      -0.2456
    104  N        -21.3680    2.5460   23.0720 N.am   89  GLY89      -0.1940
    105  CA       -20.3930    3.6110   22.9440 C.3    89  GLY89       0.2014
    106  C        -19.1330    3.4890   23.7700 C.2    89  GLY89       0.2638
    107  O        -18.9550    2.5770   24.5810 O.2    89  GLY89      -0.2714
    108  N        -18.2390    4.4390   23.5440 N.am   90  LYS90      -0.1977
    109  CA       -16.9870    4.4840   24.2660 C.3    90  LYS90       0.1596
    110  C        -16.6200    5.9340   24.5120 C.2    90  LYS90       0.2287
    111  O        -16.9090    6.8060   23.6940 O.2    90  LYS90      -0.2864
    112  CB       -15.8950    3.7600   23.4830 C.3    90  LYS90       0.0298
    113  CG       -14.6900    3.3820   24.3290 C.3    90  LYS90       0.0038
    114  CD       -13.8380    2.3240   23.6490 C.3    90  LYS90       0.0206
    115  CE       -14.5580    0.9870   23.5550 C.3    90  LYS90       0.1093
    116  NZ       -13.6880   -0.0210   22.8920 N.3    90  LYS90      -0.1314
    117  N        -13.5060    8.6370   25.7090 N.3    92  PHE92      -0.1241
    118  CA       -12.0820    8.8730   25.9010 C.3    92  PHE92       0.1605
    119  C        -11.9110   10.2660   26.4570 C.2    92  PHE92       0.2264
    120  O        -12.4870   11.2160   25.9420 O.2    92  PHE92      -0.2867
    121  CB       -11.3230    8.7700   24.5780 C.3    92  PHE92       0.0534
    122  CG       -11.5930    7.5080   23.8180 C.ar   92  PHE92      -0.0203
    123  CD1      -11.1620    6.2900   24.3000 C.ar   92  PHE92      -0.0042
    124  CD2      -12.2530    7.5460   22.6070 C.ar   92  PHE92      -0.0042
    125  CE1      -11.4050    5.1320   23.5970 C.ar   92  PHE92      -0.0003
    126  CE2      -12.4960    6.3910   21.9020 C.ar   92  PHE92      -0.0003
    127  CZ       -12.0680    5.1860   22.3980 C.ar   92  PHE92      -0.0000
@<TRIPOS>BOND
     1    24    23    1
     2    23    22    1
     3    22    21    1
     4    21    20    1
     5    20    17    1
     6    17    16    1
     7    17    18    1
     8    16    11   am
     9    12    11    2
    10    11    10    1
    11    38    36   ar
    12    38    39   ar
    13    10     9    1
    14    10    13    1
    15    18    19    2
    16    18    25   am
    17    36    34   ar
    18    25    26    1
    19    39    37   ar
    20    28    27    2
    21    13    14    1
    22    13    15    1
    23    26    27    1
    24    64    65    1
    25    34    33    1
    26    34    35   ar
    27    27    29   am
    28    33    30    1
    29    67    66    2
    30    37    35   ar
    31    29    30    1
    32    30    31    1
    33    65    66    1
    34    65    68    1
    35    58    57    2
    36    69    68    1
    37    69    70    1
    38    57    56    1
    39    31    32    2
    40    31    40   am
    41    70    71    1
    42    71    72    1
    43    40    41    1
    44    43    42    2
    45    56    59    1
    46    56    55    1
    47    59    60    1
    48    42    41    1
    49    42    44   am
    50    55    46   am
    51     7     5    1
    52    47    46    2
    53    46    45    1
    54    91    89    1
    55     8     6    1
    56    60    61    1
    57    44    45    1
    58    45    48    1
    59     6     5    1
    60     5     2    1
    61    62    61    2
    62    89    88    1
    63    61    63   am
    64    93    94    1
    65    93    92    1
    66     2     3    1
    67     2     1    1
    68    95    94    2
    69    87    86    2
    70    48    49    1
    71     3     4    2
    72    94    96   am
    73    92    86   am
    74    88    90    1
    75    88    85    1
    76    86    85    1
    77    82    81    1
    78    49    50    1
    79   126   127   ar
    80   126   124   ar
    81    85    84    1
    82    81    83    1
    83    81    80    2
    84    96    97    1
    85   127   125   ar
    86    79    80    1
    87    79    78    1
    88    84    75   am
    89   124   122   ar
    90   116   115    1
    91   105   104    1
    92   105   106    1
    93    50    51    1
    94    97    98    1
    95    97   100    1
    96    77    78    1
    97    77    74    1
    98   104    98   am
    99   102   101   ar
   100    98    99    2
   101    75    76    2
   102    75    74    1
   103   112   109    1
   104   112   113    1
   105   108   106   am
   106   108   109    1
   107   115   114    1
   108   125   123   ar
   109   114   113    1
   110   111   110    2
   111   106   107    2
   112   122   123   ar
   113   122   121    1
   114    51    52    2
   115    74    73    1
   116   101   100    1
   117   101   103   ar
   118   109   110    1
   119   121   118    1
   120    52    53    1
   121    52    54    1
   122   117   118    1
   123   118   119    1
   124   120   119    2
