@<TRIPOS>MOLECULE
tmp/3mhyB01.pdb
 102 98 0 0 0
SMALL
GASTEIGER

@<TRIPOS>ATOM
      1  N        -24.2280    6.0280   19.4850 N.3     9  LYS9       -0.1245
      2  CA       -25.1950    5.7890   18.4250 C.3     9  LYS9        0.1561
      3  C        -25.8810    7.1040   18.0880 C.2     9  LYS9        0.2260
      4  O        -26.1940    7.8850   18.9830 O.2     9  LYS9       -0.2867
      5  CB       -26.2070    4.7270   18.8600 C.3     9  LYS9        0.0271
      6  CG       -25.5840    3.3410   18.9810 C.3     9  LYS9        0.0035
      7  CD       -26.5400    2.3080   19.5480 C.3     9  LYS9        0.0206
      8  CE       -25.8940    0.9410   19.5400 C.3     9  LYS9        0.1093
      9  NZ       -26.6600   -0.0400   20.3400 N.3     9  LYS9       -0.1314
     10  N        -15.9910    1.0110   14.2150 N.3    36  PHE36      -0.1227
     11  CA       -16.3510   -0.2860   14.7430 C.3    36  PHE36       0.1736
     12  C        -15.6520   -0.4670   16.0830 C.2    36  PHE36       0.2596
     13  O        -14.6860    0.2440   16.4020 O.2    36  PHE36      -0.2718
     14  CB       -16.0130   -1.4150   13.7570 C.3    36  PHE36       0.0547
     15  CG       -14.5590   -1.5130   13.4030 C.ar   36  PHE36      -0.0202
     16  CD1      -13.6610   -2.1370   14.2520 C.ar   36  PHE36      -0.0042
     17  CD2      -14.0980   -1.0210   12.1940 C.ar   36  PHE36      -0.0042
     18  CE1      -12.3170   -2.2320   13.9170 C.ar   36  PHE36      -0.0003
     19  CE2      -12.7620   -1.1110   11.8530 C.ar   36  PHE36      -0.0003
     20  CZ       -11.8700   -1.7210   12.7150 C.ar   36  PHE36      -0.0000
     21  N        -16.1810   -1.3910   16.8760 N.am   37  GLY37      -0.1942
     22  CA       -15.5670   -1.8020   18.1200 C.3    37  GLY37       0.2014
     23  C        -15.1760   -3.2630   18.0290 C.2    37  GLY37       0.2639
     24  O        -14.8330   -3.7550   16.9570 O.2    37  GLY37      -0.2714
     25  N        -15.2400   -3.9700   19.1490 N.am   38  ARG38      -0.1963
     26  CA       -14.7200   -5.3330   19.1930 C.3    38  ARG38       0.1729
     27  C        -15.5850   -6.3530   18.4410 C.2    38  ARG38       0.2616
     28  O        -15.1550   -7.4810   18.2240 O.2    38  ARG38      -0.2715
     29  CB       -14.4750   -5.7750   20.6410 C.3    38  ARG38       0.0348
     30  CG       -15.7100   -5.8530   21.5110 C.3    38  ARG38       0.0492
     31  CD       -15.3000   -5.9890   22.9650 C.3    38  ARG38       0.2205
     32  NE       -16.4250   -5.8360   23.8790 N.pl3  38  ARG38      -0.0865
     33  CZ       -16.3890   -6.1460   25.1710 C.cat  38  ARG38       0.5346
     34  NH1      -15.2840   -6.6460   25.7070 N.pl3  38  ARG38       0.1354
     35  NH2      -17.4680   -5.9680   25.9220 N.pl3  38  ARG38       0.1354
     36  N        -16.7910   -5.9630   18.0360 N.am   39  GLN39      -0.1963
     37  CA       -17.6190   -6.8260   17.1880 C.3    39  GLN39       0.1733
     38  C        -17.4120   -6.5320   15.7010 C.2    39  GLN39       0.2616
     39  O        -18.0700   -7.1210   14.8470 O.2    39  GLN39      -0.2715
     40  CB       -19.1000   -6.7150   17.5590 C.3    39  GLN39       0.0408
     41  CG       -19.4270   -7.2770   18.9370 C.3    39  GLN39       0.0908
     42  CD       -19.1960   -6.2660   20.0390 C.2    39  GLN39       0.2608
     43  OE1      -19.0160   -5.0760   19.7760 O.2    39  GLN39      -0.2717
     44  NE2      -19.2100   -6.7300   21.2800 N.am   39  GLN39      -0.0878
     45  N        -16.4890   -5.6230   15.4040 N.am   40  LYS40      -0.1963
     46  CA       -16.0330   -5.3790   14.0360 C.3    40  LYS40       0.1728
     47  C        -17.1550   -4.9390   13.0990 C.2    40  LYS40       0.2617
     48  O        -17.1120   -5.2010   11.9020 O.2    40  LYS40      -0.2715
     49  CB       -15.3430   -6.6300   13.4880 C.3    40  LYS40       0.0311
     50  CG       -14.1330   -7.0630   14.3040 C.3    40  LYS40       0.0038
     51  CD       -13.0310   -6.0110   14.2720 C.3    40  LYS40       0.0206
     52  CE       -11.9170   -6.3420   15.2480 C.3    40  LYS40       0.1093
     53  NZ       -11.3480   -7.6900   14.9780 N.3    40  LYS40      -0.1314
     54  N        -18.1540   -4.2580   13.6440 N.am   41  GLY41      -0.1940
     55  CA       -19.2290   -3.7080   12.8360 C.3    41  GLY41       0.2014
     56  C        -20.2190   -4.7530   12.3520 C.2    41  GLY41       0.2639
     57  O        -21.0560   -4.4590   11.5010 O.2    41  GLY41      -0.2714
     58  N        -20.1350   -5.9650   12.8980 N.am   42  GLN42      -0.1963
     59  CA       -21.0020   -7.0660   12.4770 C.3    42  GLN42       0.1733
     60  C        -22.4290   -6.8710   12.9780 C.2    42  GLN42       0.2617
     61  O        -22.6590   -6.7100   14.1790 O.2    42  GLN42      -0.2715
     62  CB       -20.4540   -8.4090   12.9860 C.3    42  GLN42       0.0408
     63  CG       -21.2720   -9.6290   12.5420 C.3    42  GLN42       0.0908
     64  CD       -20.7600  -10.9560   13.1080 C.2    42  GLN42       0.2608
     65  OE1      -19.7120  -11.0160   13.7510 O.2    42  GLN42      -0.2717
     66  NE2      -21.5080  -12.0270   12.8620 N.am   42  GLN42      -0.0878
     67  N        -23.3810   -6.8770   12.0510 N.am   43  THR43      -0.1951
     68  CA       -24.7990   -6.8110   12.3930 C.3    43  THR43       0.1897
     69  C        -25.5940   -7.9610   11.7700 C.2    43  THR43       0.2313
     70  O        -26.7950   -8.0840   12.0020 O.2    43  THR43      -0.2863
     71  CB       -25.4270   -5.4840   11.9230 C.3    43  THR43       0.1794
     72  OG1      -25.3130   -5.3750   10.4990 O.3    43  THR43      -0.2208
     73  CG2      -24.7340   -4.2980   12.5780 C.3    43  THR43       0.0378
     74  N        -19.7090    1.5310   10.8390 N.3    56  LEU56      -0.1245
     75  CA       -21.0870    1.9230   11.1210 C.3    56  LEU56       0.1561
     76  C        -21.1550    3.4080   11.4740 C.2    56  LEU56       0.2260
     77  O        -20.2360    3.9470   12.0870 O.2    56  LEU56      -0.2867
     78  CB       -21.6500    1.0990   12.2780 C.3    56  LEU56       0.0270
     79  CG       -21.6120   -0.4240   12.0930 C.3    56  LEU56       0.0019
     80  CD1      -22.1020   -1.1340   13.3450 C.3    56  LEU56       0.0001
     81  CD2      -22.4290   -0.8530   10.8850 C.3    56  LEU56       0.0001
     82  N        -21.7330    6.7350   13.3840 N.3    58  LYS58      -0.1245
     83  CA       -21.7490    7.1250   14.7860 C.3    58  LYS58       0.1561
     84  C        -21.6880    8.6360   14.8650 C.2    58  LYS58       0.2260
     85  O        -21.4500    9.3100   13.8680 O.2    58  LYS58      -0.2867
     86  CB       -20.5500    6.5370   15.5390 C.3    58  LYS58       0.0271
     87  CG       -20.4680    5.0180   15.5340 C.3    58  LYS58       0.0035
     88  CD       -21.5480    4.3930   16.3900 C.3    58  LYS58       0.0206
     89  CE       -21.3890    2.8890   16.4480 C.3    58  LYS58       0.1093
     90  NZ       -22.4020    2.2690   17.3330 N.3    58  LYS58      -0.1314
     91  N        -24.6440   -3.8900   22.5530 N.3    86  ILE86      -0.1231
     92  CA       -23.3550   -3.6690   21.9140 C.3    86  ILE86       0.1692
     93  C        -23.4340   -2.4160   21.0580 C.2    86  ILE86       0.2592
     94  O        -24.4710   -2.1200   20.4640 O.2    86  ILE86      -0.2718
     95  CB       -22.9000   -4.8590   21.0470 C.3    86  ILE86       0.0266
     96  CG1      -23.8300   -5.0590   19.8500 C.3    86  ILE86       0.0019
     97  CG2      -22.8230   -6.1220   21.8880 C.3    86  ILE86       0.0020
     98  CD1      -23.2220   -5.9120   18.7580 C.3    86  ILE86       0.0001
     99  N        -22.3410   -1.6660   21.0260 N.am   87  GLY87      -0.1957
    100  CA       -22.2640   -0.4650   20.2170 C.3    87  GLY87       0.1869
    101  C        -22.7360    0.7740   20.9510 C.2    87  GLY87       0.2309
    102  O        -22.7320    1.8710   20.3850 O.2    87  GLY87      -0.2863
@<TRIPOS>BOND
     1    72    71    1
     2    74    75    1
     3    81    79    1
     4    75    76    1
     5    75    78    1
     6    76    77    2
     7    57    56    2
     8    69    70    2
     9    69    68    1
    10    19    17   ar
    11    19    20   ar
    12    48    47    2
    13    71    68    1
    14    71    73    1
    15    67    68    1
    16    67    60   am
    17    79    78    1
    18    79    80    1
    19    17    15   ar
    20    56    55    1
    21    56    58   am
    22    59    58    1
    23    59    60    1
    24    59    62    1
    25    63    62    1
    26    63    64    1
    27    20    18   ar
    28    55    54    1
    29    66    64   am
    30    60    61    2
    31    47    54   am
    32    47    46    1
    33    64    65    2
    34    82    83    1
    35    15    14    1
    36    15    16   ar
    37    49    46    1
    38    49    50    1
    39    14    11    1
    40    85    84    2
    41    18    16   ar
    42    46    45    1
    43    10    11    1
    44    51    50    1
    45    51    52    1
    46    11    12    1
    47    83    84    1
    48    83    86    1
    49    39    38    2
    50    53    52    1
    51    45    38   am
    52    87    86    1
    53    87    88    1
    54    38    37    1
    55    12    13    2
    56    12    21   am
    57    88    89    1
    58    89    90    1
    59    21    22    1
    60    24    23    2
    61    37    40    1
    62    37    36    1
    63    40    41    1
    64    23    22    1
    65    23    25   am
    66    36    27   am
    67     3     2    1
    68     3     4    2
    69    28    27    2
    70     2     5    1
    71     2     1    1
    72    27    26    1
    73    98    96    1
    74     5     6    1
    75    41    42    1
    76     6     7    1
    77    25    26    1
    78    26    29    1
    79     8     7    1
    80     8     9    1
    81    43    42    2
    82    96    95    1
    83    42    44   am
    84   100   101    1
    85   100    99    1
    86   102   101    2
    87    94    93    2
    88    29    30    1
    89    99    93   am
    90    95    97    1
    91    95    92    1
    92    93    92    1
    93    30    31    1
    94    92    91    1
    95    31    32    1
    96    32    33    2
    97    33    34    1
    98    33    35    1
