@<TRIPOS>MOLECULE
tmp/3mhzA00.pdb
 90 83 0 0 0
SMALL
GASTEIGER

@<TRIPOS>ATOM
      1  N        -16.2000   24.8450  -14.3650 N.3   210  GLU210     -0.1245
      2  CA       -17.0130   25.5550  -15.3240 C.3   210  GLU210      0.1567
      3  C        -17.8790   24.5960  -16.1590 C.2   210  GLU210      0.2260
      4  O        -18.9720   24.9860  -16.5700 O.2   210  GLU210     -0.2867
      5  CB       -16.1380   26.4400  -16.2170 C.3   210  GLU210      0.0388
      6  CG       -15.1870   25.7140  -17.0990 C.3   210  GLU210      0.1160
      7  CD       -13.7850   25.6210  -16.5180 C.2   210  GLU210      0.3649
      8  OE1      -13.6320   25.4720  -15.2640 O.co2 210  GLU210     -0.2457
      9  OE2      -12.8270   25.7920  -17.3190 O.co2 210  GLU210     -0.2457
     10  N         -0.5340   17.1570  -21.6130 N.3   302  VAL302     -0.1245
     11  CA        -1.2160   18.2580  -20.9710 C.3   302  VAL302      0.1561
     12  C         -2.6980   18.2030  -21.3550 C.2   302  VAL302      0.2260
     13  O         -3.0420   18.1330  -22.5430 O.2   302  VAL302     -0.2867
     14  CB        -0.6490   19.6080  -21.4420 C.3   302  VAL302      0.0252
     15  CG1       -1.0640   20.7250  -20.4510 C.3   302  VAL302      0.0019
     16  CG2        0.8790   19.5770  -21.5700 C.3   302  VAL302      0.0019
     17  N         -5.7950   20.4850  -21.2050 N.3   304  THR304     -0.1218
     18  CA        -6.2710   21.8660  -21.1080 C.3   304  THR304      0.1862
     19  C         -7.7950   21.9550  -21.3270 C.2   304  THR304      0.2287
     20  O         -8.3510   23.0420  -21.4030 O.2   304  THR304     -0.2866
     21  CB        -5.5660   22.8310  -22.0590 C.3   304  THR304      0.1770
     22  OG1       -5.8350   22.4230  -23.3910 O.3   304  THR304     -0.2211
     23  CG2       -4.0820   22.9320  -21.7650 C.3   304  THR304      0.0375
     24  N         -6.4460   20.6850  -16.5230 N.3   343  ASN343     -0.1240
     25  CA        -5.5110   21.6060  -15.8850 C.3   343  ASN343      0.1653
     26  C         -4.3800   20.8660  -15.2120 C.2   343  ASN343      0.2266
     27  O         -3.8970   21.2250  -14.1300 O.2   343  ASN343     -0.2867
     28  CB        -6.2240   22.5460  -14.8920 C.3   343  ASN343      0.1155
     29  CG        -5.4370   23.8260  -14.6450 C.2   343  ASN343      0.2627
     30  OD1       -5.2730   24.2580  -13.4700 O.2   343  ASN343     -0.2716
     31  ND2       -4.9300   24.4190  -15.7040 N.am  343  ASN343     -0.0877
     32  N         -1.1800   17.4790  -15.9140 N.3   345  TYR345     -0.1241
     33  CA        -0.1390   16.8380  -16.7500 C.3   345  TYR345      0.1605
     34  C         -0.1100   15.3300  -16.4900 C.2   345  TYR345      0.2264
     35  O         -0.4540   14.8730  -15.4080 O.2   345  TYR345     -0.2867
     36  CB         1.2410   17.3910  -16.3590 C.3   345  TYR345      0.0534
     37  CG         1.4670   18.8540  -16.6880 C.ar  345  TYR345     -0.0201
     38  CD1        1.0600   19.8790  -15.8440 C.ar  345  TYR345     -0.0009
     39  CD2        2.0370   19.2020  -17.9000 C.ar  345  TYR345     -0.0009
     40  CE1        1.2480   21.2430  -16.2200 C.ar  345  TYR345      0.0417
     41  CE2        2.2430   20.5160  -18.2450 C.ar  345  TYR345      0.0417
     42  CZ         1.8570   21.5200  -17.4100 C.ar  345  TYR345      0.1957
     43  OH         2.1160   22.8190  -17.8520 O.3   345  TYR345     -0.2866
     44  N         -4.9730   33.4180  -19.8800 N.3   430  LYS430     -0.1231
     45  CA        -4.1760   32.6750  -18.8570 C.3   430  LYS430      0.1693
     46  C         -2.7470   32.4650  -19.3740 C.2   430  LYS430      0.2592
     47  O         -2.4510   31.5240  -20.1520 O.2   430  LYS430     -0.2718
     48  CB        -4.8530   31.3550  -18.4820 C.3   430  LYS430      0.0285
     49  CG        -4.2540   30.6640  -17.2640 C.3   430  LYS430      0.0035
     50  CD        -4.7370   29.2350  -17.1510 C.3   430  LYS430      0.0206
     51  CE        -3.9520   28.4320  -16.1300 C.3   430  LYS430      0.1093
     52  NZ        -4.3430   26.9900  -16.1790 N.3   430  LYS430     -0.1314
     53  N         -1.8860   33.4140  -19.0400 N.am  431  ASP431     -0.1974
     54  CA        -0.4690   33.3530  -19.3310 C.3   431  ASP431      0.1709
     55  C         -0.1390   33.3190  -20.7900 C.2   431  ASP431      0.2293
     56  O          0.9150   32.8030  -21.1140 O.2   431  ASP431     -0.2864
     57  CB         0.1990   32.1340  -18.6710 C.3   431  ASP431      0.1436
     58  CG         0.1630   32.1950  -17.1480 C.2   431  ASP431      0.3671
     59  OD1       -0.1180   31.1330  -16.5500 O.co2 431  ASP431     -0.2456
     60  OD2        0.3590   33.2960  -16.5620 O.co2 431  ASP431     -0.2456
     61  N         -6.3560   28.5410  -24.6870 N.3   435  VAL435     -0.1245
     62  CA        -7.2650   27.5690  -23.9850 C.3   435  VAL435      0.1561
     63  C         -8.6100   27.6410  -24.7080 C.2   435  VAL435      0.2260
     64  O         -9.1580   28.7340  -24.9140 O.2   435  VAL435     -0.2867
     65  CB        -7.4210   27.8660  -22.5370 C.3   435  VAL435      0.0252
     66  CG1       -8.4810   26.9170  -21.9130 C.3   435  VAL435      0.0019
     67  CG2       -6.0390   27.7900  -21.7980 C.3   435  VAL435      0.0019
     68  N        -12.6320   26.5110  -25.0860 N.3   437  ARG437     -0.1245
     69  CA       -13.8610   26.0670  -24.4070 C.3   437  ARG437      0.1563
     70  C        -14.9760   26.0710  -25.4250 C.2   437  ARG437      0.2260
     71  O        -14.9250   26.7960  -26.4370 O.2   437  ARG437     -0.2867
     72  CB       -14.2370   26.9790  -23.2320 C.3   437  ARG437      0.0307
     73  CG       -13.2660   27.0140  -22.0290 C.3   437  ARG437      0.0489
     74  CD       -13.3400   25.7140  -21.2840 C.3   437  ARG437      0.2205
     75  NE       -12.4950   25.6500  -20.0850 N.pl3 437  ARG437     -0.0865
     76  CZ       -11.2880   25.0780  -20.0640 C.cat 437  ARG437      0.5346
     77  NH1      -10.7680   24.5090  -21.1490 N.pl3 437  ARG437      0.1354
     78  NH2      -10.6250   25.0020  -18.9250 N.pl3 437  ARG437      0.1354
     79  N        -11.5990   39.9140  -16.8960 N.3   476  TYR476     -0.1241
     80  CA       -10.9850   38.6200  -16.6290 C.3   476  TYR476      0.1605
     81  C         -9.8050   38.8520  -15.7220 C.2   476  TYR476      0.2264
     82  O         -8.8160   39.5230  -16.0890 O.2   476  TYR476     -0.2867
     83  CB       -10.5180   37.9060  -17.8980 C.3   476  TYR476      0.0534
     84  CG        -9.7140   36.6650  -17.6420 C.ar  476  TYR476     -0.0201
     85  CD1      -10.3430   35.4620  -17.3310 C.ar  476  TYR476     -0.0009
     86  CD2       -8.3360   36.6650  -17.7390 C.ar  476  TYR476     -0.0009
     87  CE1       -9.6450   34.3270  -17.1130 C.ar  476  TYR476      0.0417
     88  CE2       -7.6050   35.5100  -17.4880 C.ar  476  TYR476      0.0417
     89  CZ        -8.2660   34.3410  -17.1780 C.ar  476  TYR476      0.1957
     90  OH        -7.5120   33.1850  -16.9490 O.3   476  TYR476     -0.2866
@<TRIPOS>BOND
     1    71    70    2
     2    70    69    1
     3    68    69    1
     4    64    63    2
     5    63    62    1
     6    61    62    1
     7    69    72    1
     8    62    65    1
     9    22    21    1
    10    72    73    1
    11    13    12    2
    12    65    66    1
    13    65    67    1
    14    21    23    1
    15    21    18    1
    16    73    74    1
    17    10    11    1
    18    16    14    1
    19    14    11    1
    20    14    15    1
    21    20    19    2
    22    12    11    1
    23    19    18    1
    24    74    75    1
    25    17    18    1
    26    77    76    1
    27    56    55    2
    28    55    54    1
    29    47    46    2
    30    75    76    2
    31    76    78    1
    32    44    45    1
    33    46    53   am
    34    46    45    1
    35    54    53    1
    36    54    57    1
    37    45    48    1
    38    57    58    1
    39    48    49    1
    40    41    39   ar
    41    41    42   ar
    42    39    37   ar
    43    83    84    1
    44    83    80    1
    45    43    42    1
    46    86    84   ar
    47    86    88   ar
    48    84    85   ar
    49    88    89   ar
    50    42    40   ar
    51    85    87   ar
    52     9     7   ar
    53    49    50    1
    54    89    87   ar
    55    89    90    1
    56    50    51    1
    57    58    60   ar
    58    58    59   ar
    59     6     7    1
    60     6     5    1
    61    79    80    1
    62    33    34    1
    63    33    36    1
    64    33    32    1
    65    37    36    1
    66    37    38   ar
    67    80    81    1
    68     4     3    2
    69    24    25    1
    70     7     8   ar
    71    34    35    2
    72    40    38   ar
    73     5     2    1
    74    52    51    1
    75     3     2    1
    76    82    81    2
    77    25    26    1
    78    25    28    1
    79    31    29   am
    80     2     1    1
    81    26    27    2
    82    28    29    1
    83    29    30    2
