@<TRIPOS>MOLECULE
tmp/3mi0R00.pdb
 130 122 0 0 0
SMALL
GASTEIGER

@<TRIPOS>ATOM
      1  N         15.8590   33.3270   47.4930 N.3     1  THR1       -0.1218
      2  CA        15.1140   34.0810   48.5760 C.3     1  THR1        0.1862
      3  C         16.0150   34.7820   49.5580 C.2     1  THR1        0.2287
      4  O         17.0580   34.2670   49.8910 O.2     1  THR1       -0.2866
      5  CB        14.2860   33.1400   49.4960 C.3     1  THR1        0.1770
      6  OG1       13.1580   32.6490   48.7930 O.3     1  THR1       -0.2211
      7  CG2       13.7680   33.8820   50.7720 C.3     1  THR1        0.0375
      8  N         10.4890   37.2380   45.1010 N.3    19  ARG19      -0.1231
      9  CA        10.6540   36.2370   44.0930 C.3    19  ARG19       0.1694
     10  C         10.3550   34.8290   44.4630 C.2    19  ARG19       0.2593
     11  O         10.5980   34.4080   45.5580 O.2    19  ARG19      -0.2718
     12  CB        12.0910   36.3010   43.5650 C.3    19  ARG19       0.0321
     13  CG        12.4670   35.1850   42.5270 C.3    19  ARG19       0.0489
     14  CD        13.7170   35.5730   41.7310 C.3    19  ARG19       0.2205
     15  NE        13.4460   36.7670   40.9090 N.pl3  19  ARG19      -0.0865
     16  CZ        14.2990   37.2990   40.0360 C.cat  19  ARG19       0.5346
     17  NH1       15.5140   36.7730   39.8410 N.pl3  19  ARG19       0.1354
     18  NH2       13.9240   38.3390   39.3180 N.pl3  19  ARG19       0.1354
     19  N          9.8140   34.0780   43.5230 N.am   20  SER20      -0.1938
     20  CA         9.6420   32.6630   43.7870 C.3    20  SER20       0.2055
     21  C         10.1510   32.0530   42.4650 C.2    20  SER20       0.2643
     22  O         10.0010   32.6440   41.3730 O.2    20  SER20      -0.2714
     23  CB         8.1840   32.2930   44.1060 C.3    20  SER20       0.2130
     24  OG         7.4100   32.3850   42.9360 O.3    20  SER20      -0.2179
     25  N         10.8400   30.9230   42.5670 N.am   21  THR21      -0.1950
     26  CA        11.3660   30.2820   41.3710 C.3    21  THR21       0.1897
     27  C         11.0510   28.7870   41.3530 C.2    21  THR21       0.2313
     28  O         10.6240   28.2320   42.3550 O.2    21  THR21      -0.2863
     29  CB        12.9370   30.4540   41.2470 C.3    21  THR21       0.1794
     30  OG1       13.5660   29.8970   42.4040 O.3    21  THR21      -0.2208
     31  CG2       13.3630   31.9040   41.1190 C.3    21  THR21       0.0378
     32  N         13.3850   25.9170   39.7170 N.3    23  GLY23      -0.1225
     33  CA        14.6070   25.7240   38.9610 C.3    23  GLY23       0.1811
     34  C         15.0910   27.1350   38.5710 C.2    23  GLY23       0.2280
     35  O         15.1050   28.0600   39.4020 O.2    23  GLY23      -0.2866
     36  N          5.3220   37.5310   45.7310 N.3    31  VAL31      -0.1231
     37  CA         5.1520   36.7250   46.9230 C.3    31  VAL31       0.1692
     38  C          5.4970   37.6050   48.1590 C.2    31  VAL31       0.2592
     39  O          6.4260   38.4150   48.1170 O.2    31  VAL31      -0.2718
     40  CB         6.1300   35.5160   46.9100 C.3    31  VAL31       0.0266
     41  CG1        5.8200   34.6110   48.0530 C.3    31  VAL31       0.0020
     42  CG2        6.0290   34.7610   45.5870 C.3    31  VAL31       0.0020
     43  N          4.7530   37.4230   49.2410 N.am   32  ARG32      -0.1966
     44  CA         5.0240   38.1420   50.4760 C.3    32  ARG32       0.1729
     45  C          5.5820   37.1050   51.4370 C.2    32  ARG32       0.2616
     46  O          4.9450   36.0970   51.7120 O.2    32  ARG32      -0.2715
     47  CB         3.7590   38.8010   51.0120 C.3    32  ARG32       0.0348
     48  CG         3.2220   39.8620   50.0740 C.3    32  ARG32       0.0492
     49  CD         1.9560   40.5100   50.5900 C.3    32  ARG32       0.2205
     50  NE         1.2930   41.2690   49.5360 N.pl3  32  ARG32      -0.0865
     51  CZ         1.4500   42.5720   49.3350 C.cat  32  ARG32       0.5346
     52  NH1        2.2440   43.2790   50.1230 N.pl3  32  ARG32       0.1354
     53  NH2        0.8060   43.1690   48.3440 N.pl3  32  ARG32       0.1354
     54  N          6.7840   37.3510   51.9360 N.am   33  LYS33      -0.1977
     55  CA         7.4620   36.3720   52.7710 C.3    33  LYS33       0.1596
     56  C          7.5910   36.7380   54.2270 C.2    33  LYS33       0.2287
     57  O          8.0520   35.9300   55.0180 O.2    33  LYS33      -0.2864
     58  CB         8.8530   36.1060   52.1750 C.3    33  LYS33       0.0298
     59  CG         8.8030   35.6610   50.7290 C.3    33  LYS33       0.0038
     60  CD        10.1890   35.3400   50.1860 C.3    33  LYS33       0.0206
     61  CE        10.1310   35.2880   48.6820 C.3    33  LYS33       0.1093
     62  NZ        11.4530   35.1270   48.0420 N.3    33  LYS33      -0.1314
     63  N          5.5460   37.9790   57.6190 N.3    35  TYR35      -0.1241
     64  CA         4.2130   38.0620   58.2250 C.3    35  TYR35       0.1605
     65  C          4.1960   38.6370   59.6390 C.2    35  TYR35       0.2264
     66  O          5.0650   38.3300   60.4770 O.2    35  TYR35      -0.2867
     67  CB         3.6120   36.6730   58.3740 C.3    35  TYR35       0.0534
     68  CG         3.5210   35.8820   57.1200 C.ar   35  TYR35      -0.0201
     69  CD1        2.3150   35.7750   56.4270 C.ar   35  TYR35      -0.0009
     70  CD2        4.6440   35.2350   56.6100 C.ar   35  TYR35      -0.0009
     71  CE1        2.2320   35.0440   55.2600 C.ar   35  TYR35       0.0417
     72  CE2        4.5760   34.4960   55.4440 C.ar   35  TYR35       0.0417
     73  CZ         3.3670   34.4030   54.7720 C.ar   35  TYR35       0.1957
     74  OH         3.2810   33.6620   53.6210 O.3    35  TYR35      -0.2866
     75  N          9.9800   33.6310   56.2360 N.3    45  ILE45      -0.1231
     76  CA        10.4020   32.2570   55.9890 C.3    45  ILE45       0.1692
     77  C         11.0230   31.9740   54.6270 C.2    45  ILE45       0.2592
     78  O         10.6150   32.5250   53.6160 O.2    45  ILE45      -0.2718
     79  CB         9.2570   31.2720   56.2620 C.3    45  ILE45       0.0266
     80  CG1        8.4490   31.7840   57.4690 C.3    45  ILE45       0.0019
     81  CG2        9.8370   29.8610   56.5970 C.3    45  ILE45       0.0020
     82  CD1        7.6760   30.7450   58.2020 C.3    45  ILE45       0.0001
     83  N         12.0340   31.1180   54.6200 N.am   46  ALA46      -0.1966
     84  CA        12.7360   30.7920   53.4030 C.3    46  ALA46       0.1728
     85  C         12.6260   29.2500   53.2010 C.2    46  ALA46       0.2617
     86  O         12.2800   28.5170   54.1380 O.2    46  ALA46      -0.2715
     87  CB        14.1850   31.2710   53.5460 C.3    46  ALA46       0.0334
     88  N         12.8650   28.7680   51.9840 N.am   47  GLY47      -0.1940
     89  CA        12.7570   27.3380   51.7310 C.3    47  GLY47       0.2014
     90  C         11.5390   26.9730   50.8590 C.2    47  GLY47       0.2640
     91  O         11.1490   27.7260   49.9350 O.2    47  GLY47      -0.2714
     92  N         10.9540   25.8130   51.1420 N.am   48  THR48      -0.1936
     93  CA         9.7990   25.3120   50.4050 C.3    48  THR48       0.2028
     94  C          8.5830   26.1970   50.6310 C.2    48  THR48       0.2642
     95  O          8.1420   26.3640   51.7610 O.2    48  THR48      -0.2714
     96  CB         9.4550   23.8790   50.8350 C.3    48  THR48       0.1808
     97  OG1       10.5640   23.0220   50.5550 O.3    48  THR48      -0.2208
     98  CG2        8.2270   23.3780   50.0960 C.3    48  THR48       0.0379
     99  N          8.0450   26.7600   49.5560 N.am   49  ALA49      -0.1977
    100  CA         6.9220   27.6820   49.6760 C.3    49  ALA49       0.1597
    101  C          5.7510   27.1470   50.4800 C.2    49  ALA49       0.2287
    102  O          5.2550   27.8390   51.3850 O.2    49  ALA49      -0.2864
    103  CB         6.4380   28.1120   48.2870 C.3    49  ALA49       0.0319
    104  N          6.5640   26.9790   54.1630 N.3    52  ALA52      -0.1231
    105  CA         6.8230   28.2920   54.6830 C.3    52  ALA52       0.1694
    106  C          5.5360   29.0160   55.0600 C.2    52  ALA52       0.2591
    107  O          5.4180   29.5430   56.1680 O.2    52  ALA52      -0.2718
    108  CB         7.6090   29.1120   53.6580 C.3    52  ALA52       0.0304
    109  N          4.5870   29.0650   54.1280 N.am   53  VAL53      -0.1980
    110  CA         3.3060   29.7100   54.3710 C.3    53  VAL53       0.1595
    111  C          2.5570   29.0290   55.5210 C.2    53  VAL53       0.2287
    112  O          1.9590   29.6760   56.3810 O.2    53  VAL53      -0.2864
    113  CB         2.4250   29.6570   53.1080 C.3    53  VAL53       0.0276
    114  CG1        0.9850   30.1280   53.4520 C.3    53  VAL53       0.0022
    115  CG2        3.0620   30.5350   51.9980 C.3    53  VAL53       0.0022
    116  N         18.0540   32.4610   53.7150 N.3   140  GLY140     -0.1210
    117  CA        17.7450   32.2660   52.3100 C.3   140  GLY140      0.1956
    118  C         19.0120   32.1790   51.5000 C.2   140  GLY140      0.2612
    119  O         20.1080   32.4200   52.0380 O.2   140  GLY140     -0.2717
    120  N         18.8820   31.8790   50.2070 N.am  141  SER141     -0.1952
    121  CA        20.0320   31.7680   49.3360 C.3   141  SER141      0.1924
    122  C         20.8120   33.0790   49.1910 C.2   141  SER141      0.2314
    123  O         21.9500   33.0500   48.7520 O.2   141  SER141     -0.2863
    124  CB        19.6070   31.2700   47.9460 C.3   141  SER141      0.2116
    125  OG        18.6000   32.1330   47.4010 O.3   141  SER141     -0.2180
    126  N         18.4080   34.0040   42.7140 N.3   180  ALA180     -0.1245
    127  CA        17.1880   33.5020   43.3130 C.3   180  ALA180      0.1562
    128  C         16.5110   34.5400   44.1860 C.2   180  ALA180      0.2260
    129  O         15.4180   34.2860   44.7040 O.2   180  ALA180     -0.2867
    130  CB        17.4540   32.2140   44.1480 C.3   180  ALA180      0.0290
@<TRIPOS>BOND
     1    34    33    1
     2    34    35    2
     3    33    32    1
     4    18    16    1
     5    17    16    1
     6    16    15    2
     7    15    14    1
     8    31    29    1
     9    29    26    1
    10    29    30    1
    11    27    26    1
    12    27    28    2
    13    26    25    1
    14    22    21    2
    15    14    13    1
    16    21    25   am
    17    21    20    1
    18    13    12    1
    19   126   127    1
    20    24    23    1
    21   127   130    1
    22   127   128    1
    23    19    20    1
    24    19    10   am
    25    12     9    1
    26    20    23    1
    27     9    10    1
    28     9     8    1
    29   128   129    2
    30    10    11    2
    31    42    40    1
    32    36    37    1
    33    40    37    1
    34    40    41    1
    35    37    38    1
    36   125   124    1
    37     1     2    1
    38   124   121    1
    39    62    61    1
    40    39    38    2
    41    38    43   am
    42   103   100    1
    43    53    51    1
    44     2     5    1
    45     2     3    1
    46    61    60    1
    47   123   122    2
    48     6     5    1
    49   122   121    1
    50    43    44    1
    51    51    50    2
    52    51    52    1
    53   121   120    1
    54     5     7    1
    55    50    49    1
    56    99   100    1
    57    99    94   am
    58     3     4    2
    59   100   101    1
    60    91    90    2
    61    48    49    1
    62    48    47    1
    63    98    96    1
    64    60    59    1
    65   120   118   am
    66    93    94    1
    67    93    96    1
    68    93    92    1
    69    44    47    1
    70    44    45    1
    71   101   102    2
    72    97    96    1
    73    94    95    2
    74    59    58    1
    75    90    92   am
    76    90    89    1
    77    45    46    2
    78    45    54   am
    79   118   119    2
    80   118   117    1
    81    89    88    1
    82    54    55    1
    83    88    85   am
    84   115   113    1
    85    58    55    1
    86   117   116    1
    87    55    56    1
    88   113   114    1
    89   113   110    1
    90    85    84    1
    91    85    86    2
    92    84    87    1
    93    84    83    1
    94    78    77    2
    95    74    73    1
    96   108   105    1
    97   109   110    1
    98   109   106   am
    99   104   105    1
   100    56    57    2
   101   110   111    1
   102    83    77   am
   103    77    76    1
   104   105   106    1
   105    73    71   ar
   106    73    72   ar
   107   106   107    2
   108    71    69   ar
   109    72    70   ar
   110   111   112    2
   111    76    75    1
   112    76    79    1
   113    79    81    1
   114    79    80    1
   115    69    68   ar
   116    70    68   ar
   117    68    67    1
   118    80    82    1
   119    63    64    1
   120    64    67    1
   121    64    65    1
   122    65    66    2
