@<TRIPOS>MOLECULE
tmp/3mi2A00.pdb
 182 171 0 0 0
SMALL
GASTEIGER

@<TRIPOS>ATOM
      1  N         31.8130   -7.9130   16.5030 N.3    35  SER35      -0.1217
      2  CA        30.7260   -7.9810   17.4840 C.3    35  SER35       0.1889
      3  C         31.2510   -8.7450   18.6940 C.2    35  SER35       0.2288
      4  O         31.3060   -9.9880   18.6690 O.2    35  SER35      -0.2866
      5  CB        29.4920   -8.6330   16.8630 C.3    35  SER35       0.2089
      6  OG        28.4080   -8.4920   17.7780 O.3    35  SER35      -0.2183
      7  N         30.7810  -10.3510   21.4350 N.3    37  ASP37      -0.1239
      8  CA        29.6590  -10.9450   22.1400 C.3    37  ASP37       0.1674
      9  C         30.1780  -11.9430   23.1680 C.2    37  ASP37       0.2266
     10  O         30.2720  -13.1640   22.9150 O.2    37  ASP37      -0.2867
     11  CB        28.6320  -11.5060   21.1530 C.3    37  ASP37       0.1410
     12  CG        27.8960  -10.3980   20.4100 C.2    37  ASP37       0.3668
     13  OD1       27.7370   -9.2940   21.0120 O.co2  37  ASP37      -0.2456
     14  OD2       27.4650  -10.6120   19.2610 O.co2  37  ASP37      -0.2456
     15  N         31.7780   -3.5300   18.3830 N.3    59  LYS59      -0.1245
     16  CA        30.3820   -3.4210   18.7870 C.3    59  LYS59       0.1561
     17  C         30.1770   -4.1680   20.0890 C.2    59  LYS59       0.2260
     18  O         30.5270   -5.3460   20.2060 O.2    59  LYS59      -0.2867
     19  CB        29.4770   -3.9650   17.6740 C.3    59  LYS59       0.0271
     20  CG        27.9860   -3.7910   17.9490 C.3    59  LYS59       0.0035
     21  CD        27.1190   -4.3600   16.8060 C.3    59  LYS59       0.0206
     22  CE        26.9350   -5.8850   16.8260 C.3    59  LYS59       0.1093
     23  NZ        26.3200   -6.3320   18.1330 N.3    59  LYS59      -0.1314
     24  N         27.5380   -5.2150   23.5220 N.3    61  HIS61      -0.1241
     25  CA        26.2330   -5.2810   24.2220 C.3    61  HIS61       0.1621
     26  C         26.6000   -5.1880   25.7120 C.2    61  HIS61       0.2264
     27  O         26.8140   -6.2040   26.4030 O.2    61  HIS61      -0.2867
     28  CB        25.4680   -6.5910   23.9810 C.3    61  HIS61       0.0745
     29  CG        24.8410   -6.7220   22.6240 C.ar   61  HIS61       0.0817
     30  ND1       23.8330   -5.9030   22.1620 N.ar   61  HIS61      -0.2268
     31  CD2       25.0510   -7.6310   21.6380 C.ar   61  HIS61       0.1154
     32  CE1       23.4610   -6.2860   20.9510 C.ar   61  HIS61       0.1986
     33  NE2       24.1840   -7.3410   20.6090 N.ar   61  HIS61      -0.2212
     34  N         25.4840   -1.4630   20.8040 N.3    89  ASP89      -0.1239
     35  CA        24.3660   -1.9770   20.0370 C.3    89  ASP89       0.1674
     36  C         23.1200   -2.0890   20.9200 C.2    89  ASP89       0.2266
     37  O         22.5910   -3.1820   21.1620 O.2    89  ASP89      -0.2867
     38  CB        24.7570   -3.3380   19.4640 C.3    89  ASP89       0.1410
     39  CG        23.7380   -3.8980   18.5080 C.2    89  ASP89       0.3668
     40  OD1       22.7450   -3.2210   18.1780 O.co2  89  ASP89      -0.2456
     41  OD2       23.9050   -5.0520   18.0550 O.co2  89  ASP89      -0.2456
     42  N         20.0700   -0.6240   20.4270 N.3    91  LYS91      -0.1245
     43  CA        18.7880   -0.6650   19.7290 C.3    91  LYS91       0.1561
     44  C         17.7130    0.1030   20.4950 C.2    91  LYS91       0.2260
     45  O         16.6290   -0.4130   20.7990 O.2    91  LYS91      -0.2867
     46  CB        18.3480   -2.1160   19.4300 C.3    91  LYS91       0.0271
     47  CG        19.3820   -2.9060   18.6280 C.3    91  LYS91       0.0035
     48  CD        18.7910   -4.2370   18.1660 C.3    91  LYS91       0.0206
     49  CE        19.5880   -4.8820   17.0390 C.3    91  LYS91       0.1093
     50  NZ        21.0000   -5.2030   17.3560 N.3    91  LYS91      -0.1314
     51  N         22.7620    2.7610   18.0960 N.3   118  ASN118     -0.1240
     52  CA        21.7510    2.5560   17.0680 C.3   118  ASN118      0.1653
     53  C         20.3540    2.6300   17.6510 C.2   118  ASN118      0.2266
     54  O         20.1650    2.5890   18.8910 O.2   118  ASN118     -0.2867
     55  CB        21.9530    1.2310   16.2880 C.3   118  ASN118      0.1155
     56  CG        21.9080   -0.0010   17.1820 C.2   118  ASN118      0.2627
     57  OD1       21.9250    0.0980   18.4140 O.2   118  ASN118     -0.2716
     58  ND2       21.9630   -1.1770   16.5670 N.am  118  ASN118     -0.0877
     59  N         18.2810    1.3570   12.2540 N.3   145  ILE145     -0.1245
     60  CA        18.0940   -0.0290   11.8090 C.3   145  ILE145      0.1561
     61  C         17.0480   -0.0620   10.6820 C.2   145  ILE145      0.2260
     62  O         15.8420    0.0400   10.9200 O.2   145  ILE145     -0.2867
     63  CB        17.7340   -0.9310   13.0070 C.3   145  ILE145      0.0252
     64  CG1       18.8450   -0.8790   14.0520 C.3   145  ILE145      0.0019
     65  CG2       17.5020   -2.3730   12.5480 C.3   145  ILE145      0.0019
     66  CD1       18.3960   -1.3520   15.4460 C.3   145  ILE145      0.0001
     67  N         16.9860   -2.4870    8.0840 N.3   147  GLU147     -0.1231
     68  CA        16.6660   -3.8740    7.7560 C.3   147  GLU147      0.1699
     69  C         17.2190   -4.7470    8.8800 C.2   147  GLU147      0.2592
     70  O         18.1270   -4.3410    9.6220 O.2   147  GLU147     -0.2718
     71  CB        17.3310   -4.3060    6.4400 C.3   147  GLU147      0.0402
     72  CG        16.8410   -3.5220    5.2330 C.3   147  GLU147      0.1161
     73  CD        17.5120   -3.9140    3.9320 C.2   147  GLU147      0.3649
     74  OE1       18.7210   -4.2400    3.9360 O.co2 147  GLU147     -0.2457
     75  OE2       16.8140   -3.8700    2.8950 O.co2 147  GLU147     -0.2457
     76  N         16.6980   -5.9700    8.9890 N.am  148  MET148     -0.1965
     77  CA        17.2370   -6.9490    9.9370 C.3   148  MET148      0.1736
     78  C         17.5330   -8.2610    9.2290 C.2   148  MET148      0.2617
     79  O         16.8840   -8.6050    8.2360 O.2   148  MET148     -0.2715
     80  CB        16.2920   -7.1960   11.1140 C.3   148  MET148      0.0427
     81  CG        16.1980   -5.9600   12.0290 C.3   148  MET148      0.0599
     82  SD        15.5030   -6.2870   13.6770 S.3   148  MET148     -0.1393
     83  CE        16.8590   -7.2130   14.4050 C.3   148  MET148      0.0692
     84  N         18.5210   -8.9650    9.7580 N.am  149  SER149     -0.1936
     85  CA        19.0340  -10.2120    9.1890 C.3   149  SER149      0.2055
     86  C         18.2400  -11.4540    9.5790 C.2   149  SER149      0.2643
     87  O         18.4650  -12.5430    9.0260 O.2   149  SER149     -0.2714
     88  CB        20.4860  -10.4160    9.6330 C.3   149  SER149      0.2130
     89  OG        20.6080  -10.4790   11.0520 O.3   149  SER149     -0.2179
     90  N         17.3180  -11.3100   10.5230 N.am  150  SER150     -0.1949
     91  CA        16.6390  -12.4330   11.1290 C.3   150  SER150      0.1924
     92  C         15.3480  -12.8260   10.4160 C.2   150  SER150      0.2314
     93  O         14.6980  -12.0290    9.7540 O.2   150  SER150     -0.2863
     94  CB        16.3850  -12.1220   12.5990 C.3   150  SER150      0.2116
     95  OG        15.9000  -10.8060   12.7890 O.3   150  SER150     -0.2180
     96  N         22.1060    0.2960   10.0320 N.3   178  ILE178     -0.1231
     97  CA        22.2490   -1.1500   10.0800 C.3   178  ILE178      0.1692
     98  C         21.2930   -1.6830    9.0380 C.2   178  ILE178      0.2592
     99  O         20.0720   -1.4320    9.0840 O.2   178  ILE178     -0.2718
    100  CB        21.8870   -1.7260   11.4630 C.3   178  ILE178      0.0266
    101  CG1       22.6110   -0.9830   12.5940 C.3   178  ILE178      0.0019
    102  CG2       22.1760   -3.2250   11.4820 C.3   178  ILE178      0.0020
    103  CD1       24.1100   -0.9350   12.4840 C.3   178  ILE178      0.0001
    104  N         21.8410   -2.3850    8.0540 N.am  179  SER179     -0.1952
    105  CA        21.0380   -2.9090    6.9560 C.3   179  SER179      0.1924
    106  C         21.7080   -4.1240    6.3270 C.2   179  SER179      0.2314
    107  O         22.8840   -4.3930    6.5910 O.2   179  SER179     -0.2863
    108  CB        20.7950   -1.8320    5.8970 C.3   179  SER179      0.2116
    109  OG        22.0170   -1.3340    5.3710 O.3   179  SER179     -0.2180
    110  N         25.1600   -6.7850    9.6810 N.3   194  PRO194     -0.2102
    111  CA        25.3000   -7.9810   10.5240 C.3   194  PRO194      0.1504
    112  C         24.6610   -9.1760    9.8180 C.2   194  PRO194      0.2576
    113  O         24.0810   -9.0230    8.7310 O.2   194  PRO194     -0.2718
    114  CB        24.5040   -7.5970   11.7700 C.3   194  PRO194      0.0282
    115  CG        23.3730   -6.7840   11.2180 C.3   194  PRO194      0.0208
    116  CD        23.9160   -6.0450    9.9900 C.3   194  PRO194      0.0893
    117  N         24.7330  -10.3460   10.4490 N.am  195  GLY195     -0.1943
    118  CA        24.3270  -11.6090    9.8080 C.3   195  GLY195      0.2014
    119  C         25.3170  -12.0380    8.7390 C.2   195  GLY195      0.2638
    120  O         24.9430  -12.3470    7.5890 O.2   195  GLY195     -0.2714
    121  N         26.5830  -12.0530    9.1500 N.am  196  VAL196     -0.1977
    122  CA        27.6680  -12.3390    8.2160 C.3   196  VAL196      0.1596
    123  C         28.5100  -13.4950    8.7230 C.2   196  VAL196      0.2287
    124  O         28.9620  -13.5110    9.8690 O.2   196  VAL196     -0.2864
    125  CB        28.5460  -11.0820    7.9780 C.3   196  VAL196      0.0276
    126  CG1       29.8260  -11.4080    7.1610 C.3   196  VAL196      0.0022
    127  CG2       27.7480  -10.0010    7.3260 C.3   196  VAL196      0.0022
    128  N         18.6490  -16.2730   13.2790 N.3   207  GLN207     -0.1245
    129  CA        19.7240  -15.5660   12.5910 C.3   207  GLN207      0.1566
    130  C         20.0010  -16.2500   11.2560 C.2   207  GLN207      0.2260
    131  O         19.9990  -17.4810   11.1760 O.2   207  GLN207     -0.2867
    132  CB        20.9930  -15.5430   13.4380 C.3   207  GLN207      0.0367
    133  CG        22.2040  -14.8490   12.8020 C.3   207  GLN207      0.0905
    134  CD        22.0280  -13.3620   12.5950 C.2   207  GLN207      0.2608
    135  OE1       21.0570  -12.9170   11.9780 O.2   207  GLN207     -0.2717
    136  NE2       22.9830  -12.5860   13.1210 N.am  207  GLN207     -0.0878
    137  N         22.7650  -16.0470    7.8060 N.3   209  TYR209     -0.1241
    138  CA        24.0490  -15.5270    7.3540 C.3   209  TYR209      0.1605
    139  C         24.1750  -15.3540    5.8560 C.2   209  TYR209      0.2264
    140  O         23.6370  -16.1480    5.0650 O.2   209  TYR209     -0.2867
    141  CB        25.1870  -16.4130    7.8890 C.3   209  TYR209      0.0534
    142  CG        25.2670  -16.3930    9.3830 C.ar  209  TYR209     -0.0201
    143  CD1       25.0400  -17.5240   10.1260 C.ar  209  TYR209     -0.0009
    144  CD2       25.5510  -15.2030   10.0480 C.ar  209  TYR209     -0.0009
    145  CE1       25.0900  -17.4830   11.5230 C.ar  209  TYR209      0.0417
    146  CE2       25.6130  -15.1450   11.4360 C.ar  209  TYR209      0.0417
    147  CZ        25.3600  -16.2840   12.1610 C.ar  209  TYR209      0.1957
    148  OH        25.4180  -16.2620   13.5370 O.3   209  TYR209     -0.2866
    149  N         29.5760   -6.7430   10.1790 N.3   225  ILE225     -0.1231
    150  CA        29.5640   -6.9600   11.6370 C.3   225  ILE225      0.1692
    151  C         29.5420   -8.4670   11.8590 C.2   225  ILE225      0.2592
    152  O         28.6220   -9.1350   11.4000 O.2   225  ILE225     -0.2718
    153  CB        28.2920   -6.3400   12.2690 C.3   225  ILE225      0.0266
    154  CG1       28.2640   -4.7980   12.1070 C.3   225  ILE225      0.0019
    155  CG2       28.0910   -6.7990   13.7060 C.3   225  ILE225      0.0020
    156  CD1       26.8790   -4.1760   12.3920 C.3   225  ILE225      0.0001
    157  N         30.5480   -8.9590   12.5620 N.am  226  VAL226     -0.1966
    158  CA        30.7090  -10.4090   12.7250 C.3   226  VAL226      0.1727
    159  C         30.8820  -10.7190   14.2080 C.2   226  VAL226      0.2617
    160  O         31.8260  -10.2300   14.8630 O.2   226  VAL226     -0.2715
    161  CB        31.9340  -10.9110   11.9300 C.3   226  VAL226      0.0290
    162  CG1       32.1680  -12.4160   12.1580 C.3   226  VAL226      0.0023
    163  CG2       31.7830  -10.6170   10.4500 C.3   226  VAL226      0.0023
    164  N         30.0130  -11.6040   14.7220 N.am  227  GLY227     -0.1940
    165  CA        30.0870  -12.0850   16.1040 C.3   227  GLY227      0.2014
    166  C         30.6690  -13.4850   16.1600 C.2   227  GLY227      0.2639
    167  O         31.8860  -13.6530   16.0850 O.2   227  GLY227     -0.2714
    168  N         29.7940  -14.4880   16.2140 N.am  228  ARG228     -0.1963
    169  CA        30.2010  -15.9010   16.3950 C.3   228  ARG228      0.1729
    170  C         31.2120  -16.4270   15.3870 C.2   228  ARG228      0.2616
    171  O         32.0650  -17.2440   15.7430 O.2   228  ARG228     -0.2715
    172  CB        28.9660  -16.8020   16.4860 C.3   228  ARG228      0.0348
    173  CG        28.2970  -16.6980   17.8440 C.3   228  ARG228      0.0492
    174  CD        26.8650  -17.2360   17.8460 C.3   228  ARG228      0.2205
    175  NE        25.9460  -16.3450   17.1390 N.pl3 228  ARG228     -0.0865
    176  CZ        24.6470  -16.5540   17.0120 C.cat 228  ARG228      0.5346
    177  NH1       23.8920  -15.6800   16.3480 N.pl3 228  ARG228      0.1354
    178  NH2       24.0880  -17.6480   17.5600 N.pl3 228  ARG228      0.1354
    179  N         31.1440  -15.9360   14.1490 N.am  229  GLY229     -0.1955
    180  CA        32.1020  -16.3420   13.1230 C.3   229  GLY229      0.1869
    181  C         33.5350  -16.1140   13.5710 C.2   229  GLY229      0.2309
    182  O         34.4570  -16.8370   13.1620 O.2   229  GLY229     -0.2863
@<TRIPOS>BOND
     1    75    73   ar
     2    73    74   ar
     3    73    72    1
     4   140   139    2
     5    72    71    1
     6   109   108    1
     7   139   138    1
     8   108   105    1
     9   106   107    2
    10   106   105    1
    11    71    68    1
    12   105   104    1
    13   126   125    1
    14   127   125    1
    15   138   137    1
    16   138   141    1
    17   120   119    2
    18    68    67    1
    19    68    69    1
    20   141   142    1
    21   125   122    1
    22   104    98   am
    23   122   123    1
    24   122   121    1
    25    79    78    2
    26   123   124    2
    27   113   112    2
    28   119   121   am
    29   119   118    1
    30    69    76   am
    31    69    70    2
    32    76    77    1
    33    87    86    2
    34    98    99    2
    35    98    97    1
    36    85    86    1
    37    85    88    1
    38    85    84    1
    39    78    84   am
    40    78    77    1
    41   142   144   ar
    42   142   143   ar
    43    86    90   am
    44    88    89    1
    45   110   116    1
    46   110   111    1
    47    93    92    2
    48   118   117    1
    49   112   117   am
    50   112   111    1
    51    77    80    1
    52   116   115    1
    53    96    97    1
    54   144   146   ar
    55    97   100    1
    56   143   145   ar
    57   149   150    1
    58    92    91    1
    59   163   161    1
    60    90    91    1
    61   111   114    1
    62    61    62    2
    63    61    60    1
    64    80    81    1
    65    91    94    1
    66   131   130    2
    67   115   114    1
    68   130   129    1
    69   152   151    2
    70   146   147   ar
    71   100   102    1
    72   100   101    1
    73   145   147   ar
    74   150   151    1
    75   150   153    1
    76    60    59    1
    77    60    63    1
    78   151   157   am
    79   161   162    1
    80   161   158    1
    81   135   134    2
    82    81    82    1
    83   154   153    1
    84   154   156    1
    85   147   148    1
    86   153   155    1
    87   103   101    1
    88    65    63    1
    89   157   158    1
    90   129   128    1
    91   129   132    1
    92   134   133    1
    93   134   136   am
    94    94    95    1
    95   158   159    1
    96   133   132    1
    97    63    64    1
    98   180   181    1
    99   180   179    1
   100   182   181    2
   101    82    83    1
   102    64    66    1
   103   179   170   am
   104   159   164   am
   105   159   160    2
   106   164   165    1
   107   170   171    2
   108   170   169    1
   109   167   166    2
   110   165   166    1
   111   166   168   am
   112   168   169    1
   113    55    52    1
   114    55    56    1
   115   177   176    1
   116   169   172    1
   117   172   173    1
   118     1     2    1
   119    58    56   am
   120    21    22    1
   121    21    20    1
   122    22    23    1
   123     5     2    1
   124     5     6    1
   125   176   175    2
   126   176   178    1
   127    49    50    1
   128    49    48    1
   129    52    53    1
   130    52    51    1
   131   175   174    1
   132    56    57    2
   133     2     3    1
   134    53    54    2
   135    19    20    1
   136    19    16    1
   137   173   174    1
   138    41    39   ar
   139    48    47    1
   140    40    39   ar
   141    15    16    1
   142    39    38    1
   143    47    46    1
   144     4     3    2
   145    16    17    1
   146    14    12   ar
   147    46    43    1
   148    38    35    1
   149    43    42    1
   150    43    44    1
   151    35    34    1
   152    35    36    1
   153    17    18    2
   154    12    13   ar
   155    12    11    1
   156    44    45    2
   157    33    32   ar
   158    33    31   ar
   159    36    37    2
   160    32    30   ar
   161    11     8    1
   162     7     8    1
   163    31    29   ar
   164     8     9    1
   165    30    29   ar
   166    29    28    1
   167    10     9    2
   168    24    25    1
   169    28    25    1
   170    25    26    1
   171    26    27    2
