@<TRIPOS>MOLECULE
tmp/3mi3A00.pdb
 146 135 0 0 0
SMALL
GASTEIGER

@<TRIPOS>ATOM
      1  N        -37.9040    4.2810  -19.7000 N.3    20  ARG20      -0.1231
      2  CA       -38.6490    5.5230  -19.8650 C.3    20  ARG20       0.1694
      3  C        -38.6430    6.2630  -18.5300 C.2    20  ARG20       0.2591
      4  O        -37.9090    7.2130  -18.3640 O.2    20  ARG20      -0.2718
      5  CB       -40.0670    5.2680  -20.4200 C.3    20  ARG20       0.0321
      6  CG       -40.9280    6.5200  -20.6490 C.3    20  ARG20       0.0489
      7  CD       -41.9290    6.6550  -19.4830 C.3    20  ARG20       0.2205
      8  NE       -43.1700    7.3040  -19.8900 N.pl3  20  ARG20      -0.0865
      9  CZ       -43.4100    8.6190  -19.8100 C.cat  20  ARG20       0.5346
     10  NH1      -42.4880    9.4550  -19.2960 N.pl3  20  ARG20       0.1354
     11  NH2      -44.5850    9.0920  -20.2260 N.pl3  20  ARG20       0.1354
     12  N        -39.4230    5.7880  -17.5680 N.am   21  GLU21      -0.1979
     13  CA       -39.3580    6.3100  -16.2000 C.3    21  GLU21       0.1602
     14  C        -37.9350    6.2820  -15.6200 C.2    21  GLU21       0.2287
     15  O        -37.4990    7.2350  -14.9820 O.2    21  GLU21      -0.2864
     16  CB       -40.3460    5.5480  -15.3100 C.3    21  GLU21       0.0415
     17  CG       -40.3650    5.9840  -13.8410 C.3    21  GLU21       0.1163
     18  CD       -40.9610    7.3760  -13.6310 C.2    21  GLU21       0.3649
     19  OE1      -42.0980    7.6710  -14.1580 O.co2  21  GLU21      -0.2457
     20  OE2      -40.2780    8.1700  -12.9250 O.co2  21  GLU21      -0.2457
     21  N        -35.3110    8.9940  -15.8790 N.3    24  GLN24      -0.1245
     22  CA       -35.4330   10.0870  -14.8930 C.3    24  GLN24       0.1566
     23  C        -34.7710    9.8210  -13.5290 C.2    24  GLN24       0.2260
     24  O        -34.7460   10.7100  -12.6590 O.2    24  GLN24      -0.2867
     25  CB       -36.8850   10.4590  -14.6750 C.3    24  GLN24       0.0367
     26  CG       -37.5030   11.1980  -15.8630 C.3    24  GLN24       0.0905
     27  CD       -38.9130   11.7250  -15.5560 C.2    24  GLN24       0.2608
     28  OE1      -39.1170   12.9430  -15.3490 O.2    24  GLN24      -0.2717
     29  NE2      -39.8780   10.8140  -15.4910 N.am   24  GLN24      -0.0878
     30  N        -41.6800    0.3230  -22.3040 N.3    51  GLU51      -0.1245
     31  CA       -41.8440    1.6960  -22.7620 C.3    51  GLU51       0.1567
     32  C        -40.5090    2.4340  -22.8840 C.2    51  GLU51       0.2260
     33  O        -39.6270    2.2730  -22.0380 O.2    51  GLU51      -0.2867
     34  CB       -42.8300    2.4810  -21.8810 C.3    51  GLU51       0.0388
     35  CG       -43.2470    3.7870  -22.5850 C.3    51  GLU51       0.1160
     36  CD       -44.3750    4.5500  -21.9220 C.2    51  GLU51       0.3649
     37  OE1      -44.3480    4.6960  -20.6950 O.co2  51  GLU51      -0.2457
     38  OE2      -45.2640    5.0590  -22.6430 O.co2  51  GLU51      -0.2457
     39  N        -48.4510    6.4010  -26.5050 N.3   100  ASP100     -0.1239
     40  CA       -49.2690    7.0690  -25.4680 C.3   100  ASP100      0.1674
     41  C        -49.3110    8.5730  -25.7600 C.2   100  ASP100      0.2266
     42  O        -48.2670    9.1850  -25.9200 O.2   100  ASP100     -0.2867
     43  CB       -48.6250    6.8480  -24.1040 C.3   100  ASP100      0.1410
     44  CG       -49.5300    7.2670  -22.9150 C.2   100  ASP100      0.3668
     45  OD1      -50.7390    7.5520  -23.1220 O.co2 100  ASP100     -0.2456
     46  OD2      -49.0170    7.2930  -21.7560 O.co2 100  ASP100     -0.2456
     47  N        -50.1250   11.9410  -24.0060 N.3   102  VAL102     -0.1245
     48  CA       -50.2320   12.4150  -22.6190 C.3   102  VAL102      0.1561
     49  C        -50.6730   13.8750  -22.5870 C.2   102  VAL102      0.2260
     50  O        -50.1530   14.7060  -23.3380 O.2   102  VAL102     -0.2867
     51  CB       -48.9290   12.2350  -21.8200 C.3   102  VAL102      0.0252
     52  CG1      -49.1630   12.5630  -20.3530 C.3   102  VAL102      0.0019
     53  CG2      -48.3720   10.8080  -21.9700 C.3   102  VAL102      0.0019
     54  N        -52.7830    4.9440  -26.8370 N.3   129  ARG129     -0.1245
     55  CA       -53.2220    5.1060  -25.4650 C.3   129  ARG129      0.1563
     56  C        -53.3650    6.5850  -25.1610 C.2   129  ARG129      0.2260
     57  O        -52.6630    7.4000  -25.7200 O.2   129  ARG129     -0.2867
     58  CB       -52.2210    4.4850  -24.5030 C.3   129  ARG129      0.0307
     59  CG       -51.5330    3.2610  -25.0530 C.3   129  ARG129      0.0489
     60  CD       -50.4370    2.8580  -24.1070 C.3   129  ARG129      0.2205
     61  NE       -49.1860    3.4040  -24.5730 N.pl3 129  ARG129     -0.0865
     62  CZ       -48.1550    3.7080  -23.8050 C.cat 129  ARG129      0.5346
     63  NH1      -48.1800    3.5270  -22.4830 N.pl3 129  ARG129      0.1354
     64  NH2      -47.0890    4.2140  -24.3870 N.pl3 129  ARG129      0.1354
     65  N        -53.6380    9.4020  -21.9410 N.3   131  SER131     -0.1202
     66  CA       -53.3110    9.4600  -20.5320 C.3   131  SER131      0.2020
     67  C        -53.3020   10.8530  -20.0150 C.2   131  SER131      0.2619
     68  O        -53.1640   11.8240  -20.7830 O.2   131  SER131     -0.2717
     69  CB       -51.9520    8.8360  -20.2630 C.3   131  SER131      0.2103
     70  OG       -51.9640    7.4820  -20.6530 O.3   131  SER131     -0.2182
     71  N        -53.4740   10.9450  -18.6980 N.am  132  SER132     -0.1937
     72  CA       -53.3360   12.2140  -18.0000 C.3   132  SER132      0.2055
     73  C        -52.2050   12.1190  -16.9750 C.2   132  SER132      0.2642
     74  O        -51.9350   11.0560  -16.3820 O.2   132  SER132     -0.2714
     75  CB       -54.6490   12.6400  -17.3310 C.3   132  SER132      0.2130
     76  OG       -54.9740   11.7610  -16.2670 O.3   132  SER132     -0.2179
     77  N        -51.5550   13.2620  -16.8020 N.am  133  GLU133     -0.1976
     78  CA       -50.4950   13.4550  -15.8380 C.3   133  GLU133      0.1602
     79  C        -51.1060   14.0470  -14.5670 C.2   133  GLU133      0.2287
     80  O        -51.9570   14.9210  -14.6410 O.2   133  GLU133     -0.2864
     81  CB       -49.4720   14.4160  -16.4330 C.3   133  GLU133      0.0415
     82  CG       -48.3710   14.8020  -15.4770 C.3   133  GLU133      0.1163
     83  CD       -47.2250   15.4700  -16.1890 C.2   133  GLU133      0.3649
     84  OE1      -46.8180   14.9390  -17.2430 O.co2 133  GLU133     -0.2457
     85  OE2      -46.7320   16.4990  -15.6920 O.co2 133  GLU133     -0.2457
     86  N        -54.9580    5.9010  -19.5930 N.3   159  GLY159     -0.1210
     87  CA       -53.9400    5.8370  -18.5540 C.3   159  GLY159      0.1956
     88  C        -54.2190    6.7930  -17.4260 C.2   159  GLY159      0.2612
     89  O        -54.5910    7.9560  -17.6660 O.2   159  GLY159     -0.2717
     90  N        -54.0510    6.2780  -16.2010 N.am  160  ILE160     -0.1965
     91  CA       -54.0520    7.0690  -14.9600 C.3   160  ILE160      0.1727
     92  C        -52.6030    7.1640  -14.4530 C.2   160  ILE160      0.2616
     93  O        -51.9130    6.1510  -14.3890 O.2   160  ILE160     -0.2715
     94  CB       -55.0000    6.4010  -13.8870 C.3   160  ILE160      0.0290
     95  CG1      -56.4550    6.5070  -14.3280 C.3   160  ILE160      0.0022
     96  CG2      -54.8040    6.9640  -12.4860 C.3   160  ILE160      0.0023
     97  CD1      -57.0290    7.9090  -14.2790 C.3   160  ILE160      0.0001
     98  N        -52.1160    8.3640  -14.1440 N.am  161  ALA161     -0.1977
     99  CA       -50.7570    8.5140  -13.5870 C.3   161  ALA161      0.1597
    100  C        -50.7500    9.2970  -12.2680 C.2   161  ALA161      0.2287
    101  O        -51.1410   10.4470  -12.2290 O.2   161  ALA161     -0.2864
    102  CB       -49.8010    9.1430  -14.5830 C.3   161  ALA161      0.0319
    103  N        -48.4500   11.1060  -10.6580 N.3   163  THR163     -0.1218
    104  CA       -47.1470   11.6600  -10.9500 C.3   163  THR163      0.1862
    105  C        -46.4810   12.2010   -9.6870 C.2   163  THR163      0.2287
    106  O        -45.2560   12.2180   -9.6090 O.2   163  THR163     -0.2866
    107  CB       -47.2890   12.7960  -12.0110 C.3   163  THR163      0.1770
    108  OG1      -47.9870   12.2750  -13.1340 O.3   163  THR163     -0.2211
    109  CG2      -45.9610   13.3230  -12.4770 C.3   163  THR163      0.0375
    110  N        -54.4700    1.4700  -18.0680 N.3   188  GLU188     -0.1245
    111  CA       -53.1150    1.4140  -17.5350 C.3   188  GLU188      0.1567
    112  C        -52.8680    2.4040  -16.3910 C.2   188  GLU188      0.2260
    113  O        -53.4620    3.4960  -16.3380 O.2   188  GLU188     -0.2867
    114  CB       -52.0750    1.5370  -18.6460 C.3   188  GLU188      0.0388
    115  CG       -51.7050    2.9240  -19.0240 C.3   188  GLU188      0.1160
    116  CD       -50.7960    2.9740  -20.2460 C.2   188  GLU188      0.3649
    117  OE1      -51.1710    2.4420  -21.3140 O.co2 188  GLU188     -0.2457
    118  OE2      -49.7070    3.5760  -20.1370 O.co2 188  GLU188     -0.2457
    119  N        -49.9440    4.1300  -13.4820 N.3   190  HIS190     -0.1241
    120  CA       -48.5870    4.5300  -13.2050 C.3   190  HIS190      0.1621
    121  C        -48.5080    5.2060  -11.8340 C.2   190  HIS190      0.2264
    122  O        -49.1600    6.2420  -11.6070 O.2   190  HIS190     -0.2867
    123  CB       -48.1710    5.4920  -14.2980 C.3   190  HIS190      0.0745
    124  CG       -46.7510    5.9320  -14.1960 C.ar  190  HIS190      0.0817
    125  ND1      -45.7300    5.3010  -14.8710 N.ar  190  HIS190     -0.2268
    126  CD2      -46.1820    6.9390  -13.4970 C.ar  190  HIS190      0.1154
    127  CE1      -44.5920    5.8970  -14.5870 C.ar  190  HIS190      0.1986
    128  NE2      -44.8410    6.8990  -13.7620 N.ar  190  HIS190     -0.2212
    129  N        -46.2760    6.7450   -8.4850 N.3   192  HIS192     -0.1241
    130  CA       -45.0520    7.1690   -7.8330 C.3   192  HIS192      0.1621
    131  C        -45.0120    6.7770   -6.3360 C.2   192  HIS192      0.2264
    132  O        -46.0620    6.6700   -5.6440 O.2   192  HIS192     -0.2867
    133  CB       -44.7680    8.6540   -8.1130 C.3   192  HIS192      0.0745
    134  CG       -44.0320    8.8750   -9.3990 C.ar  192  HIS192      0.0817
    135  ND1      -42.6580    8.9880   -9.4620 N.ar  192  HIS192     -0.2268
    136  CD2      -44.4730    8.9500  -10.6820 C.ar  192  HIS192      0.1154
    137  CE1      -42.2850    9.1200  -10.7230 C.ar  192  HIS192      0.1986
    138  NE2      -43.3670    9.1080  -11.4870 N.ar  192  HIS192     -0.2212
    139  N        -47.4570   -0.0180  -14.8980 N.3   214  ASP214     -0.1239
    140  CA       -46.0700    0.4150  -15.1080 C.3   214  ASP214      0.1674
    141  C        -45.1940    0.0100  -13.9430 C.2   214  ASP214      0.2266
    142  O        -45.5570    0.2150  -12.7690 O.2   214  ASP214     -0.2867
    143  CB       -45.9690    1.9340  -15.1760 C.3   214  ASP214      0.1410
    144  CG       -46.5540    2.5330  -16.4390 C.2   214  ASP214      0.3668
    145  OD1      -47.3840    1.9080  -17.1560 O.co2 214  ASP214     -0.2456
    146  OD2      -46.1810    3.6910  -16.6910 O.co2 214  ASP214     -0.2456
@<TRIPOS>BOND
     1    54    55    1
     2    39    40    1
     3    42    41    2
     4    41    40    1
     5    57    56    2
     6    40    43    1
     7    55    56    1
     8    55    58    1
     9    59    58    1
    10    59    60    1
    11    61    60    1
    12    61    62    2
    13    64    62    1
    14    43    44    1
    15    47    48    1
    16    62    63    1
    17    50    49    2
    18    45    44   ar
    19    44    46   ar
    20    32    31    1
    21    32    33    2
    22    31    30    1
    23    31    34    1
    24    38    36   ar
    25    48    49    1
    26    48    51    1
    27    35    36    1
    28    35    34    1
    29    53    51    1
    30    65    66    1
    31    36    37   ar
    32    51    52    1
    33   117   116   ar
    34    68    67    2
    35    70    69    1
    36     6     5    1
    37     6     7    1
    38    66    69    1
    39    66    67    1
    40     5     2    1
    41   116   118   ar
    42   116   115    1
    43    11     9    1
    44    67    71   am
    45     8     9    2
    46     8     7    1
    47     2     1    1
    48     2     3    1
    49     9    10    1
    50    86    87    1
    51   115   114    1
    52    71    72    1
    53   114   111    1
    54    87    88    1
    55     3     4    2
    56     3    12   am
    57   110   111    1
    58    72    75    1
    59    72    73    1
    60    89    88    2
    61    12    13    1
    62   111   112    1
    63    88    90   am
    64    75    76    1
    65    84    83   ar
    66   145   144   ar
    67    73    77   am
    68    73    74    2
    69    77    78    1
    70   146   144   ar
    71   144   143    1
    72    81    78    1
    73    81    82    1
    74   112   113    2
    75    90    91    1
    76    13    14    1
    77    13    16    1
    78    83    85   ar
    79    83    82    1
    80    21    22    1
    81    26    27    1
    82    26    25    1
    83    78    79    1
    84    14    15    2
    85    27    29   am
    86    27    28    2
    87    16    17    1
    88   143   140    1
    89   140   139    1
    90   140   141    1
    91    91    92    1
    92    91    94    1
    93    22    25    1
    94    22    23    1
    95   125   127   ar
    96   125   124   ar
    97    80    79    2
    98   127   128   ar
    99   102    99    1
   100    92    93    2
   101    92    98   am
   102    95    97    1
   103    95    94    1
   104   123   124    1
   105   123   120    1
   106   124   126   ar
   107    19    18   ar
   108    98    99    1
   109   141   142    2
   110    94    96    1
   111    17    18    1
   112   128   126   ar
   113    18    20   ar
   114    99   100    1
   115    23    24    2
   116   119   120    1
   117   120   121    1
   118   108   107    1
   119   109   107    1
   120   100   101    2
   121   107   104    1
   122   121   122    2
   123   138   137   ar
   124   138   136   ar
   125   104   103    1
   126   104   105    1
   127   137   135   ar
   128   136   134   ar
   129   105   106    2
   130   135   134   ar
   131   134   133    1
   132   129   130    1
   133   133   130    1
   134   130   131    1
   135   131   132    2
