@<TRIPOS>MOLECULE
tmp/3miaA00.pdb
 136 127 0 0 0
SMALL
GASTEIGER

@<TRIPOS>ATOM
      1  N         66.2910   17.3370   26.3410 N.3    18  ILE18      -0.1245
      2  CA        66.5990   17.5610   27.7380 C.3    18  ILE18       0.1561
      3  C         65.9960   16.4250   28.5580 C.2    18  ILE18       0.2260
      4  O         64.7800   16.3670   28.7590 O.2    18  ILE18      -0.2867
      5  CB        66.0300   18.9090   28.2130 C.3    18  ILE18       0.0252
      6  CG1       66.4380   20.0150   27.2350 C.3    18  ILE18       0.0019
      7  CG2       66.5720   19.2520   29.5890 C.3    18  ILE18       0.0019
      8  CD1       65.8760   21.3770   27.5730 C.3    18  ILE18       0.0001
      9  N         59.6330   14.9720   23.6750 N.3    25  GLU25      -0.1231
     10  CA        59.0250   15.6520   24.8130 C.3    25  GLU25       0.1699
     11  C         59.6390   17.0410   25.0730 C.2    25  GLU25       0.2592
     12  O         59.0380   18.0450   24.7100 O.2    25  GLU25      -0.2718
     13  CB        59.1320   14.7760   26.0620 C.3    25  GLU25       0.0402
     14  CG        57.8710   14.7720   26.8970 C.3    25  GLU25       0.1161
     15  CD        58.0100   13.9520   28.1690 C.2    25  GLU25       0.3649
     16  OE1       58.6390   14.4510   29.1380 O.co2  25  GLU25      -0.2457
     17  OE2       57.4940   12.8070   28.1970 O.co2  25  GLU25      -0.2457
     18  N         60.8150   17.1150   25.6920 N.am   26  VAL26      -0.1980
     19  CA        61.4420   18.4110   25.9530 C.3    26  VAL26       0.1595
     20  C         62.7360   18.5940   25.1740 C.2    26  VAL26       0.2287
     21  O         63.5980   17.7200   25.1730 O.2    26  VAL26      -0.2864
     22  CB        61.7450   18.6040   27.4430 C.3    26  VAL26       0.0276
     23  CG1       62.6260   19.8280   27.6450 C.3    26  VAL26       0.0022
     24  CG2       60.4570   18.7690   28.2090 C.3    26  VAL26       0.0022
     25  N         63.5580   26.4390   25.9680 N.3    39  ALA39      -0.1245
     26  CA        63.3290   25.0200   26.1980 C.3    39  ALA39       0.1562
     27  C         61.9480   24.7640   25.6450 C.2    39  ALA39       0.2260
     28  O         60.9730   25.3630   26.1050 O.2    39  ALA39      -0.2867
     29  CB        63.3660   24.6840   27.6730 C.3    39  ALA39       0.0290
     30  N         58.7600   22.4990   25.1460 N.3    41  LYS41      -0.1245
     31  CA        58.0980   21.4220   25.8590 C.3    41  LYS41       0.1561
     32  C         56.8350   21.0880   25.0980 C.2    41  LYS41       0.2260
     33  O         55.8950   21.8700   25.0880 O.2    41  LYS41      -0.2867
     34  CB        57.7490   21.8980   27.2690 C.3    41  LYS41       0.0271
     35  CG        57.4150   20.8210   28.2910 C.3    41  LYS41       0.0035
     36  CD        56.7450   21.4600   29.5040 C.3    41  LYS41       0.0206
     37  CE        56.0630   20.4290   30.3950 C.3    41  LYS41       0.1093
     38  NZ        55.3250   21.0460   31.5380 N.3    41  LYS41      -0.1314
     39  N         59.4990   30.0310   36.5220 N.3    72  VAL72      -0.1245
     40  CA        59.8790   29.7580   35.1450 C.3    72  VAL72       0.1561
     41  C         59.0760   30.7020   34.2730 C.2    72  VAL72       0.2260
     42  O         57.9550   31.0560   34.6090 O.2    72  VAL72      -0.2867
     43  CB        59.6030   28.2810   34.7480 C.3    72  VAL72       0.0252
     44  CG1       58.1660   28.0840   34.3480 C.3    72  VAL72       0.0019
     45  CG2       60.4940   27.8930   33.6160 C.3    72  VAL72       0.0019
     46  N         59.9260   28.1160   26.8970 N.3    88  PHE88      -0.1227
     47  CA        60.3720   28.8160   28.1260 C.3    88  PHE88       0.1736
     48  C         61.7800   29.3570   27.9880 C.2    88  PHE88       0.2595
     49  O         62.4880   29.0370   27.0460 O.2    88  PHE88      -0.2718
     50  CB        60.4290   27.8730   29.3390 C.3    88  PHE88       0.0547
     51  CG        59.1580   27.1670   29.6340 C.ar   88  PHE88      -0.0202
     52  CD1       58.2400   27.7030   30.5320 C.ar   88  PHE88      -0.0042
     53  CD2       58.8680   25.9630   29.0130 C.ar   88  PHE88      -0.0042
     54  CE1       57.0310   27.0340   30.8060 C.ar   88  PHE88      -0.0003
     55  CE2       57.6850   25.2910   29.2690 C.ar   88  PHE88      -0.0003
     56  CZ        56.7550   25.8250   30.1710 C.ar   88  PHE88      -0.0000
     57  N         62.1980   30.1610   28.9510 N.am   89  ASP89      -0.1960
     58  CA        63.5620   30.6350   28.9380 C.3    89  ASP89       0.1840
     59  C         64.3820   29.4980   29.5410 C.2    89  ASP89       0.2622
     60  O         64.1670   29.0610   30.6720 O.2    89  ASP89      -0.2715
     61  CB        63.7360   31.8780   29.7950 C.3    89  ASP89       0.1450
     62  CG        63.1430   33.0990   29.1660 C.2    89  ASP89       0.3671
     63  OD1       62.8420   33.0450   27.9580 O.co2  89  ASP89      -0.2456
     64  OD2       62.9870   34.1250   29.8660 O.co2  89  ASP89      -0.2456
     65  N         65.3400   29.0250   28.7740 N.am   90  PHE90      -0.1960
     66  CA        66.2140   27.9560   29.1950 C.3    90  PHE90       0.1771
     67  C         66.9900   28.1680   30.5060 C.2    90  PHE90       0.2620
     68  O         67.5960   29.2050   30.7230 O.2    90  PHE90      -0.2715
     69  CB        67.2000   27.7120   28.0860 C.3    90  PHE90       0.0574
     70  CG        68.0420   26.5500   28.3190 C.ar   90  PHE90      -0.0200
     71  CD1       67.5500   25.2760   28.0650 C.ar   90  PHE90      -0.0042
     72  CD2       69.3040   26.7080   28.8600 C.ar   90  PHE90      -0.0042
     73  CE1       68.3000   24.1800   28.3490 C.ar   90  PHE90      -0.0003
     74  CE2       70.0630   25.6220   29.1510 C.ar   90  PHE90      -0.0003
     75  CZ        69.5660   24.3510   28.8980 C.ar   90  PHE90      -0.0000
     76  N         66.9770   27.1610   31.3680 N.am   91  CYS91      -0.1954
     77  CA        67.6920   27.1880   32.6360 C.3    91  CYS91       0.1843
     78  C         68.6880   26.0340   32.5750 C.2    91  CYS91       0.2625
     79  O         68.2950   24.8790   32.3320 O.2    91  CYS91      -0.2714
     80  CB        66.7100   26.9660   33.7840 C.3    91  CYS91       0.0997
     81  SG        65.4920   28.2820   33.9650 S.3    91  CYS91      -0.0797
     82  N         69.9690   26.3120   32.8070 N.am   92  GLU92      -0.1977
     83  CA        70.9560   25.2420   32.7100 C.3    92  GLU92       0.1602
     84  C         70.7240   24.0200   33.6010 C.2    92  GLU92       0.2287
     85  O         70.7590   22.9210   33.0970 O.2    92  GLU92      -0.2864
     86  CB        72.3740   25.7930   32.9080 C.3    92  GLU92       0.0415
     87  CG        73.5110   24.8090   32.5380 C.3    92  GLU92       0.1163
     88  CD        73.4370   24.2600   31.0910 C.2    92  GLU92       0.3649
     89  OE1       73.4510   25.0710   30.1260 O.co2  92  GLU92      -0.2457
     90  OE2       73.3770   23.0130   30.9170 O.co2  92  GLU92      -0.2457
     91  N         68.7500   21.7180   37.0810 N.3    94  ASP94      -0.1239
     92  CA        67.6000   21.5010   37.9390 C.3    94  ASP94       0.1674
     93  C         68.1630   21.0520   39.2860 C.2    94  ASP94       0.2266
     94  O         69.1610   20.3560   39.3480 O.2    94  ASP94      -0.2867
     95  CB        66.6210   20.4650   37.3590 C.3    94  ASP94       0.1410
     96  CG        67.1630   19.0540   37.3760 C.2    94  ASP94       0.3668
     97  OD1       68.0040   18.7400   36.5100 O.co2  94  ASP94      -0.2456
     98  OD2       66.7480   18.2520   38.2470 O.co2  94  ASP94      -0.2456
     99  N         63.2400   18.0980   41.3630 N.3   138  ALA138     -0.1231
    100  CA        63.3000   18.0260   39.9090 C.3   138  ALA138      0.1694
    101  C         62.5290   19.1180   39.2020 C.2   138  ALA138      0.2592
    102  O         62.7740   19.4020   38.0240 O.2   138  ALA138     -0.2718
    103  CB        62.8110   16.7010   39.4570 C.3   138  ALA138      0.0304
    104  N         61.5790   19.7270   39.9010 N.am  139  ASN139     -0.1974
    105  CA        60.8040   20.8030   39.3060 C.3   139  ASN139      0.1688
    106  C         61.3210   22.1880   39.7300 C.2   139  ASN139      0.2292
    107  O         60.6220   23.1830   39.6130 O.2   139  ASN139     -0.2864
    108  CB        59.3280   20.6410   39.6580 C.3   139  ASN139      0.1181
    109  CG        58.6780   19.4600   38.9430 C.2   139  ASN139      0.2629
    110  OD1       59.1920   18.9330   37.9520 O.2   139  ASN139     -0.2716
    111  ND2       57.5220   19.0580   39.4350 N.am  139  ASN139     -0.0877
    112  N         64.3360   24.6040   38.8030 N.3   141  LEU141     -0.1245
    113  CA        65.5230   24.8520   37.9990 C.3   141  LEU141      0.1561
    114  C         66.3330   25.9930   38.5800 C.2   141  LEU141      0.2260
    115  O         65.8290   26.7880   39.3710 O.2   141  LEU141     -0.2867
    116  CB        65.1560   25.2500   36.5810 C.3   141  LEU141      0.0270
    117  CG        63.8420   24.7410   36.0520 C.3   141  LEU141      0.0019
    118  CD1       63.5130   25.4670   34.7660 C.3   141  LEU141      0.0001
    119  CD2       63.9300   23.2590   35.8830 C.3   141  LEU141      0.0001
    120  N         59.3050   25.4990   38.4660 N.3   151  ALA151     -0.1231
    121  CA        58.8620   25.0220   37.1580 C.3   151  ALA151      0.1694
    122  C         57.8500   23.9050   37.2860 C.2   151  ALA151      0.2592
    123  O         57.5470   23.4410   38.3770 O.2   151  ALA151     -0.2718
    124  CB        60.0500   24.5370   36.3450 C.3   151  ALA151      0.0304
    125  N         57.3470   23.4750   36.1390 N.am  152  ASP152     -0.1974
    126  CA        56.3640   22.3980   36.0270 C.3   152  ASP152      0.1709
    127  C         55.0230   22.7100   36.6620 C.2   152  ASP152      0.2293
    128  O         54.6950   22.1930   37.7440 O.2   152  ASP152     -0.2864
    129  CB        56.9010   21.1000   36.6270 C.3   152  ASP152      0.1436
    130  CG        56.0910   19.8770   36.2080 C.2   152  ASP152      0.3671
    131  OD1       55.0440   20.0210   35.5260 O.co2 152  ASP152     -0.2456
    132  OD2       56.5150   18.7540   36.5610 O.co2 152  ASP152     -0.2456
    133  N         52.2750   21.8350   35.3950 N.3   154  GLY154     -0.1225
    134  CA        51.3720   20.9090   34.7610 C.3   154  GLY154      0.1811
    135  C         50.3310   20.3670   35.7210 C.2   154  GLY154      0.2280
    136  O         49.3520   19.7770   35.2980 O.2   154  GLY154     -0.2866
@<TRIPOS>BOND
     1     9    10    1
     2    12    11    2
     3    10    11    1
     4    10    13    1
     5    11    18   am
     6    33    32    2
     7    32    31    1
     8    30    31    1
     9    21    20    2
    10    20    19    1
    11    27    28    2
    12    27    26    1
    13    18    19    1
    14    31    34    1
    15    19    22    1
    16    25    26    1
    17    13    14    1
    18    26    29    1
    19     1     2    1
    20    46    47    1
    21    14    15    1
    22    49    48    2
    23     6     8    1
    24     6     5    1
    25    34    35    1
    26    22    23    1
    27    22    24    1
    28     2     5    1
    29     2     3    1
    30    63    62   ar
    31    48    47    1
    32    48    57   am
    33    71    70   ar
    34    71    73   ar
    35    69    70    1
    36    69    66    1
    37    47    50    1
    38    15    17   ar
    39    15    16   ar
    40     5     7    1
    41    35    36    1
    42    70    72   ar
    43    73    75   ar
    44     3     4    2
    45    65    66    1
    46    65    59   am
    47    72    74   ar
    48    75    74   ar
    49    58    57    1
    50    58    59    1
    51    58    61    1
    52    53    55   ar
    53    53    51   ar
    54    62    61    1
    55    62    64   ar
    56    66    67    1
    57    55    56   ar
    58    50    51    1
    59    36    37    1
    60    59    60    2
    61    51    52   ar
    62    89    88   ar
    63    56    54   ar
    64    37    38    1
    65    67    68    2
    66    67    76   am
    67    52    54   ar
    68    90    88   ar
    69    88    87    1
    70    76    77    1
    71    79    78    2
    72    87    86    1
    73    78    77    1
    74    78    82   am
    75    77    80    1
    76    83    82    1
    77    83    86    1
    78    83    84    1
    79    85    84    2
    80    45    43    1
    81    80    81    1
    82    41    42    2
    83    41    40    1
    84    44    43    1
    85    43    40    1
    86   134   133    1
    87   134   135    1
    88   118   117    1
    89    40    39    1
    90   136   135    2
    91   131   130   ar
    92   119   117    1
    93   126   125    1
    94   126   129    1
    95   126   127    1
    96   117   116    1
    97   125   122   am
    98   130   132   ar
    99   130   129    1
   100   124   121    1
   101    97    96   ar
   102   116   113    1
   103   127   128    2
   104    91    92    1
   105   121   122    1
   106   121   120    1
   107   122   123    2
   108    95    96    1
   109    95    92    1
   110    96    98   ar
   111    92    93    1
   112   110   109    2
   113   113   114    1
   114   113   112    1
   115   102   101    2
   116   114   115    2
   117   109   111   am
   118   109   108    1
   119   101   104   am
   120   101   100    1
   121    93    94    2
   122   105   108    1
   123   105   106    1
   124   105   104    1
   125   103   100    1
   126   107   106    2
   127   100    99    1
