@<TRIPOS>MOLECULE
tmp/3miiB00.pdb
 126 124 0 0 0
SMALL
GASTEIGER

@<TRIPOS>ATOM
      1  N          0.5520   65.6140   10.8740 N.3    25  PHE25      -0.1241
      2  CA         0.2940   64.2670   11.3680 C.3    25  PHE25       0.1605
      3  C          1.4160   63.8810   12.3310 C.2    25  PHE25       0.2264
      4  O          2.5310   63.5670   11.9090 O.2    25  PHE25      -0.2867
      5  CB         0.1650   63.2610   10.2170 C.3    25  PHE25       0.0534
      6  CG        -0.2850   61.8870   10.6510 C.ar   25  PHE25      -0.0203
      7  CD1        0.0230   60.7690    9.8830 C.ar   25  PHE25      -0.0042
      8  CD2       -1.0100   61.7080   11.8310 C.ar   25  PHE25      -0.0042
      9  CE1       -0.3900   59.4930   10.2740 C.ar   25  PHE25      -0.0003
     10  CE2       -1.4250   60.4370   12.2320 C.ar   25  PHE25      -0.0003
     11  CZ        -1.1140   59.3270   11.4500 C.ar   25  PHE25      -0.0000
     12  N          4.2450   61.1520   12.1360 N.3    28  GLU28      -0.1245
     13  CA         5.3600   61.4180   11.2310 C.3    28  GLU28       0.1567
     14  C          6.5920   61.9830   11.9510 C.2    28  GLU28       0.2260
     15  O          7.7040   61.4790   11.7680 O.2    28  GLU28      -0.2867
     16  CB         4.9250   62.3330   10.0820 C.3    28  GLU28       0.0388
     17  CG         3.8800   61.7120    9.1590 C.3    28  GLU28       0.1160
     18  CD         3.7200   62.4580    7.8470 C.2    28  GLU28       0.3649
     19  OE1        4.4760   63.4220    7.6000 O.co2  28  GLU28      -0.2457
     20  OE2        2.8330   62.0750    7.0540 O.co2  28  GLU28      -0.2457
     21  N         -6.5990   63.6500   12.7540 N.3    58  TYR58      -0.1241
     22  CA        -5.5040   62.8110   13.2330 C.3    58  TYR58       0.1605
     23  C         -4.9160   63.3560   14.5330 C.2    58  TYR58       0.2264
     24  O         -3.6990   63.5280   14.6530 O.2    58  TYR58      -0.2867
     25  CB        -4.4210   62.6730   12.1550 C.3    58  TYR58       0.0534
     26  CG        -4.9320   62.1280   10.8370 C.ar   58  TYR58      -0.0201
     27  CD1       -5.3270   62.9860    9.8130 C.ar   58  TYR58      -0.0009
     28  CD2       -5.0330   60.7560   10.6200 C.ar   58  TYR58      -0.0009
     29  CE1       -5.8040   62.4910    8.6070 C.ar   58  TYR58       0.0417
     30  CE2       -5.5090   60.2520    9.4170 C.ar   58  TYR58       0.0417
     31  CZ        -5.8910   61.1250    8.4160 C.ar   58  TYR58       0.1957
     32  OH        -6.3600   60.6300    7.2230 O.3    58  TYR58      -0.2866
     33  N          1.5010   65.7710    6.3650 N.3   105  GLY105     -0.1210
     34  CA         0.0940   65.8850    6.7110 C.3   105  GLY105      0.1956
     35  C         -0.4980   66.7850    5.6430 C.2   105  GLY105      0.2611
     36  O          0.2340   67.5270    4.9790 O.2   105  GLY105     -0.2717
     37  N         -1.8140   66.7360    5.4690 N.am  106  HIS106     -0.1975
     38  CA        -2.4650   67.5040    4.4030 C.3   106  HIS106      0.1656
     39  C         -2.2360   69.0170    4.4540 C.2   106  HIS106      0.2291
     40  O         -2.4540   69.7030    3.4610 O.2   106  HIS106     -0.2864
     41  CB        -3.9530   67.1670    4.3150 C.3   106  HIS106      0.0771
     42  CG        -4.2290   65.8600    3.6430 C.ar  106  HIS106      0.0820
     43  ND1       -4.1440   64.6520    4.3030 N.ar  106  HIS106     -0.2267
     44  CD2       -4.5720   65.5690    2.3670 C.ar  106  HIS106      0.1154
     45  CE1       -4.4330   63.6740    3.4630 C.ar  106  HIS106      0.1986
     46  NE2       -4.6970   64.2040    2.2820 N.ar  106  HIS106     -0.2212
     47  N          3.1080   64.1220    1.9830 N.3   136  HIS136     -0.1241
     48  CA         2.9950   65.3570    1.1920 C.3   136  HIS136      0.1621
     49  C          4.2570   66.2210    1.2920 C.2   136  HIS136      0.2264
     50  O          4.3430   67.2730    0.6620 O.2   136  HIS136     -0.2867
     51  CB         1.7610   66.1720    1.6010 C.3   136  HIS136      0.0745
     52  CG         0.4610   65.5480    1.2000 C.ar  136  HIS136      0.0817
     53  ND1       -0.2740   64.7460    2.0490 N.ar  136  HIS136     -0.2268
     54  CD2       -0.2390   65.6080    0.0420 C.ar  136  HIS136      0.1154
     55  CE1       -1.3690   64.3400    1.4320 C.ar  136  HIS136      0.1986
     56  NE2       -1.3710   64.8460    0.2120 N.ar  136  HIS136     -0.2212
     57  N          2.9870   60.6450   -1.1930 N.3   162  PHE162     -0.1241
     58  CA         1.5730   60.2870   -1.0780 C.3   162  PHE162      0.1605
     59  C          0.8730   60.3210   -2.4380 C.2   162  PHE162      0.2264
     60  O          0.8330   61.3650   -3.0870 O.2   162  PHE162     -0.2867
     61  CB         0.8470   61.1650   -0.0540 C.3   162  PHE162      0.0534
     62  CG        -0.4120   60.5430    0.4860 C.ar  162  PHE162     -0.0203
     63  CD1       -1.6590   61.0640    0.1550 C.ar  162  PHE162     -0.0042
     64  CD2       -0.3500   59.4250    1.3170 C.ar  162  PHE162     -0.0042
     65  CE1       -2.8260   60.4910    0.6510 C.ar  162  PHE162     -0.0003
     66  CE2       -1.5090   58.8400    1.8150 C.ar  162  PHE162     -0.0003
     67  CZ        -2.7530   59.3730    1.4820 C.ar  162  PHE162     -0.0000
     68  N         -4.4000   57.6560   -2.8460 N.3   166  GLY166     -0.1225
     69  CA        -4.6180   57.8530   -1.4150 C.3   166  GLY166      0.1811
     70  C         -5.6700   58.9000   -1.1040 C.2   166  GLY166      0.2280
     71  O         -6.5100   58.6990   -0.2280 O.2   166  GLY166     -0.2866
     72  N         -9.1930   57.4590   -1.9360 N.3   169  ALA169     -0.1231
     73  CA        -9.6220   56.5730   -0.8470 C.3   169  ALA169      0.1694
     74  C        -10.0570   57.3580    0.3980 C.2   169  ALA169      0.2591
     75  O        -11.0370   56.9970    1.0540 O.2   169  ALA169     -0.2718
     76  CB        -8.5230   55.5710   -0.5000 C.3   169  ALA169      0.0304
     77  N         -9.3360   58.4340    0.7060 N.am  170  LEU170     -0.1980
     78  CA        -9.6890   59.3090    1.8260 C.3   170  LEU170      0.1596
     79  C        -10.8910   60.2100    1.5180 C.2   170  LEU170      0.2287
     80  O        -11.4810   60.8010    2.4290 O.2   170  LEU170     -0.2864
     81  CB        -8.4820   60.1550    2.2520 C.3   170  LEU170      0.0297
     82  CG        -7.3090   59.4570    2.9540 C.3   170  LEU170      0.0022
     83  CD1       -6.1320   60.4060    3.0720 C.3   170  LEU170      0.0001
     84  CD2       -7.7040   58.9190    4.3270 C.3   170  LEU170      0.0001
     85  N         -1.5160   52.9700   -0.9610 N.3   201  PRO201     -0.2102
     86  CA        -1.2300   54.2560   -0.3150 C.3   201  PRO201      0.1504
     87  C         -0.7920   54.1460    1.1460 C.2   201  PRO201      0.2575
     88  O         -0.2410   55.1040    1.6870 O.2   201  PRO201     -0.2718
     89  CB        -2.5660   54.9950   -0.4020 C.3   201  PRO201      0.0282
     90  CG        -3.2580   54.3800   -1.5630 C.3   201  PRO201      0.0208
     91  CD        -2.8760   52.9410   -1.5320 C.3   201  PRO201      0.0893
     92  N         -1.0290   52.9890    1.7610 N.am  202  TRP202     -0.1977
     93  CA        -0.6890   52.7520    3.1690 C.3   202  TRP202      0.1640
     94  C          0.6020   51.9420    3.3810 C.2   202  TRP202      0.2290
     95  O          1.0000   51.7090    4.5220 O.2   202  TRP202     -0.2864
     96  CB        -1.8630   52.0750    3.8970 C.3   202  TRP202      0.0576
     97  CG        -2.3800   50.8350    3.2050 C.ar  202  TRP202      0.0006
     98  CD1       -1.8440   49.5780    3.2620 C.ar  202  TRP202      0.0946
     99  CD2       -3.5320   50.7410    2.3550 C.ar  202  TRP202      0.0152
    100  NE1       -2.5890   48.7090    2.4990 N.ar  202  TRP202     -0.2442
    101  CE2       -3.6330   49.3950    1.9350 C.ar  202  TRP202      0.0810
    102  CE3       -4.4900   51.6640    1.9080 C.ar  202  TRP202      0.0012
    103  CZ2       -4.6540   48.9470    1.0850 C.ar  202  TRP202      0.0191
    104  CZ3       -5.5060   51.2180    1.0610 C.ar  202  TRP202      0.0001
    105  CH2       -5.5790   49.8690    0.6620 C.ar  202  TRP202      0.0015
    106  N          4.4720   57.7400    3.5180 N.3   217  ASN217     -0.1225
    107  CA         3.6150   58.0510    4.6730 C.3   217  ASN217      0.1785
    108  C          4.2830   57.8200    6.0300 C.2   217  ASN217      0.2597
    109  O          5.4910   57.5950    6.1070 O.2   217  ASN217     -0.2718
    110  CB         2.3040   57.2460    4.6040 C.3   217  ASN217      0.1169
    111  CG         2.5230   55.7860    4.2180 C.2   217  ASN217      0.2627
    112  OD1        1.7580   55.2240    3.4380 O.2   217  ASN217     -0.2716
    113  ND2        3.5690   55.1720    4.7550 N.am  217  ASN217     -0.0877
    114  N          3.4740   57.8710    7.0880 N.am  218  ALA218     -0.1966
    115  CA         3.9160   57.6150    8.4560 C.3   218  ALA218      0.1728
    116  C          4.4110   56.1790    8.6390 C.2   218  ALA218      0.2616
    117  O          5.3280   55.9270    9.4230 O.2   218  ALA218     -0.2715
    118  CB         2.7920   57.9180    9.4330 C.3   218  ALA218      0.0334
    119  N          3.8010   55.2440    7.9120 N.am  219  ASN219     -0.1972
    120  CA         4.2630   53.8570    7.8930 C.3   219  ASN219      0.1688
    121  C          5.6270   53.7170    7.2150 C.2   219  ASN219      0.2292
    122  O          6.2650   52.6700    7.3170 O.2   219  ASN219     -0.2864
    123  CB         3.2390   52.9460    7.2070 C.3   219  ASN219      0.1181
    124  CG         1.9230   52.8680    7.9580 C.2   219  ASN219      0.2629
    125  OD1        1.8920   52.8490    9.1940 O.2   219  ASN219     -0.2716
    126  ND2        0.8220   52.8110    7.2120 N.am  219  ASN219     -0.0877
@<TRIPOS>BOND
     1    60    59    2
     2    68    69    1
     3    59    58    1
     4    72    73    1
     5    90    91    1
     6    90    89    1
     7    91    85    1
     8    69    70    1
     9    57    58    1
    10    70    71    2
    11    58    61    1
    12    85    86    1
    13    73    76    1
    14    73    74    1
    15    89    86    1
    16    86    87    1
    17    61    62    1
    18    54    56   ar
    19    54    52   ar
    20    63    62   ar
    21    63    65   ar
    22    56    55   ar
    23    74    77   am
    24    74    75    2
    25    62    64   ar
    26    65    67   ar
    27    50    49    2
    28   105   104   ar
    29   105   103   ar
    30    77    78    1
    31   104   102   ar
    32   103   101   ar
    33    87    88    2
    34    87    92   am
    35    48    49    1
    36    48    51    1
    37    48    47    1
    38    52    51    1
    39    52    53   ar
    40    64    66   ar
    41    55    53   ar
    42    67    66   ar
    43    79    78    1
    44    79    80    2
    45    92    93    1
    46    78    81    1
    47   102    99   ar
    48   101    99   ar
    49   101   100   ar
    50    81    82    1
    51    46    44   ar
    52    46    45   ar
    53    99    97   ar
    54    44    42   ar
    55   100    98   ar
    56    82    83    1
    57    82    84    1
    58    93    94    1
    59    93    96    1
    60    97    98   ar
    61    97    96    1
    62    94    95    2
    63   112   111    2
    64    40    39    2
    65    45    43   ar
    66   106   107    1
    67    42    43   ar
    68    42    41    1
    69   111   110    1
    70   111   113   am
    71    41    38    1
    72    38    39    1
    73    38    37    1
    74   110   107    1
    75   107   108    1
    76    36    35    2
    77    37    35   am
    78    35    34    1
    79   108   109    2
    80   108   114   am
    81    33    34    1
    82    20    18   ar
    83   114   115    1
    84   123   120    1
    85   123   124    1
    86   126   124   am
    87   121   122    2
    88   121   120    1
    89    32    31    1
    90    19    18   ar
    91    18    17    1
    92   120   119    1
    93   119   116   am
    94   124   125    2
    95    31    29   ar
    96    31    30   ar
    97   115   116    1
    98   115   118    1
    99    29    27   ar
   100   116   117    2
   101    17    16    1
   102    30    28   ar
   103    27    26   ar
   104     7     9   ar
   105     7     6   ar
   106    16    13    1
   107     5     6    1
   108     5     2    1
   109     9    11   ar
   110    28    26   ar
   111     6     8   ar
   112    26    25    1
   113     1     2    1
   114    13    14    1
   115    13    12    1
   116     2     3    1
   117    11    10   ar
   118    15    14    2
   119     8    10   ar
   120     4     3    2
   121    25    22    1
   122    21    22    1
   123    22    23    1
   124    23    24    2
