@<TRIPOS>MOLECULE
tmp/3miuB03.pdb
 74 71 0 0 0
SMALL
GASTEIGER

@<TRIPOS>ATOM
      1  N         17.2790   18.7020   55.1910 N.3    74  GLY74      -0.1210
      2  CA        18.6440   18.3660   54.8030 C.3    74  GLY74       0.1956
      3  C         19.0400   18.9050   53.4460 C.2    74  GLY74       0.2612
      4  O         18.2280   18.9500   52.5210 O.2    74  GLY74      -0.2717
      5  N         20.2990   19.3140   53.3390 N.am   75  MET75      -0.1965
      6  CA        20.8700   19.7680   52.0830 C.3    75  MET75       0.1736
      7  C         22.2890   19.2490   51.9770 C.2    75  MET75       0.2616
      8  O         23.0500   19.2840   52.9460 O.2    75  MET75      -0.2715
      9  CB        20.8680   21.2960   51.9850 C.3    75  MET75       0.0427
     10  CG        21.3550   21.8220   50.6470 C.3    75  MET75       0.0599
     11  SD        21.2280   23.6110   50.4550 S.3    75  MET75      -0.1393
     12  CE        22.6470   24.1570   51.4230 C.3    75  MET75       0.0692
     13  N         22.6400   18.7590   50.7990 N.am   76  LYS76      -0.1977
     14  CA        23.9880   18.2930   50.5430 C.3    76  LYS76       0.1596
     15  C         24.3430   18.5560   49.0980 C.2    76  LYS76       0.2287
     16  O         23.4770   18.7600   48.2540 O.2    76  LYS76      -0.2864
     17  CB        24.1300   16.8030   50.8580 C.3    76  LYS76       0.0298
     18  CG        23.4030   15.9050   49.9650 C.3    76  LYS76       0.0038
     19  CD        23.5060   14.4470   50.4540 C.3    76  LYS76       0.0206
     20  CE        22.9730   13.3500   49.6210 C.3    76  LYS76       0.1093
     21  NZ        21.6480   13.5160   49.1090 N.3    76  LYS76      -0.1314
     22  N         21.5070   18.4880   46.4200 N.3    92  GLY92      -0.1225
     23  CA        20.4100   17.6260   46.8430 C.3    92  GLY92       0.1811
     24  C         19.7560   18.1110   48.1190 C.2    92  GLY92       0.2280
     25  O         20.3880   18.7930   48.9260 O.2    92  GLY92      -0.2866
     26  N         16.8140   16.7610   51.3070 N.3    94  SER94      -0.1217
     27  CA        15.9170   15.7450   51.8310 C.3    94  SER94       0.1889
     28  C         14.8500   16.3830   52.7060 C.2    94  SER94       0.2288
     29  O         15.0700   17.4310   53.3180 O.2    94  SER94      -0.2866
     30  CB        16.6730   14.6210   52.5590 C.3    94  SER94       0.2089
     31  OG        17.4160   15.1230   53.6470 O.3    94  SER94      -0.2183
     32  N         13.9030   11.7740   50.0680 N.3    99  SER99      -0.1202
     33  CA        15.1510   12.3860   49.6320 C.3    99  SER99       0.2020
     34  C         15.0440   12.7690   48.1530 C.2    99  SER99       0.2619
     35  O         14.4340   12.0490   47.3710 O.2    99  SER99      -0.2717
     36  CB        16.3020   11.3990   49.8390 C.3    99  SER99       0.2103
     37  OG        17.5420   12.0660   50.0160 O.3    99  SER99      -0.2182
     38  N         15.6260   13.9080   47.7820 N.am  100  TYR100     -0.1961
     39  CA        15.6510   14.3670   46.3880 C.3   100  TYR100      0.1771
     40  C         17.0760   14.5850   45.8840 C.2   100  TYR100      0.2620
     41  O         17.9180   15.1520   46.5870 O.2   100  TYR100     -0.2715
     42  CB        14.8560   15.6620   46.2190 C.3   100  TYR100      0.0574
     43  CG        13.3740   15.5180   46.4520 C.ar  100  TYR100     -0.0198
     44  CD1       12.8350   15.6660   47.7310 C.ar  100  TYR100     -0.0009
     45  CD2       12.5040   15.2400   45.3890 C.ar  100  TYR100     -0.0009
     46  CE1       11.4730   15.5300   47.9550 C.ar  100  TYR100      0.0417
     47  CE2       11.1330   15.0990   45.5980 C.ar  100  TYR100      0.0417
     48  CZ        10.6240   15.2450   46.8840 C.ar  100  TYR100      0.1957
     49  OH         9.2730   15.1110   47.1100 O.3   100  TYR100     -0.2866
     50  N         17.3310   14.1380   44.6600 N.am  101  GLY101     -0.1954
     51  CA        18.6260   14.3150   44.0260 C.3   101  GLY101      0.1869
     52  C         19.6530   13.2630   44.4060 C.2   101  GLY101      0.2309
     53  O         19.2940   12.1170   44.6920 O.2   101  GLY101     -0.2863
     54  N         27.6630   18.8070   53.4130 N.3   112  SER112     -0.1202
     55  CA        26.4560   18.1440   53.8830 C.3   112  SER112      0.2020
     56  C         25.9090   18.8790   55.0970 C.2   112  SER112      0.2619
     57  O         26.6640   19.2700   56.0000 O.2   112  SER112     -0.2717
     58  CB        26.7230   16.6650   54.2250 C.3   112  SER112      0.2103
     59  OG        27.7970   16.5210   55.1380 O.3   112  SER112     -0.2182
     60  N         24.5950   19.0830   55.0920 N.am  113  LEU113     -0.1966
     61  CA        23.9150   19.7010   56.2150 C.3   113  LEU113      0.1713
     62  C         22.7450   18.8420   56.6680 C.2   113  LEU113      0.2458
     63  O         21.6130   19.0670   56.2400 O.2   113  LEU113     -0.2730
     64  CB        23.4420   21.1190   55.8730 C.3   113  LEU113      0.0310
     65  CG        22.8260   21.8940   57.0460 C.3   113  LEU113      0.0022
     66  CD1       23.9160   22.3460   58.0030 C.3   113  LEU113      0.0001
     67  CD2       21.9940   23.0760   56.5710 C.3   113  LEU113      0.0001
     68  N         23.0170   17.8440   57.5290 N.am  114  PRO114     -0.2727
     69  CA        21.8910   17.1350   58.1340 C.3   114  PRO114      0.1402
     70  C         21.3490   17.9650   59.3020 C.2   114  PRO114      0.2269
     71  O         22.1190   18.5040   60.0980 O.2   114  PRO114     -0.2865
     72  CB        22.5140   15.8230   58.6280 C.3   114  PRO114      0.0296
     73  CG        23.9720   16.1290   58.8350 C.3   114  PRO114      0.0237
     74  CD        24.3250   17.3370   57.9940 C.3   114  PRO114      0.0939
@<TRIPOS>BOND
     1    51    52    1
     2    51    50    1
     3    52    53    2
     4    50    40   am
     5    45    47   ar
     6    45    43   ar
     7    47    48   ar
     8    40    39    1
     9    40    41    2
    10    42    39    1
    11    42    43    1
    12    39    38    1
    13    22    23    1
    14    43    44   ar
    15    23    24    1
    16    48    49    1
    17    48    46   ar
    18    35    34    2
    19    44    46   ar
    20    38    34   am
    21    24    25    2
    22    34    33    1
    23    16    15    2
    24    15    14    1
    25    21    20    1
    26    20    19    1
    27    33    36    1
    28    33    32    1
    29    36    37    1
    30    18    19    1
    31    18    17    1
    32    11    10    1
    33    11    12    1
    34    14    13    1
    35    14    17    1
    36    10     9    1
    37    13     7   am
    38    26    27    1
    39    27    30    1
    40    27    28    1
    41     7     6    1
    42     7     8    2
    43     9     6    1
    44     6     5    1
    45     4     3    2
    46    30    31    1
    47    28    29    2
    48     5     3   am
    49    54    55    1
    50     3     2    1
    51    55    58    1
    52    55    56    1
    53    58    59    1
    54     2     1    1
    55    60    56   am
    56    60    61    1
    57    56    57    2
    58    64    61    1
    59    64    65    1
    60    61    62    1
    61    63    62    2
    62    67    65    1
    63    62    68   am
    64    65    66    1
    65    68    74    1
    66    68    69    1
    67    74    73    1
    68    69    72    1
    69    69    70    1
    70    72    73    1
    71    70    71    2
