@<TRIPOS>MOLECULE
tmp/3miyB00.pdb
 158 152 0 0 0
SMALL
GASTEIGER

@<TRIPOS>ATOM
      1  N          4.6290    4.3150  -33.5040 N.3    15  ILE15      -0.1231
      2  CA         5.2410    2.9850  -33.5620 C.3    15  ILE15       0.1692
      3  C          4.3680    1.9610  -34.2960 C.2    15  ILE15       0.2592
      4  O          4.8450    0.8850  -34.6640 O.2    15  ILE15      -0.2718
      5  CB         5.6260    2.4620  -32.1490 C.3    15  ILE15       0.0266
      6  CG1        4.4200    2.5120  -31.1950 C.3    15  ILE15       0.0019
      7  CG2        6.8190    3.2480  -31.5980 C.3    15  ILE15       0.0020
      8  CD1        4.6930    1.9750  -29.7950 C.3    15  ILE15       0.0001
      9  N          3.1000    2.3070  -34.5150 N.am   16  GLY16      -0.1957
     10  CA         2.1520    1.4110  -35.1790 C.3    16  GLY16       0.1869
     11  C          1.0520    2.1240  -35.9440 C.2    16  GLY16       0.2309
     12  O          0.6260    3.2180  -35.5640 O.2    16  GLY16      -0.2863
     13  N         -0.7620    3.6890  -33.1620 N.3    21  VAL21      -0.1245
     14  CA        -0.1180    3.4570  -31.8670 C.3    21  VAL21       0.1561
     15  C          1.1090    4.3580  -31.7080 C.2    21  VAL21       0.2260
     16  O          1.9710    4.4200  -32.5890 O.2    21  VAL21      -0.2867
     17  CB         0.2600    1.9620  -31.6500 C.3    21  VAL21       0.0252
     18  CG1        0.8300    1.7380  -30.2530 C.3    21  VAL21       0.0019
     19  CG2       -0.9520    1.0640  -31.8630 C.3    21  VAL21       0.0019
     20  N          4.3190    5.6430  -29.0450 N.3    23  LEU23      -0.1245
     21  CA         5.1280    5.6140  -27.8350 C.3    23  LEU23       0.1561
     22  C          4.9170    6.9560  -27.1450 C.2    23  LEU23       0.2260
     23  O          4.9160    7.9990  -27.7970 O.2    23  LEU23      -0.2867
     24  CB         6.6110    5.4240  -28.1770 C.3    23  LEU23       0.0270
     25  CG         7.6420    5.1480  -27.0720 C.3    23  LEU23       0.0019
     26  CD1        8.8940    4.5120  -27.6710 C.3    23  LEU23       0.0001
     27  CD2        8.0190    6.3880  -26.2580 C.3    23  LEU23       0.0001
     28  N          1.9850    2.9160  -24.3020 N.3    33  ALA33      -0.1245
     29  CA         1.5760    2.8010  -25.6930 C.3    33  ALA33       0.1562
     30  C          0.1750    3.3750  -25.8040 C.2    33  ALA33       0.2260
     31  O         -0.7520    2.9250  -25.1190 O.2    33  ALA33      -0.2867
     32  CB         1.5950    1.3590  -26.1420 C.3    33  ALA33       0.0290
     33  N         -3.0590    4.1020  -28.0710 N.3    35  LYS35      -0.1245
     34  CA        -3.7930    3.7000  -29.2640 C.3    35  LYS35       0.1561
     35  C         -4.9220    4.6850  -29.5470 C.2    35  LYS35       0.2260
     36  O         -5.8960    4.7670  -28.7950 O.2    35  LYS35      -0.2867
     37  CB        -4.3300    2.2710  -29.1310 C.3    35  LYS35       0.0271
     38  CG        -4.9250    1.7190  -30.4270 C.3    35  LYS35       0.0035
     39  CD        -5.6040    0.3720  -30.2310 C.3    35  LYS35       0.0206
     40  CE        -4.6370   -0.7780  -30.4400 C.3    35  LYS35       0.1093
     41  NZ        -5.3280   -2.1000  -30.3980 N.3    35  LYS35      -0.1314
     42  N         -2.3960   -8.0970  -21.5940 N.3    58  VAL58      -0.1245
     43  CA        -1.9690   -6.6980  -21.5530 C.3    58  VAL58       0.1561
     44  C         -2.9410   -5.8250  -20.7480 C.2    58  VAL58       0.2260
     45  O         -4.1500   -6.0920  -20.7060 O.2    58  VAL58      -0.2867
     46  CB        -1.7130   -6.1260  -22.9870 C.3    58  VAL58       0.0252
     47  CG1       -3.0210   -5.8300  -23.7140 C.3    58  VAL58       0.0019
     48  CG2       -0.8140   -4.8930  -22.9300 C.3    58  VAL58       0.0019
     49  N         -2.2230    2.2260  -22.8570 N.3    74  PHE74      -0.1227
     50  CA        -1.7660    0.8910  -22.4620 C.3    74  PHE74       0.1736
     51  C         -0.4000    0.9490  -21.7970 C.2    74  PHE74       0.2595
     52  O          0.3540    1.9060  -21.9860 O.2    74  PHE74      -0.2718
     53  CB        -1.6150   -0.0080  -23.6940 C.3    74  PHE74       0.0547
     54  CG        -2.9090   -0.4490  -24.3100 C.ar   74  PHE74      -0.0202
     55  CD1       -3.5190    0.3150  -25.3010 C.ar   74  PHE74      -0.0042
     56  CD2       -3.4960   -1.6550  -23.9330 C.ar   74  PHE74      -0.0042
     57  CE1       -4.7090   -0.1020  -25.8890 C.ar   74  PHE74      -0.0003
     58  CE2       -4.6870   -2.0830  -24.5180 C.ar   74  PHE74      -0.0003
     59  CZ        -5.2950   -1.3020  -25.4960 C.ar   74  PHE74      -0.0000
     60  N         -0.0660   -0.1000  -21.0490 N.am   75  GLU75      -0.1965
     61  CA         1.3130   -0.3110  -20.6150 C.3    75  GLU75       0.1733
     62  C          2.2110   -0.4770  -21.8420 C.2    75  GLU75       0.2616
     63  O          1.7780   -0.9850  -22.8820 O.2    75  GLU75      -0.2715
     64  CB         1.4300   -1.5340  -19.6980 C.3    75  GLU75       0.0429
     65  CG         1.1200   -2.8710  -20.3680 C.3    75  GLU75       0.1163
     66  CD         1.3100   -4.0630  -19.4500 C.2    75  GLU75       0.3649
     67  OE1        2.2840   -4.0800  -18.6690 O.co2  75  GLU75      -0.2457
     68  OE2        0.4830   -4.9940  -19.5230 O.co2  75  GLU75      -0.2457
     69  N          3.4560   -0.0340  -21.7170 N.am   76  PHE76      -0.1960
     70  CA         4.4240   -0.1720  -22.7940 C.3    76  PHE76       0.1771
     71  C          5.0510   -1.5590  -22.7490 C.2    76  PHE76       0.2619
     72  O          5.4480   -2.0390  -21.6850 O.2    76  PHE76      -0.2715
     73  CB         5.5000    0.9110  -22.6890 C.3    76  PHE76       0.0574
     74  CG         6.3810    1.0170  -23.9050 C.ar   76  PHE76      -0.0200
     75  CD1        5.9040    1.5970  -25.0800 C.ar   76  PHE76      -0.0042
     76  CD2        7.6930    0.5540  -23.8700 C.ar   76  PHE76      -0.0042
     77  CE1        6.7180    1.7030  -26.2060 C.ar   76  PHE76      -0.0003
     78  CE2        8.5170    0.6580  -24.9920 C.ar   76  PHE76      -0.0003
     79  CZ         8.0250    1.2340  -26.1590 C.ar   76  PHE76      -0.0000
     80  N          5.1100   -2.2030  -23.9100 N.am   77  MET77      -0.1963
     81  CA         5.7350   -3.5110  -24.0420 C.3    77  MET77       0.1736
     82  C          6.9960   -3.3490  -24.8830 C.2    77  MET77       0.2616
     83  O          6.9250   -3.1800  -26.1000 O.2    77  MET77      -0.2715
     84  CB         4.7560   -4.5150  -24.6590 C.3    77  MET77       0.0427
     85  CG         3.5010   -4.7250  -23.8210 C.3    77  MET77       0.0599
     86  SD         3.8190   -5.5790  -22.2590 S.3    77  MET77      -0.1393
     87  CE         3.9180   -7.2830  -22.8030 C.3    77  MET77       0.0692
     88  N          8.1450   -3.3950  -24.2130 N.am   78  GLU78      -0.1963
     89  CA         9.4200   -2.9560  -24.7950 C.3    78  GLU78       0.1733
     90  C          9.8300   -3.6040  -26.1230 C.2    78  GLU78       0.2616
     91  O         10.4790   -2.9570  -26.9470 O.2    78  GLU78      -0.2715
     92  CB        10.5620   -3.0450  -23.7680 C.3    78  GLU78       0.0429
     93  CG        10.8170   -4.4300  -23.1820 C.3    78  GLU78       0.1163
     94  CD        12.0420   -4.4650  -22.2850 C.2    78  GLU78       0.3649
     95  OE1       11.8730   -4.6240  -21.0570 O.co2  78  GLU78      -0.2457
     96  OE2       13.1740   -4.3220  -22.8040 O.co2  78  GLU78      -0.2457
     97  N          9.4500   -4.8640  -26.3340 N.am   79  HIS79      -0.1959
     98  CA         9.8500   -5.5760  -27.5550 C.3    79  HIS79       0.1787
     99  C          8.7640   -5.6170  -28.6350 C.2    79  HIS79       0.2621
    100  O          8.9310   -6.2780  -29.6630 O.2    79  HIS79      -0.2715
    101  CB        10.3610   -6.9830  -27.2310 C.3    79  HIS79       0.0785
    102  CG        11.5610   -7.0010  -26.3370 C.ar   79  HIS79       0.0821
    103  ND1       12.8030   -6.5650  -26.7470 N.ar   79  HIS79      -0.2267
    104  CD2       11.7100   -7.4060  -25.0540 C.ar   79  HIS79       0.1154
    105  CE1       13.6630   -6.6930  -25.7530 C.ar   79  HIS79       0.1986
    106  NE2       13.0260   -7.2070  -24.7150 N.ar   79  HIS79      -0.2212
    107  N          7.6610   -4.9070  -28.3980 N.am   80  GLY80      -0.1940
    108  CA         6.6080   -4.7300  -29.3980 C.3    80  GLY80       0.2014
    109  C          5.8200   -5.9820  -29.7260 C.2    80  GLY80       0.2639
    110  O          5.6560   -6.8600  -28.8780 O.2    80  GLY80      -0.2714
    111  N          5.3400   -6.0590  -30.9650 N.am   81  CYS81      -0.1967
    112  CA         4.5170   -7.1790  -31.4260 C.3    81  CYS81       0.1712
    113  C          5.3440   -8.4500  -31.5470 C.2    81  CYS81       0.2296
    114  O          6.4650   -8.4190  -32.0620 O.2    81  CYS81      -0.2864
    115  CB         3.8700   -6.8570  -32.7770 C.3    81  CYS81       0.0983
    116  SG         2.7420   -5.4550  -32.7310 S.3    81  CYS81      -0.0798
    117  N          6.6970   -9.2380  -35.0730 N.3    84  ASP84      -0.1225
    118  CA         7.8630   -8.4180  -35.4260 C.3    84  ASP84       0.1805
    119  C          9.1180   -8.8620  -34.6840 C.2    84  ASP84       0.2597
    120  O         10.1960   -8.9630  -35.2750 O.2    84  ASP84      -0.2718
    121  CB         7.5940   -6.9430  -35.1280 C.3    84  ASP84       0.1424
    122  CG         6.4410   -6.3800  -35.9390 C.2    84  ASP84       0.3668
    123  OD1        6.2580   -6.7990  -37.1040 O.co2  84  ASP84      -0.2456
    124  OD2        5.7190   -5.5100  -35.4070 O.co2  84  ASP84      -0.2456
    125  N          8.9630   -9.1170  -33.3860 N.am   85  TYR85      -0.1976
    126  CA        10.0630   -9.5530  -32.5330 C.3    85  TYR85       0.1639
    127  C         10.6850  -10.8660  -33.0150 C.2    85  TYR85       0.2290
    128  O         11.9110  -10.9930  -33.0740 O.2    85  TYR85      -0.2864
    129  CB         9.5910   -9.6750  -31.0820 C.3    85  TYR85       0.0560
    130  CG        10.7060   -9.9350  -30.0900 C.ar   85  TYR85      -0.0198
    131  CD1       11.7530   -9.0220  -29.9330 C.ar   85  TYR85      -0.0009
    132  CD2       10.7060  -11.0810  -29.2990 C.ar   85  TYR85      -0.0009
    133  CE1       12.7780   -9.2530  -29.0200 C.ar   85  TYR85       0.0417
    134  CE2       11.7290  -11.3220  -28.3840 C.ar   85  TYR85       0.0417
    135  CZ        12.7570  -10.4010  -28.2500 C.ar   85  TYR85       0.1957
    136  OH        13.7690  -10.6270  -27.3460 O.3    85  TYR85      -0.2866
    137  N          2.0850   -9.3300  -27.5160 N.3   128  LEU128     -0.1245
    138  CA         3.1330   -8.3500  -27.2370 C.3   128  LEU128      0.1561
    139  C          4.2240   -8.9360  -26.3540 C.2   128  LEU128      0.2260
    140  O          3.9770   -9.8560  -25.5700 O.2   128  LEU128     -0.2867
    141  CB         2.5430   -7.0910  -26.5940 C.3   128  LEU128      0.0270
    142  CG         1.4700   -6.3540  -27.3990 C.3   128  LEU128      0.0019
    143  CD1        0.6140   -5.5140  -26.4820 C.3   128  LEU128      0.0001
    144  CD2        2.0830   -5.5110  -28.5120 C.3   128  LEU128      0.0001
    145  N         -2.9240   -9.5030  -26.6000 N.3   138  SER138     -0.1202
    146  CA        -3.5360   -8.1970  -26.8030 C.3   138  SER138      0.2020
    147  C         -4.8280   -8.3220  -27.6140 C.2   138  SER138      0.2618
    148  O         -5.1210   -9.3860  -28.1660 O.2   138  SER138     -0.2717
    149  CB        -2.5500   -7.2650  -27.5110 C.3   138  SER138      0.2103
    150  OG        -3.0490   -5.9400  -27.5780 O.3   138  SER138     -0.2182
    151  N         -5.5970   -7.2330  -27.6670 N.am  139  ASP139     -0.1973
    152  CA        -6.7950   -7.1290  -28.5140 C.3   139  ASP139      0.1709
    153  C         -7.8520   -8.1970  -28.2270 C.2   139  ASP139      0.2293
    154  O         -8.4180   -8.7940  -29.1480 O.2   139  ASP139     -0.2864
    155  CB        -6.4060   -7.1290  -30.0010 C.3   139  ASP139      0.1436
    156  CG        -5.3610   -6.0840  -30.3270 C.2   139  ASP139      0.3671
    157  OD1       -5.6230   -4.8800  -30.0920 O.co2 139  ASP139     -0.2456
    158  OD2       -4.2730   -6.4660  -30.8150 O.co2 139  ASP139     -0.2456
@<TRIPOS>BOND
     1   123   122   ar
     2    11    12    2
     3    11    10    1
     4   122   124   ar
     5   122   121    1
     6   118   121    1
     7   118   117    1
     8   118   119    1
     9   120   119    2
    10    10     9    1
    11   119   125   am
    12     4     3    2
    13     9     3   am
    14     3     2    1
    15     2     1    1
    16     2     5    1
    17   125   126    1
    18    13    14    1
    19   128   127    2
    20   127   126    1
    21   115   116    1
    22   115   112    1
    23    16    15    2
    24   126   129    1
    25     5     7    1
    26     5     6    1
    27   114   113    2
    28    14    15    1
    29    14    17    1
    30    19    17    1
    31    17    18    1
    32   113   112    1
    33   112   111    1
    34     6     8    1
    35   129   130    1
    36   111   109   am
    37   158   156   ar
    38    40    41    1
    39    40    39    1
    40    38    39    1
    41    38    37    1
    42   156   157   ar
    43   156   155    1
    44   130   131   ar
    45   130   132   ar
    46   155   152    1
    47   131   133   ar
    48   109   108    1
    49   109   110    2
    50   100    99    2
    51    35    34    1
    52    35    36    2
    53   108   107    1
    54   132   134   ar
    55    34    37    1
    56    34    33    1
    57   154   153    2
    58    20    21    1
    59   133   135   ar
    60    99   107   am
    61    99    98    1
    62   152   153    1
    63   152   151    1
    64   144   142    1
    65   134   135   ar
    66   135   136    1
    67    24    21    1
    68    24    25    1
    69   148   147    2
    70    21    22    1
    71    23    22    2
    72    26    25    1
    73   151   147   am
    74   147   146    1
    75   150   149    1
    76    98   101    1
    77    98    97    1
    78   137   138    1
    79   149   146    1
    80   142   141    1
    81   142   143    1
    82   138   141    1
    83   138   139    1
    84   101   102    1
    85    25    27    1
    86    91    90    2
    87   146   145    1
    88   103   102   ar
    89   103   105   ar
    90   139   140    2
    91   102   104   ar
    92    97    90   am
    93    77    79   ar
    94    77    75   ar
    95    79    78   ar
    96    32    29    1
    97    90    89    1
    98    83    82    2
    99    57    59   ar
   100    57    55   ar
   101    30    29    1
   102    30    31    2
   103   105   106   ar
   104    29    28    1
   105    59    58   ar
   106    55    54   ar
   107    75    74   ar
   108   104   106   ar
   109    78    76   ar
   110    82    88   am
   111    82    81    1
   112    89    88    1
   113    89    92    1
   114    84    81    1
   115    84    85    1
   116    58    56   ar
   117    54    56   ar
   118    54    53    1
   119    81    80    1
   120    80    71   am
   121    74    76   ar
   122    74    73    1
   123    85    86    1
   124    92    93    1
   125    47    46    1
   126    53    50    1
   127    93    94    1
   128    46    48    1
   129    46    43    1
   130    63    62    2
   131    49    50    1
   132    96    94   ar
   133    87    86    1
   134    70    71    1
   135    70    73    1
   136    70    69    1
   137    71    72    2
   138    50    51    1
   139    94    95   ar
   140    52    51    2
   141    62    69   am
   142    62    61    1
   143    51    60   am
   144    42    43    1
   145    43    44    1
   146    60    61    1
   147    44    45    2
   148    61    64    1
   149    65    64    1
   150    65    66    1
   151    68    66   ar
   152    66    67   ar
