@<TRIPOS>MOLECULE
tmp/3mj1A00.pdb
 179 173 0 0 0
SMALL
GASTEIGER

@<TRIPOS>ATOM
      1  N         18.3490    7.5470   -9.3390 N.3    15  ILE15      -0.1231
      2  CA        18.1160    8.2340   -8.0650 C.3    15  ILE15       0.1692
      3  C         19.0710    7.7760   -6.9620 C.2    15  ILE15       0.2593
      4  O         19.0230    8.2850   -5.8380 O.2    15  ILE15      -0.2718
      5  CB        16.6340    8.1370   -7.5970 C.3    15  ILE15       0.0266
      6  CG1       16.1780    6.6740   -7.4950 C.3    15  ILE15       0.0019
      7  CG2       15.7340    8.9570   -8.5250 C.3    15  ILE15       0.0020
      8  CD1       14.8280    6.4740   -6.8150 C.3    15  ILE15       0.0001
      9  N         19.9370    6.8220   -7.2940 N.am   16  GLY16      -0.1942
     10  CA        20.9500    6.3360   -6.3630 C.3    16  GLY16       0.2014
     11  C         21.4050    4.9120   -6.6140 C.2    16  GLY16       0.2640
     12  O         20.9360    4.2470   -7.5420 O.2    16  GLY16      -0.2714
     13  N         22.3310    4.4520   -5.7760 N.am   17  SER17      -0.1935
     14  CA        22.8550    3.0930   -5.8410 C.3    17  SER17       0.2055
     15  C         22.6860    2.3800   -4.5030 C.2    17  SER17       0.2643
     16  O         22.7900    2.9990   -3.4380 O.2    17  SER17      -0.2714
     17  CB        24.3320    3.1060   -6.2360 C.3    17  SER17       0.2130
     18  OG        24.5030    3.5950   -7.5540 O.3    17  SER17      -0.2179
     19  N         22.4260    1.0780   -4.5660 N.am   18  GLY18      -0.1954
     20  CA        22.2780    0.2540   -3.3700 C.3    18  GLY18       0.1869
     21  C         23.5260   -0.5580   -3.0790 C.2    18  GLY18       0.2309
     22  O         24.3760   -0.7420   -3.9530 O.2    18  GLY18      -0.2863
     23  N         19.4640    2.2060   -8.9890 N.3    21  VAL21      -0.1245
     24  CA        18.0480    2.4640   -8.7100 C.3    21  VAL21       0.1561
     25  C         17.5640    3.6620   -9.5180 C.2    21  VAL21       0.2260
     26  O         18.1770    4.7320   -9.4860 O.2    21  VAL21      -0.2867
     27  CB        17.7770    2.6980   -7.1960 C.3    21  VAL21       0.0252
     28  CG1       16.2850    2.9180   -6.9330 C.3    21  VAL21       0.0019
     29  CG2       18.2780    1.5190   -6.3740 C.3    21  VAL21       0.0019
     30  N          9.9730    2.8830   -8.0680 N.3    33  ALA33      -0.1245
     31  CA        11.4150    2.7440   -7.9870 C.3    33  ALA33       0.1562
     32  C         11.8060    1.4300   -8.6400 C.2    33  ALA33       0.2260
     33  O         11.3080    0.3650   -8.2620 O.2    33  ALA33      -0.2867
     34  CB        11.8790    2.7860   -6.5480 C.3    33  ALA33       0.0290
     35  N         14.6660   -1.2090   -9.4010 N.3    35  LYS35      -0.1245
     36  CA        15.9290   -1.6750   -8.8630 C.3    35  LYS35       0.1561
     37  C         16.5210   -2.7300   -9.7880 C.2    35  LYS35       0.2260
     38  O         16.0400   -3.8620   -9.8330 O.2    35  LYS35      -0.2867
     39  CB        15.7050   -2.2480   -7.4620 C.3    35  LYS35       0.0271
     40  CG        16.7940   -1.9330   -6.4670 C.3    35  LYS35       0.0035
     41  CD        16.2440   -1.9720   -5.0450 C.3    35  LYS35       0.0206
     42  CE        17.1670   -1.2610   -4.0730 C.3    35  LYS35       0.1093
     43  NZ        16.4660   -0.8900   -2.8060 N.3    35  LYS35      -0.1314
     44  N          8.1130   -1.3080    2.3910 N.3    52  VAL52      -0.1245
     45  CA         8.1800   -0.8760    0.9980 C.3    52  VAL52       0.1561
     46  C          7.7380   -2.0480    0.1240 C.2    52  VAL52       0.2260
     47  O          8.3330   -3.1250    0.1540 O.2    52  VAL52      -0.2867
     48  CB         9.5940   -0.3990    0.6080 C.3    52  VAL52       0.0252
     49  CG1        9.6220    0.0910   -0.8360 C.3    52  VAL52       0.0019
     50  CG2       10.0530    0.7190    1.5380 C.3    52  VAL52       0.0019
     51  N          9.4060   -1.4000   -7.2830 N.3    68  PHE68      -0.1227
     52  CA         9.0070   -1.0900   -5.9120 C.3    68  PHE68       0.1736
     53  C          8.1200    0.1400   -5.7930 C.2    68  PHE68       0.2595
     54  O          8.0960    1.0100   -6.6680 O.2    68  PHE68      -0.2718
     55  CB        10.2440   -0.8570   -5.0430 C.3    68  PHE68       0.0547
     56  CG        11.0290   -2.0960   -4.7450 C.ar   68  PHE68      -0.0202
     57  CD1       12.1200   -2.4440   -5.5290 C.ar   68  PHE68      -0.0042
     58  CD2       10.6990   -2.8980   -3.6550 C.ar   68  PHE68      -0.0042
     59  CE1       12.8630   -3.5820   -5.2460 C.ar   68  PHE68      -0.0003
     60  CE2       11.4310   -4.0370   -3.3650 C.ar   68  PHE68      -0.0003
     61  CZ        12.5170   -4.3800   -4.1590 C.ar   68  PHE68      -0.0000
     62  N          7.4060    0.1950   -4.6720 N.am   69  GLU69      -0.1965
     63  CA         6.7180    1.3890   -4.2090 C.3    69  GLU69       0.1733
     64  C          7.7050    2.5550   -4.1530 C.2    69  GLU69       0.2616
     65  O          8.8150    2.4060   -3.6340 O.2    69  GLU69      -0.2715
     66  CB         6.1480    1.1050   -2.8190 C.3    69  GLU69       0.0429
     67  CG         5.4890    2.2710   -2.1210 C.3    69  GLU69       0.1163
     68  CD         4.9670    1.8880   -0.7500 C.2    69  GLU69       0.3649
     69  OE1        4.2550    2.7100   -0.1470 O.co2  69  GLU69      -0.2457
     70  OE2        5.2610    0.7630   -0.2780 O.co2  69  GLU69      -0.2457
     71  N          7.3090    3.6990   -4.7050 N.am   70  PHE70      -0.1960
     72  CA         8.1700    4.8800   -4.7050 C.3    70  PHE70       0.1771
     73  C          8.0070    5.7030   -3.4400 C.2    70  PHE70       0.2619
     74  O          6.8980    6.1160   -3.0880 O.2    70  PHE70      -0.2715
     75  CB         7.9560    5.7580   -5.9440 C.3    70  PHE70       0.0574
     76  CG         8.9100    6.9240   -6.0250 C.ar   70  PHE70      -0.0200
     77  CD1       10.2720    6.7130   -6.2180 C.ar   70  PHE70      -0.0042
     78  CD2        8.4510    8.2270   -5.8770 C.ar   70  PHE70      -0.0042
     79  CE1       11.1620    7.7860   -6.2730 C.ar   70  PHE70      -0.0003
     80  CE2        9.3310    9.3080   -5.9340 C.ar   70  PHE70      -0.0003
     81  CZ        10.6900    9.0860   -6.1310 C.ar   70  PHE70      -0.0000
     82  N          9.1340    5.9400   -2.7800 N.am   71  MET71      -0.1963
     83  CA         9.1920    6.6940   -1.5340 C.3    71  MET71       0.1736
     84  C          9.8920    8.0240   -1.7990 C.2    71  MET71       0.2616
     85  O         11.1160    8.0770   -1.9640 O.2    71  MET71      -0.2715
     86  CB         9.9340    5.8890   -0.4650 C.3    71  MET71       0.0427
     87  CG         9.3680    4.4870   -0.2380 C.3    71  MET71       0.0599
     88  SD         7.6860    4.4980    0.4100 S.3    71  MET71      -0.1393
     89  CE         8.0070    5.0570    2.0880 C.3    71  MET71       0.0692
     90  N          9.1010    9.0890   -1.8210 N.am   72  GLU72      -0.1963
     91  CA         9.5390   10.3850   -2.3470 C.3    72  GLU72       0.1733
     92  C         10.6470   11.0850   -1.5700 C.2    72  GLU72       0.2616
     93  O         11.3850   11.8910   -2.1440 O.2    72  GLU72      -0.2715
     94  CB         8.3420   11.3260   -2.5390 C.3    72  GLU72       0.0429
     95  CG         7.6370   11.7790   -1.2660 C.3    72  GLU72       0.1163
     96  CD         6.6450   12.8960   -1.5320 C.2    72  GLU72       0.3649
     97  OE1        6.9250   13.7410   -2.4120 O.co2  72  GLU72      -0.2457
     98  OE2        5.5870   12.9310   -0.8630 O.co2  72  GLU72      -0.2457
     99  N         10.7680   10.7930   -0.2760 N.am   73  HIS73      -0.1959
    100  CA        11.7370   11.5050    0.5570 C.3    73  HIS73       0.1787
    101  C         13.0290   10.7340    0.8190 C.2    73  HIS73       0.2621
    102  O         13.8550   11.1590    1.6240 O.2    73  HIS73      -0.2715
    103  CB        11.0980   11.9960    1.8600 C.3    73  HIS73       0.0785
    104  CG         9.9780   12.9670    1.6510 C.ar   73  HIS73       0.0821
    105  ND1       10.1500   14.1800    1.0170 N.ar   73  HIS73      -0.2267
    106  CD2        8.6690   12.9020    1.9880 C.ar   73  HIS73       0.1154
    107  CE1        8.9950   14.8190    0.9730 C.ar   73  HIS73       0.1986
    108  NE2        8.0800   14.0660    1.5580 N.ar   73  HIS73      -0.2212
    109  N         13.2020    9.6080    0.1280 N.am   74  GLY74      -0.1940
    110  CA        14.4660    8.8800    0.1440 C.3    74  GLY74       0.2014
    111  C         14.7800    8.1950    1.4580 C.2    74  GLY74       0.2639
    112  O         13.8750    7.8680    2.2210 O.2    74  GLY74      -0.2714
    113  N         16.0710    7.9900    1.7110 N.am   75  CYS75      -0.1967
    114  CA        16.5440    7.2190    2.8610 C.3    75  CYS75       0.1712
    115  C         16.2850    7.9480    4.1700 C.2    75  CYS75       0.2296
    116  O         16.4110    9.1770    4.2420 O.2    75  CYS75      -0.2864
    117  CB        18.0370    6.9130    2.7230 C.3    75  CYS75       0.0983
    118  SG        18.4470    5.8460    1.3240 S.3    75  CYS75      -0.0798
    119  N         19.4470    9.8100    5.4350 N.3    78  ASP78      -0.1225
    120  CA        19.6020   11.0950    4.7430 C.3    78  ASP78       0.1805
    121  C         18.6060   12.1340    5.2380 C.2    78  ASP78       0.2597
    122  O         18.9590   13.2990    5.4290 O.2    78  ASP78      -0.2718
    123  CB        19.4250   10.9220    3.2290 C.3    78  ASP78       0.1424
    124  CG        20.4980   10.0550    2.5990 C.2    78  ASP78       0.3668
    125  OD1       21.6290    9.9960    3.1290 O.co2  78  ASP78      -0.2456
    126  OD2       20.2050    9.4350    1.5520 O.co2  78  ASP78      -0.2456
    127  N         17.3660   11.6990    5.4400 N.am   79  TYR79      -0.1976
    128  CA        16.2620   12.5810    5.8070 C.3    79  TYR79       0.1639
    129  C         16.4200   13.1300    7.2200 C.2    79  TYR79       0.2290
    130  O         16.1190   14.3010    7.4740 O.2    79  TYR79      -0.2864
    131  CB        14.9390   11.8310    5.6790 C.3    79  TYR79       0.0560
    132  CG        13.7100   12.6820    5.8920 C.ar   79  TYR79      -0.0198
    133  CD1       13.2290   13.5090    4.8790 C.ar   79  TYR79      -0.0009
    134  CD2       13.0150   12.6460    7.1030 C.ar   79  TYR79      -0.0009
    135  CE1       12.0920   14.2850    5.0650 C.ar   79  TYR79       0.0417
    136  CE2       11.8780   13.4210    7.2980 C.ar   79  TYR79       0.0417
    137  CZ        11.4280   14.2410    6.2760 C.ar   79  TYR79       0.1957
    138  OH        10.3020   15.0080    6.4550 O.3    79  TYR79      -0.2866
    139  N         19.5990    3.6860    7.0540 N.3   119  ARG119     -0.1231
    140  CA        19.9380    3.7280    5.6250 C.3   119  ARG119      0.1694
    141  C         19.0520    2.8090    4.7740 C.2   119  ARG119      0.2592
    142  O         18.9120    3.0190    3.5640 O.2   119  ARG119     -0.2718
    143  CB        21.4160    3.3870    5.4020 C.3   119  ARG119      0.0321
    144  CG        21.8050    1.9760    5.8030 C.3   119  ARG119      0.0489
    145  CD        23.2970    1.7420    5.6690 C.3   119  ARG119      0.2205
    146  NE        23.7890    0.8390    6.7130 N.pl3 119  ARG119     -0.0865
    147  CZ        23.6580   -0.4870    6.6930 C.cat 119  ARG119      0.5346
    148  NH1       23.0480   -1.0870    5.6790 N.pl3 119  ARG119      0.1354
    149  NH2       24.1390   -1.2140    7.6940 N.pl3 119  ARG119      0.1354
    150  N         18.4640    1.8000    5.4160 N.am  120  ASN120     -0.1974
    151  CA        17.5920    0.8320    4.7480 C.3   120  ASN120      0.1688
    152  C         16.1090    1.0290    5.0460 C.2   120  ASN120      0.2292
    153  O         15.2900    0.1390    4.7960 O.2   120  ASN120     -0.2864
    154  CB        18.0260   -0.5970    5.0730 C.3   120  ASN120      0.1181
    155  CG        19.3000   -0.9910    4.3500 C.2   120  ASN120      0.2629
    156  OD1       19.6030   -0.4730    3.2700 O.2   120  ASN120     -0.2716
    157  ND2       20.0550   -1.9090    4.9400 N.am  120  ASN120     -0.0877
    158  N         12.9220    3.9310    4.3080 N.3   122  LEU122     -0.1245
    159  CA        12.5730    5.0070    3.3810 C.3   122  LEU122      0.1561
    160  C         11.4450    5.8770    3.9160 C.2   122  LEU122      0.2260
    161  O         10.6190    5.4150    4.7020 O.2   122  LEU122     -0.2867
    162  CB        12.1960    4.4170    2.0230 C.3   122  LEU122      0.0270
    163  CG        13.3360    3.7670    1.2320 C.3   122  LEU122      0.0019
    164  CD1       12.7750    2.8960    0.1350 C.3   122  LEU122      0.0001
    165  CD2       14.2700    4.8210    0.6530 C.3   122  LEU122      0.0001
    166  N         12.7900   -1.2300    4.1880 N.3   132  SER132     -0.1202
    167  CA        13.1360   -1.6230    2.8250 C.3   132  SER132      0.2020
    168  C         14.2240   -2.6900    2.8110 C.2   132  SER132      0.2618
    169  O         14.8700   -2.9420    3.8260 O.2   132  SER132     -0.2717
    170  CB        13.6020   -0.3970    2.0340 C.3   132  SER132      0.2103
    171  OG        13.6810   -0.6770    0.6490 O.3   132  SER132     -0.2182
    172  N         14.4180   -3.3100    1.6460 N.am  133  ASP133     -0.1973
    173  CA        15.5280   -4.2400    1.4070 C.3   133  ASP133      0.1709
    174  C         15.5500   -5.4480    2.3470 C.2   133  ASP133      0.2293
    175  O         16.6110   -6.0020    2.6440 O.2   133  ASP133     -0.2864
    176  CB        16.8740   -3.4970    1.4140 C.3   133  ASP133      0.1436
    177  CG        17.1320   -2.7400    0.1180 C.2   133  ASP133      0.3671
    178  OD1       16.3350   -2.8870   -0.8380 O.co2 133  ASP133     -0.2456
    179  OD2       18.1350   -1.9980    0.0540 O.co2 133  ASP133     -0.2456
@<TRIPOS>BOND
     1    38    37    2
     2    37    36    1
     3    25    26    2
     4    25    24    1
     5    35    36    1
     6     1     2    1
     7    23    24    1
     8    36    39    1
     9    24    27    1
    10    32    33    2
    11    32    31    1
    12     7     5    1
    13    30    31    1
    14     2     5    1
    15     2     3    1
    16    31    34    1
    17     5     6    1
    18    18    17    1
    19    12    11    2
    20     6     8    1
    21    39    40    1
    22     9     3   am
    23     9    10    1
    24    51    52    1
    25    27    28    1
    26    27    29    1
    27     3     4    2
    28    54    53    2
    29    11    10    1
    30    11    13   am
    31    40    41    1
    32    79    77   ar
    33    79    81   ar
    34    17    14    1
    35    77    76   ar
    36    81    80   ar
    37    76    75    1
    38    76    78   ar
    39    75    72    1
    40    80    78   ar
    41    52    53    1
    42    52    55    1
    43    14    13    1
    44    14    15    1
    45    53    62   am
    46    57    59   ar
    47    57    56   ar
    48    59    61   ar
    49    41    42    1
    50    55    56    1
    51    56    58   ar
    52    72    71    1
    53    72    73    1
    54    71    64   am
    55    62    63    1
    56    19    15   am
    57    19    20    1
    58    15    16    2
    59    63    64    1
    60    63    66    1
    61    61    60   ar
    62    64    65    2
    63    42    43    1
    64    22    21    2
    65    58    60   ar
    66    73    74    2
    67    73    82   am
    68    20    21    1
    69    66    67    1
    70    82    83    1
    71    94    91    1
    72    94    95    1
    73    97    96   ar
    74    91    90    1
    75    91    92    1
    76    93    92    2
    77    67    68    1
    78    85    84    2
    79    90    84   am
    80    84    83    1
    81    92    99   am
    82    83    86    1
    83    96    95    1
    84    96    98   ar
    85   178   177   ar
    86    49    48    1
    87    68    70   ar
    88    68    69   ar
    89    86    87    1
    90    99   100    1
    91    87    88    1
    92   179   177   ar
    93   177   176    1
    94    46    47    2
    95    46    45    1
    96   109   110    1
    97   109   101   am
    98   164   163    1
    99   110   111    1
   100    88    89    1
   101   100   101    1
   102   100   103    1
   103    48    45    1
   104    48    50    1
   105   171   170    1
   106   165   163    1
   107   101   102    2
   108   107   105   ar
   109   107   108   ar
   110    45    44    1
   111   105   104   ar
   112   163   162    1
   113   118   117    1
   114   173   176    1
   115   173   172    1
   116   173   174    1
   117   111   113   am
   118   111   112    2
   119   126   124   ar
   120   108   106   ar
   121   172   168   am
   122   104   103    1
   123   104   106   ar
   124   113   114    1
   125   162   159    1
   126   170   167    1
   127   174   175    2
   128   124   125   ar
   129   124   123    1
   130   117   114    1
   131   168   167    1
   132   168   169    2
   133   167   166    1
   134   114   115    1
   135   123   120    1
   136   156   155    2
   137   159   160    1
   138   159   158    1
   139   142   141    2
   140   160   161    2
   141   115   116    2
   142   155   157   am
   143   155   154    1
   144   120   121    1
   145   120   119    1
   146   151   152    1
   147   151   154    1
   148   151   150    1
   149   141   150   am
   150   141   140    1
   151   153   152    2
   152   133   135   ar
   153   133   132   ar
   154   135   137   ar
   155   121   122    2
   156   121   127   am
   157   143   140    1
   158   143   144    1
   159   127   128    1
   160   140   139    1
   161   145   144    1
   162   145   146    1
   163   148   147    1
   164   131   128    1
   165   131   132    1
   166   128   129    1
   167   132   134   ar
   168   137   138    1
   169   137   136   ar
   170   147   146    2
   171   147   149    1
   172   134   136   ar
   173   129   130    2
