@<TRIPOS>MOLECULE
tmp/3mj2A00.pdb
 202 193 0 0 0
SMALL
GASTEIGER

@<TRIPOS>ATOM
      1  N         14.8150    9.0940  -14.6680 N.3    11  GLN11      -0.1231
      2  CA        16.0900    9.6450  -14.2150 C.3    11  GLN11       0.1698
      3  C         16.7360    8.8150  -13.1250 C.2    11  GLN11       0.2592
      4  O         16.0590    8.2640  -12.2530 O.2    11  GLN11      -0.2718
      5  CB        15.9610   11.1120  -13.7650 C.3    11  GLN11       0.0381
      6  CG        14.9950   11.3760  -12.6120 C.3    11  GLN11       0.0905
      7  CD        15.0190   12.8250  -12.1440 C.2    11  GLN11       0.2608
      8  OE1       16.0760   13.3810  -11.8560 O.2    11  GLN11      -0.2717
      9  NE2       13.8460   13.4390  -12.0610 N.am   11  GLN11      -0.0878
     10  N         18.0580    8.7250  -13.2070 N.am   12  GLU12      -0.1966
     11  CA        18.8710    8.0630  -12.2070 C.3    12  GLU12       0.1733
     12  C         18.7760    8.8490  -10.9080 C.2    12  GLU12       0.2616
     13  O         18.9620   10.0660  -10.8920 O.2    12  GLU12      -0.2715
     14  CB        20.3150    8.0180  -12.6930 C.3    12  GLU12       0.0429
     15  CG        21.2030    7.0640  -11.9400 C.3    12  GLU12       0.1163
     16  CD        22.5910    7.0070  -12.5300 C.2    12  GLU12       0.3649
     17  OE1       23.5460    7.3130  -11.7960 O.co2  12  GLU12      -0.2457
     18  OE2       22.7270    6.6660  -13.7250 O.co2  12  GLU12      -0.2457
     19  N         18.4610    8.1600   -9.8210 N.am   13  ILE13      -0.1963
     20  CA        18.3310    8.8500   -8.5400 C.3    13  ILE13       0.1727
     21  C         19.4160    8.4650   -7.5270 C.2    13  ILE13       0.2617
     22  O         19.6410    9.1790   -6.5480 O.2    13  ILE13      -0.2715
     23  CB        16.8720    8.8090   -7.9720 C.3    13  ILE13       0.0290
     24  CG1       16.4320    7.3870   -7.6190 C.3    13  ILE13       0.0022
     25  CG2       15.9000    9.4510   -8.9750 C.3    13  ILE13       0.0023
     26  CD1       14.9730    7.2780   -7.1520 C.3    13  ILE13       0.0001
     27  N         20.1030    7.3540   -7.7920 N.am   14  GLY14      -0.1940
     28  CA        21.2430    6.9330   -6.9780 C.3    14  GLY14       0.2014
     29  C         21.7150    5.5120   -7.2340 C.2    14  GLY14       0.2640
     30  O         21.3640    4.8940   -8.2460 O.2    14  GLY14      -0.2714
     31  N         22.5260    5.0030   -6.3110 N.am   15  SER15      -0.1935
     32  CA        23.0090    3.6270   -6.3550 C.3    15  SER15       0.2055
     33  C         22.9670    3.0110   -4.9700 C.2    15  SER15       0.2643
     34  O         23.2310    3.6890   -3.9730 O.2    15  SER15      -0.2714
     35  CB        24.4390    3.5640   -6.8900 C.3    15  SER15       0.2130
     36  OG        24.4620    3.7230   -8.2940 O.3    15  SER15      -0.2179
     37  N         22.6370    1.7260   -4.9170 N.am   16  GLY16      -0.1954
     38  CA        22.6330    0.9820   -3.6640 C.3    16  GLY16       0.1869
     39  C         23.4560   -0.2860   -3.7440 C.2    16  GLY16       0.2309
     40  O         24.3650   -0.3990   -4.5680 O.2    16  GLY16      -0.2863
     41  N         19.4340    2.9040   -9.1870 N.3    21  VAL21      -0.1245
     42  CA        18.0290    3.1340   -8.8820 C.3    21  VAL21       0.1561
     43  C         17.5540    4.2980   -9.7390 C.2    21  VAL21       0.2260
     44  O         18.1780    5.3660   -9.7540 O.2    21  VAL21      -0.2867
     45  CB        17.7850    3.4520   -7.3830 C.3    21  VAL21       0.0252
     46  CG1       16.2870    3.5280   -7.0920 C.3    21  VAL21       0.0019
     47  CG2       18.4420    2.4050   -6.4900 C.3    21  VAL21       0.0019
     48  N         14.1280    6.7470  -10.8880 N.3    23  LEU23      -0.1245
     49  CA        12.7420    7.1540  -10.9000 C.3    23  LEU23       0.1561
     50  C         12.2110    6.7000  -12.2520 C.2    23  LEU23       0.2260
     51  O         12.8640    6.8920  -13.2820 O.2    23  LEU23      -0.2867
     52  CB        12.6010    8.6740  -10.7410 C.3    23  LEU23       0.0270
     53  CG        11.2300    9.3400  -10.9590 C.3    23  LEU23       0.0019
     54  CD1       10.1930    8.8590   -9.9590 C.3    23  LEU23       0.0001
     55  CD2       11.3370   10.8580  -10.8970 C.3    23  LEU23       0.0001
     56  N          4.3130    6.8790  -10.5520 N.3    31  LYS31      -0.1245
     57  CA         5.7100    6.9470  -10.1370 C.3    31  LYS31       0.1561
     58  C          6.1230    5.6680   -9.4360 C.2    31  LYS31       0.2260
     59  O          5.4530    5.2040   -8.5080 O.2    31  LYS31      -0.2867
     60  CB         5.9470    8.1300   -9.2030 C.3    31  LYS31       0.0271
     61  CG         6.4040    9.3720   -9.8980 C.3    31  LYS31       0.0035
     62  CD         6.8530   10.4080   -8.8910 C.3    31  LYS31       0.0206
     63  CE         7.0900   11.7480   -9.5550 C.3    31  LYS31       0.1093
     64  NZ         7.3900   12.7980   -8.5390 N.3    31  LYS31      -0.1314
     65  N          9.9560    3.3710   -8.2620 N.3    33  ALA33      -0.1245
     66  CA        11.4060    3.3040   -8.2020 C.3    33  ALA33       0.1562
     67  C         11.8420    1.9700   -8.7740 C.2    33  ALA33       0.2260
     68  O         11.3000    0.9190   -8.4210 O.2    33  ALA33      -0.2867
     69  CB        11.8960    3.4660   -6.7880 C.3    33  ALA33       0.0290
     70  N         14.9580   -0.5990   -9.3550 N.3    35  LYS35      -0.1245
     71  CA        16.3060   -1.0660   -9.0800 C.3    35  LYS35       0.1561
     72  C         16.7980   -1.8740  -10.2730 C.2    35  LYS35       0.2260
     73  O         16.1580   -2.8450  -10.6720 O.2    35  LYS35      -0.2867
     74  CB        16.3270   -1.9470   -7.8330 C.3    35  LYS35       0.0271
     75  CG        16.2710   -1.2000   -6.5230 C.3    35  LYS35       0.0035
     76  CD        16.8550   -2.0740   -5.4310 C.3    35  LYS35       0.0206
     77  CE        16.5600   -1.5220   -4.0620 C.3    35  LYS35       0.1093
     78  NZ        17.1160   -2.4080   -3.0070 N.3    35  LYS35      -0.1314
     79  N          7.9920   -1.2370    2.4300 N.3    63  VAL63      -0.1245
     80  CA         8.0450   -0.7650    1.0410 C.3    63  VAL63       0.1561
     81  C          7.6330   -1.9210    0.1380 C.2    63  VAL63       0.2260
     82  O          8.2560   -2.9870    0.1500 O.2    63  VAL63      -0.2867
     83  CB         9.4550   -0.2760    0.6140 C.3    63  VAL63       0.0252
     84  CG1        9.4450    0.2110   -0.8450 C.3    63  VAL63       0.0019
     85  CG2        9.9600    0.8240    1.5310 C.3    63  VAL63       0.0019
     86  N          9.5100   -0.9130   -7.3640 N.3    79  PHE79      -0.1227
     87  CA         9.0690   -0.5770   -6.0200 C.3    79  PHE79       0.1736
     88  C          8.1310    0.6150   -5.9740 C.2    79  PHE79       0.2595
     89  O          8.1300    1.4740   -6.8540 O.2    79  PHE79      -0.2718
     90  CB        10.2730   -0.2780   -5.1190 C.3    79  PHE79       0.0547
     91  CG        11.0690   -1.4900   -4.7360 C.ar   79  PHE79      -0.0202
     92  CD1       12.2400   -1.8090   -5.4150 C.ar   79  PHE79      -0.0042
     93  CD2       10.6640   -2.3000   -3.6790 C.ar   79  PHE79      -0.0042
     94  CE1       12.9890   -2.9240   -5.0550 C.ar   79  PHE79      -0.0003
     95  CE2       11.4050   -3.4190   -3.3130 C.ar   79  PHE79      -0.0003
     96  CZ        12.5700   -3.7320   -4.0040 C.ar   79  PHE79      -0.0000
     97  N          7.3260    0.6260   -4.9200 N.am   80  GLU80      -0.1965
     98  CA         6.6020    1.7900   -4.4500 C.3    80  GLU80       0.1733
     99  C          7.5740    2.9720   -4.3230 C.2    80  GLU80       0.2616
    100  O          8.6130    2.8520   -3.6740 O.2    80  GLU80      -0.2715
    101  CB         6.0210    1.4170   -3.0810 C.3    80  GLU80       0.0429
    102  CG         5.2880    2.4980   -2.3270 C.3    80  GLU80       0.1163
    103  CD         4.9290    2.0690   -0.9170 C.2    80  GLU80       0.3649
    104  OE1        4.3580    2.8960   -0.1880 O.co2  80  GLU80      -0.2457
    105  OE2        5.2250    0.9180   -0.5210 O.co2  80  GLU80      -0.2457
    106  N          7.2500    4.1010   -4.9500 N.am   81  PHE81      -0.1960
    107  CA         8.1020    5.2870   -4.8510 C.3    81  PHE81       0.1771
    108  C          7.9270    5.9960   -3.5080 C.2    81  PHE81       0.2619
    109  O          6.8340    6.4370   -3.1600 O.2    81  PHE81      -0.2715
    110  CB         7.8780    6.2590   -6.0200 C.3    81  PHE81       0.0574
    111  CG         8.8850    7.3810   -6.0770 C.ar   81  PHE81      -0.0200
    112  CD1       10.1920    7.1440   -6.5020 C.ar   81  PHE81      -0.0042
    113  CD2        8.5320    8.6700   -5.6960 C.ar   81  PHE81      -0.0042
    114  CE1       11.1330    8.1780   -6.5460 C.ar   81  PHE81      -0.0003
    115  CE2        9.4630    9.7140   -5.7410 C.ar   81  PHE81      -0.0003
    116  CZ        10.7710    9.4610   -6.1690 C.ar   81  PHE81      -0.0000
    117  N          9.0170    6.0820   -2.7580 N.am   82  MET82      -0.1963
    118  CA         9.0210    6.7510   -1.4670 C.3    82  MET82       0.1736
    119  C          9.5940    8.1520   -1.6420 C.2    82  MET82       0.2616
    120  O         10.7880    8.3100   -1.9120 O.2    82  MET82      -0.2715
    121  CB         9.8260    5.9380   -0.4470 C.3    82  MET82       0.0427
    122  CG         9.3460    4.4880   -0.2920 C.3    82  MET82       0.0599
    123  SD         7.6710    4.3450    0.3600 S.3    82  MET82      -0.1393
    124  CE         7.9020    5.0200    2.0020 C.3    82  MET82       0.0692
    125  N          8.7340    9.1580   -1.4750 N.am   83  GLU83      -0.1963
    126  CA         9.0300   10.5340   -1.8900 C.3    83  GLU83       0.1733
    127  C         10.1790   11.2200   -1.1590 C.2    83  GLU83       0.2616
    128  O         10.7610   12.1630   -1.6900 O.2    83  GLU83      -0.2715
    129  CB         7.7680   11.4190   -1.8820 C.3    83  GLU83       0.0429
    130  CG         7.1230   11.6760   -0.5230 C.3    83  GLU83       0.1163
    131  CD         5.9270   12.6320   -0.6090 C.2    83  GLU83       0.3649
    132  OE1        6.0760   13.7540   -1.1530 O.co2  83  GLU83      -0.2457
    133  OE2        4.8340   12.2670   -0.1200 O.co2  83  GLU83      -0.2457
    134  N         10.5150   10.7580    0.0430 N.am   84  HIS84      -0.1959
    135  CA        11.5980   11.4040    0.7900 C.3    84  HIS84       0.1787
    136  C         12.8710   10.5690    0.9580 C.2    84  HIS84       0.2621
    137  O         13.7420   10.9200    1.7570 O.2    84  HIS84      -0.2715
    138  CB        11.0940   11.9460    2.1330 C.3    84  HIS84       0.0785
    139  CG        10.1360   13.0900    2.0020 C.ar   84  HIS84       0.0821
    140  ND1        8.7860   12.9650    2.2530 N.ar   84  HIS84      -0.2267
    141  CD2       10.3310   14.3800    1.6400 C.ar   84  HIS84       0.1154
    142  CE1        8.1920   14.1270    2.0550 C.ar   84  HIS84       0.1986
    143  NE2        9.1070   15.0030    1.6820 N.ar   84  HIS84      -0.2212
    144  N         12.9860    9.4810    0.1960 N.am   85  GLY85      -0.1940
    145  CA        14.2170    8.6780    0.1630 C.3    85  GLY85       0.2014
    146  C         14.5140    7.9180    1.4490 C.2    85  GLY85       0.2639
    147  O         13.6020    7.5700    2.1910 O.2    85  GLY85      -0.2714
    148  N         15.7950    7.6730    1.7130 N.am   86  CYS86      -0.1967
    149  CA        16.2130    6.8780    2.8730 C.3    86  CYS86       0.1712
    150  C         16.1100    7.6460    4.1890 C.2    86  CYS86       0.2296
    151  O         16.3710    8.8510    4.2390 O.2    86  CYS86      -0.2864
    152  CB        17.6310    6.3420    2.6740 C.3    86  CYS86       0.0983
    153  SG        17.7450    5.1360    1.3340 S.3    86  CYS86      -0.0798
    154  N         19.3140    9.5420    5.4540 N.3    89  ASP89      -0.1239
    155  CA        19.4910   10.8360    4.7860 C.3    89  ASP89       0.1674
    156  C         18.4870   11.8570    5.2970 C.2    89  ASP89       0.2266
    157  O         18.8340   13.0150    5.5360 O.2    89  ASP89      -0.2867
    158  CB        19.3240   10.7020    3.2660 C.3    89  ASP89       0.1410
    159  CG        20.3310    9.7580    2.6370 C.2    89  ASP89       0.3668
    160  OD1       21.4940    9.7070    3.0940 O.co2  89  ASP89      -0.2456
    161  OD2       19.9510    9.0680    1.6640 O.co2  89  ASP89      -0.2456
    162  N         19.4230    3.3640    7.0970 N.3   130  ARG130     -0.1231
    163  CA        19.7340    3.4190    5.6630 C.3   130  ARG130      0.1694
    164  C         18.8620    2.4950    4.8130 C.2   130  ARG130      0.2592
    165  O         18.7490    2.6870    3.6040 O.2   130  ARG130     -0.2718
    166  CB        21.2170    3.1220    5.4060 C.3   130  ARG130      0.0321
    167  CG        21.6680    1.7690    5.9170 C.3   130  ARG130      0.0489
    168  CD        23.1730    1.5900    5.8410 C.3   130  ARG130      0.2205
    169  NE        23.6320    0.6130    6.8340 N.pl3 130  ARG130     -0.0865
    170  CZ        23.4020   -0.6980    6.7680 C.cat 130  ARG130      0.5346
    171  NH1       22.7150   -1.2140    5.7530 N.pl3 130  ARG130      0.1354
    172  NH2       23.8600   -1.4960    7.7220 N.pl3 130  ARG130      0.1354
    173  N         18.2590    1.4960    5.4570 N.am  131  ASN131     -0.1974
    174  CA        17.3930    0.5270    4.7940 C.3   131  ASN131      0.1688
    175  C         15.9040    0.7660    5.0300 C.2   131  ASN131      0.2292
    176  O         15.0710   -0.0670    4.6730 O.2   131  ASN131     -0.2864
    177  CB        17.7930   -0.9020    5.1830 C.3   131  ASN131      0.1181
    178  CG        18.9990   -1.3870    4.4090 C.2   131  ASN131      0.2629
    179  OD1       19.2180   -0.9700    3.2720 O.2   131  ASN131     -0.2716
    180  ND2       19.7920   -2.2650    5.0180 N.am  131  ASN131     -0.0877
    181  N         12.7910    3.6900    4.3160 N.3   133  LEU133     -0.1245
    182  CA        12.4790    4.8090    3.4210 C.3   133  LEU133      0.1561
    183  C         11.3380    5.6700    3.9560 C.2   133  LEU133      0.2260
    184  O         10.5120    5.2050    4.7410 O.2   133  LEU133     -0.2867
    185  CB        12.1610    4.3180    2.0000 C.3   133  LEU133      0.0270
    186  CG        13.1890    3.4990    1.2000 C.3   133  LEU133      0.0019
    187  CD1       12.8480    3.5490   -0.2710 C.3   133  LEU133      0.0001
    188  CD2       14.6020    4.0070    1.3810 C.3   133  LEU133      0.0001
    189  N         12.5280   -1.6350    4.2130 N.3   143  SER143     -0.1202
    190  CA        12.8140   -2.1940    2.8920 C.3   143  SER143      0.2020
    191  C         13.9320   -3.2290    2.9240 C.2   143  SER143      0.2618
    192  O         14.6690   -3.3300    3.9090 O.2   143  SER143     -0.2717
    193  CB        13.1770   -1.0810    1.9030 C.3   143  SER143      0.2103
    194  OG        14.5470   -0.7040    2.0310 O.3   143  SER143     -0.2182
    195  N         14.0400   -3.9880    1.8300 N.am  144  ASP144     -0.1973
    196  CA        15.1730   -4.8790    1.5630 C.3   144  ASP144      0.1709
    197  C         15.4110   -5.9370    2.6410 C.2   144  ASP144      0.2293
    198  O         16.5410   -6.3840    2.8520 O.2   144  ASP144     -0.2864
    199  CB        16.4480   -4.0710    1.2900 C.3   144  ASP144      0.1436
    200  CG        16.3950   -3.3220   -0.0320 C.2   144  ASP144      0.3671
    201  OD1       15.3760   -3.4200   -0.7570 O.co2 144  ASP144     -0.2456
    202  OD2       17.3860   -2.6340   -0.3520 O.co2 144  ASP144     -0.2456
@<TRIPOS>BOND
     1     1     2    1
     2     2     5    1
     3     2     3    1
     4     5     6    1
     5    18    16   ar
     6    51    50    2
     7    10     3   am
     8    10    11    1
     9     3     4    2
    10    14    11    1
    11    14    15    1
    12     6     7    1
    13    16    15    1
    14    16    17   ar
    15    50    49    1
    16    11    12    1
    17     7     9   am
    18     7     8    2
    19    53    55    1
    20    53    52    1
    21    53    54    1
    22    12    13    2
    23    12    19   am
    24    49    48    1
    25    49    52    1
    26    73    72    2
    27    56    57    1
    28    72    71    1
    29    57    58    1
    30    57    60    1
    31    61    60    1
    32    61    62    1
    33    19    20    1
    34    44    43    2
    35    43    42    1
    36    63    62    1
    37    63    64    1
    38    58    59    2
    39    70    71    1
    40    41    42    1
    41    71    74    1
    42    25    23    1
    43    42    45    1
    44    67    68    2
    45    67    66    1
    46    20    23    1
    47    20    21    1
    48    36    35    1
    49    65    66    1
    50    30    29    2
    51    66    69    1
    52    23    24    1
    53    74    75    1
    54    27    21   am
    55    27    28    1
    56    24    26    1
    57    21    22    2
    58    45    46    1
    59    45    47    1
    60    86    87    1
    61    29    28    1
    62    29    31   am
    63    35    32    1
    64    89    88    2
    65   114   112   ar
    66   114   116   ar
    67    75    76    1
    68   112   111   ar
    69    32    31    1
    70    32    33    1
    71   116   115   ar
    72   111   110    1
    73   111   113   ar
    74   110   107    1
    75    87    88    1
    76    87    90    1
    77    88    97   am
    78   115   113   ar
    79    76    77    1
    80    92    94   ar
    81    92    91   ar
    82    90    91    1
    83    94    96   ar
    84    33    37   am
    85    33    34    2
    86   106   107    1
    87   106    99   am
    88    97    98    1
    89    37    38    1
    90   107   108    1
    91    91    93   ar
    92    40    39    2
    93    98    99    1
    94    98   101    1
    95    99   100    2
    96    77    78    1
    97    96    95   ar
    98    39    38    1
    99    93    95   ar
   100   108   109    2
   101   108   117   am
   102   101   102    1
   103   117   118    1
   104   102   103    1
   105   120   119    2
   106   126   129    1
   107   126   125    1
   108   126   127    1
   109   129   130    1
   110   128   127    2
   111   119   125   am
   112   119   118    1
   113   118   121    1
   114   127   134   am
   115   132   131   ar
   116   103   105   ar
   117   103   104   ar
   118    84    83    1
   119   201   200   ar
   120   131   130    1
   121   131   133   ar
   122   121   122    1
   123   202   200   ar
   124   122   123    1
   125   187   186    1
   126   200   199    1
   127   134   135    1
   128    81    82    2
   129    81    80    1
   130   145   144    1
   131   145   146    1
   132   144   136   am
   133   123   124    1
   134    83    80    1
   135    83    85    1
   136   135   136    1
   137   135   138    1
   138   136   137    2
   139    80    79    1
   140   186   188    1
   141   186   185    1
   142   199   196    1
   143   153   152    1
   144   146   148   am
   145   146   147    2
   146   196   195    1
   147   196   197    1
   148   141   143   ar
   149   141   139   ar
   150   161   159   ar
   151   143   142   ar
   152   148   149    1
   153   195   191   am
   154   193   194    1
   155   193   190    1
   156   185   182    1
   157   139   138    1
   158   139   140   ar
   159   142   140   ar
   160   159   160   ar
   161   159   158    1
   162   197   198    2
   163   152   149    1
   164   149   150    1
   165   190   191    1
   166   190   189    1
   167   191   192    2
   168   158   155    1
   169   179   178    2
   170   182   183    1
   171   182   181    1
   172   165   164    2
   173   183   184    2
   174   150   151    2
   175   178   180   am
   176   178   177    1
   177   176   175    2
   178   155   156    1
   179   155   154    1
   180   174   175    1
   181   174   177    1
   182   174   173    1
   183   164   173   am
   184   164   163    1
   185   156   157    2
   186   166   163    1
   187   166   167    1
   188   163   162    1
   189   171   170    1
   190   168   167    1
   191   168   169    1
   192   170   169    2
   193   170   172    1
