@<TRIPOS>MOLECULE
tmp/3mj4E01.pdb
 182 179 0 0 0
SMALL
GASTEIGER

@<TRIPOS>ATOM
      1  N         45.2800 -104.1560   20.3350 N.3    85  ALA85      -0.1245
      2  CA        45.8570 -105.4740   20.6350 C.3    85  ALA85       0.1562
      3  C         47.0840 -105.3490   21.5030 C.2    85  ALA85       0.2260
      4  O         47.9830 -104.5650   21.1990 O.2    85  ALA85      -0.2867
      5  CB        46.2160 -106.2110   19.3560 C.3    85  ALA85       0.0290
      6  N         44.3220 -102.9620   15.8010 N.3    94  ILE94      -0.1245
      7  CA        44.0100 -104.1210   14.9840 C.3    94  ILE94       0.1561
      8  C         42.6710 -103.7850   14.3450 C.2    94  ILE94       0.2260
      9  O         41.7540 -103.3720   15.0420 O.2    94  ILE94      -0.2867
     10  CB        43.8820 -105.3980   15.8540 C.3    94  ILE94       0.0252
     11  CG1       43.6880 -106.6480   14.9840 C.3    94  ILE94       0.0019
     12  CG2       42.7420 -105.2660   16.8550 C.3    94  ILE94       0.0019
     13  CD1       44.9360 -107.0640   14.2450 C.3    94  ILE94       0.0001
     14  N         50.3860 -111.1940   15.7760 N.3   147  PHE147     -0.1227
     15  CA        48.9900 -110.7780   15.7970 C.3   147  PHE147      0.1736
     16  C         47.9550 -111.8940   15.5850 C.2   147  PHE147      0.2595
     17  O         46.8270 -111.7790   16.0620 O.2   147  PHE147     -0.2718
     18  CB        48.7550 -109.6220   14.7990 C.3   147  PHE147      0.0547
     19  CG        49.3480 -108.3210   15.2460 C.ar  147  PHE147     -0.0202
     20  CD1       50.6020 -107.9340   14.8230 C.ar  147  PHE147     -0.0042
     21  CD2       48.6620 -107.5010   16.1240 C.ar  147  PHE147     -0.0042
     22  CE1       51.1550 -106.7470   15.2550 C.ar  147  PHE147     -0.0003
     23  CE2       49.2070 -106.3250   16.5550 C.ar  147  PHE147     -0.0003
     24  CZ        50.4610 -105.9430   16.1210 C.ar  147  PHE147     -0.0000
     25  N         48.3260 -112.9580   14.8750 N.am  148  PHE148     -0.1976
     26  CA        47.3340 -113.9530   14.4410 C.3   148  PHE148      0.1639
     27  C         47.4780 -115.3550   15.0280 C.2   148  PHE148      0.2290
     28  O         46.5310 -115.8650   15.6230 O.2   148  PHE148     -0.2864
     29  CB        47.2410 -114.0040   12.9150 C.3   148  PHE148      0.0560
     30  CG        46.4880 -112.8490   12.3280 C.ar  148  PHE148     -0.0200
     31  CD1       45.0960 -112.8450   12.3220 C.ar  148  PHE148     -0.0042
     32  CD2       47.1620 -111.7540   11.8040 C.ar  148  PHE148     -0.0042
     33  CE1       44.3900 -111.7750   11.8020 C.ar  148  PHE148     -0.0003
     34  CE2       46.4590 -110.6840   11.2830 C.ar  148  PHE148     -0.0003
     35  CZ        45.0700 -110.6980   11.2800 C.ar  148  PHE148     -0.0000
     36  N         46.6060 -115.8760   18.8230 N.3   151  TYR151     -0.1227
     37  CA        45.2250 -115.5270   19.0840 C.3   151  TYR151      0.1736
     38  C         44.3390 -116.6330   18.5320 C.2   151  TYR151      0.2596
     39  O         43.5330 -117.2250   19.2480 O.2   151  TYR151     -0.2718
     40  CB        44.9000 -114.1690   18.4340 C.3   151  TYR151      0.0548
     41  CG        43.5380 -113.6260   18.7960 C.ar  151  TYR151     -0.0200
     42  CD1       43.3910 -112.6390   19.7670 C.ar  151  TYR151     -0.0009
     43  CD2       42.3900 -114.1140   18.1770 C.ar  151  TYR151     -0.0009
     44  CE1       42.1240 -112.1470   20.1100 C.ar  151  TYR151      0.0417
     45  CE2       41.1290 -113.6330   18.5110 C.ar  151  TYR151      0.0417
     46  CZ        41.0010 -112.6510   19.4740 C.ar  151  TYR151      0.1957
     47  OH        39.7500 -112.1860   19.7940 O.3   151  TYR151     -0.2866
     48  N         44.5090 -116.9160   17.2480 N.am  152  THR152     -0.1953
     49  CA        43.7250 -117.9370   16.5840 C.3   152  THR152      0.1897
     50  C         43.8470 -119.2820   17.3060 C.2   152  THR152      0.2313
     51  O         42.8350 -119.9280   17.5890 O.2   152  THR152     -0.2863
     52  CB        44.1320 -118.0660   15.1130 C.3   152  THR152      0.1794
     53  OG1       44.0410 -116.7810   14.4930 O.3   152  THR152     -0.2208
     54  CG2       43.2070 -119.0140   14.3990 C.3   152  THR152      0.0378
     55  N         41.6840 -118.8940   20.4120 N.3   155  GLN155     -0.1231
     56  CA        40.2330 -118.8190   20.2360 C.3   155  GLN155      0.1698
     57  C         39.6080 -120.1390   19.7590 C.2   155  GLN155      0.2592
     58  O         38.5660 -120.5490   20.2570 O.2   155  GLN155     -0.2718
     59  CB        39.8760 -117.6730   19.2700 C.3   155  GLN155      0.0381
     60  CG        38.4100 -117.6040   18.8530 C.3   155  GLN155      0.0905
     61  CD        37.6050 -116.5800   19.6340 C.2   155  GLN155      0.2608
     62  OE1       37.9700 -116.1970   20.7460 O.2   155  GLN155     -0.2717
     63  NE2       36.5000 -116.1260   19.0480 N.am  155  GLN155     -0.0878
     64  N         40.2470 -120.7980   18.7980 N.am  156  TRP156     -0.1976
     65  CA        39.6480 -121.9440   18.1310 C.3   156  TRP156      0.1640
     66  C         40.2040 -123.2580   18.6410 C.2   156  TRP156      0.2290
     67  O         39.5880 -124.3000   18.4840 O.2   156  TRP156     -0.2864
     68  CB        39.8800 -121.8580   16.6180 C.3   156  TRP156      0.0576
     69  CG        39.3200 -120.6220   16.0140 C.ar  156  TRP156      0.0006
     70  CD1       39.9500 -119.4220   15.8760 C.ar  156  TRP156      0.0946
     71  CD2       38.0010 -120.4500   15.4780 C.ar  156  TRP156      0.0152
     72  NE1       39.1040 -118.5060   15.2830 N.ar  156  TRP156     -0.2442
     73  CE2       37.9030 -119.1140   15.0280 C.ar  156  TRP156      0.0810
     74  CE3       36.8960 -121.2910   15.3310 C.ar  156  TRP156      0.0012
     75  CZ2       36.7480 -118.6080   14.4480 C.ar  156  TRP156      0.0191
     76  CZ3       35.7570 -120.7900   14.7550 C.ar  156  TRP156      0.0001
     77  CH2       35.6880 -119.4590   14.3210 C.ar  156  TRP156      0.0015
     78  N         38.1080 -117.0760    7.8640 N.3   167  VAL167     -0.1231
     79  CA        38.1690 -116.6670    9.2630 C.3   167  VAL167      0.1692
     80  C         39.0430 -115.4180    9.4600 C.2   167  VAL167      0.2592
     81  O         38.5450 -114.3860    9.8990 O.2   167  VAL167     -0.2718
     82  CB        38.6260 -117.8340   10.1670 C.3   167  VAL167      0.0266
     83  CG1       38.8360 -117.3670   11.5990 C.3   167  VAL167      0.0020
     84  CG2       37.6110 -118.9540   10.1110 C.3   167  VAL167      0.0020
     85  N         40.3280 -115.4950    9.1130 N.am  168  THR168     -0.1953
     86  CA        41.2250 -114.3490    9.2780 C.3   168  THR168      0.1897
     87  C         41.0090 -113.2820    8.2070 C.2   168  THR168      0.2313
     88  O         41.5140 -112.1610    8.3220 O.2   168  THR168     -0.2863
     89  CB        42.7100 -114.7580    9.2740 C.3   168  THR168      0.1794
     90  OG1       43.0350 -115.3750    8.0230 O.3   168  THR168     -0.2208
     91  CG2       43.0100 -115.7110   10.4150 C.3   168  THR168      0.0378
     92  N         38.2420 -112.0400    7.7110 N.3   170  ARG170     -0.1231
     93  CA        37.2540 -111.1480    8.3060 C.3   170  ARG170      0.1694
     94  C         37.9470 -109.8790    8.7780 C.2   170  ARG170      0.2591
     95  O         37.3520 -108.8050    8.8140 O.2   170  ARG170     -0.2718
     96  CB        36.5360 -111.8310    9.4700 C.3   170  ARG170      0.0321
     97  CG        35.5260 -112.8730    9.0320 C.3   170  ARG170      0.0489
     98  CD        34.9820 -113.6780   10.2030 C.3   170  ARG170      0.2205
     99  NE        34.4070 -112.8170   11.2290 N.pl3 170  ARG170     -0.0865
    100  CZ        33.2330 -112.2040   11.1160 C.cat 170  ARG170      0.5346
    101  NH1       32.5120 -112.3470   10.0130 N.pl3 170  ARG170      0.1354
    102  NH2       32.7900 -111.4390   12.1030 N.pl3 170  ARG170      0.1354
    103  N         39.2210 -110.0220    9.1250 N.am  171  VAL171     -0.1980
    104  CA        40.0460 -108.8980    9.5450 C.3   171  VAL171      0.1595
    105  C         41.0600 -108.5160    8.4600 C.2   171  VAL171      0.2287
    106  O         42.1100 -109.1620    8.3100 O.2   171  VAL171     -0.2864
    107  CB        40.7850 -109.2050   10.8670 C.3   171  VAL171      0.0276
    108  CG1       41.6430 -108.0190   11.2770 C.3   171  VAL171      0.0022
    109  CG2       39.7940 -109.5750   11.9740 C.3   171  VAL171      0.0022
    110  N         37.4790 -100.9210   14.0110 N.3   181  TYR181     -0.1227
    111  CA        37.4160 -102.3420   13.7510 C.3   181  TYR181      0.1736
    112  C         36.6200 -102.6140   12.4890 C.2   181  TYR181      0.2595
    113  O         37.0160 -103.4450   11.6780 O.2   181  TYR181     -0.2718
    114  CB        36.8360 -103.1170   14.9240 C.3   181  TYR181      0.0548
    115  CG        37.3150 -104.5660   14.9450 C.ar  181  TYR181     -0.0200
    116  CD1       38.6660 -104.8670   15.0710 C.ar  181  TYR181     -0.0009
    117  CD2       36.4190 -105.6230   14.8330 C.ar  181  TYR181     -0.0009
    118  CE1       39.1100 -106.1760   15.0860 C.ar  181  TYR181      0.0417
    119  CE2       36.8500 -106.9250   14.8480 C.ar  181  TYR181      0.0417
    120  CZ        38.1940 -107.2050   14.9760 C.ar  181  TYR181      0.1957
    121  OH        38.6200 -108.5170   14.9910 O.3   181  TYR181     -0.2866
    122  N         35.5080 -101.8980   12.3260 N.am  182  PHE182     -0.1976
    123  CA        34.6620 -102.0080   11.1330 C.3   182  PHE182      0.1639
    124  C         34.7450 -100.7960   10.2270 C.2   182  PHE182      0.2290
    125  O         34.8380  -99.6560   10.7030 O.2   182  PHE182     -0.2864
    126  CB        33.2120 -102.2020   11.5430 C.3   182  PHE182      0.0560
    127  CG        33.0430 -103.2470   12.5730 C.ar  182  PHE182     -0.0200
    128  CD1       32.7130 -102.9100   13.8710 C.ar  182  PHE182     -0.0042
    129  CD2       33.2790 -104.5780   12.2620 C.ar  182  PHE182     -0.0042
    130  CE1       32.5740 -103.8860   14.8360 C.ar  182  PHE182     -0.0003
    131  CE2       33.1460 -105.5560   13.2160 C.ar  182  PHE182     -0.0003
    132  CZ        32.7940 -105.2190   14.5080 C.ar  182  PHE182     -0.0000
    133  N         42.1980 -106.9130   22.7240 N.3   268  ASN268     -0.1240
    134  CA        42.5910 -108.2750   22.3190 C.3   268  ASN268      0.1653
    135  C         43.9370 -108.6930   22.8870 C.2   268  ASN268      0.2266
    136  O         44.8820 -107.8930   22.9100 O.2   268  ASN268     -0.2867
    137  CB        42.6970 -108.3770   20.8000 C.3   268  ASN268      0.1155
    138  CG        41.3670 -108.5200   20.1300 C.2   268  ASN268      0.2627
    139  OD1       40.3190 -108.4720   20.7730 O.2   268  ASN268     -0.2716
    140  ND2       41.3960 -108.6900   18.8180 N.am  268  ASN268     -0.0877
    141  N         46.5840 -111.3490   21.9820 N.3   270  PRO270     -0.2116
    142  CA        47.0350 -112.4220   21.0930 C.3   270  PRO270      0.1372
    143  C         48.0310 -113.3840   21.7300 C.2   270  PRO270      0.2244
    144  O         48.0760 -114.5420   21.3350 O.2   270  PRO270     -0.2868
    145  CB        47.7150 -111.6690   19.9470 C.3   270  PRO270      0.0268
    146  CG        47.1850 -110.2750   20.0410 C.3   270  PRO270      0.0207
    147  CD        47.0060 -110.0290   21.5020 C.3   270  PRO270      0.0892
    148  N         40.2200 -111.7380   25.2330 N.3   277  ARG277     -0.1245
    149  CA        39.9730 -110.3100   25.2820 C.3   277  ARG277      0.1563
    150  C         39.1240 -109.8260   26.4500 C.2   277  ARG277      0.2260
    151  O         38.4260 -110.6120   27.0920 O.2   277  ARG277     -0.2867
    152  CB        39.3800 -109.8430   23.9540 C.3   277  ARG277      0.0307
    153  CG        38.1400 -110.5710   23.5410 C.3   277  ARG277      0.0489
    154  CD        37.8190 -110.2390   22.0910 C.3   277  ARG277      0.2205
    155  NE        36.5970 -110.8980   21.6390 N.pl3 277  ARG277     -0.0865
    156  CZ        35.4540 -110.2750   21.3720 C.cat 277  ARG277      0.5346
    157  NH1       35.3630 -108.9570   21.5090 N.pl3 277  ARG277      0.1354
    158  NH2       34.4020 -110.9750   20.9660 N.pl3 277  ARG277      0.1354
    159  N         30.4320 -120.2210   17.7410 N.3   307  TYR307     -0.1241
    160  CA        31.1540 -120.1260   16.4880 C.3   307  TYR307      0.1605
    161  C         31.1130 -121.4120   15.6890 C.2   307  TYR307      0.2264
    162  O         31.5730 -122.4530   16.1590 O.2   307  TYR307     -0.2867
    163  CB        32.6160 -119.8010   16.7490 C.3   307  TYR307      0.0534
    164  CG        32.8740 -118.4680   17.4020 C.ar  307  TYR307     -0.0201
    165  CD1       33.0790 -118.3770   18.7720 C.ar  307  TYR307     -0.0009
    166  CD2       32.9420 -117.3020   16.6470 C.ar  307  TYR307     -0.0009
    167  CE1       33.3360 -117.1660   19.3750 C.ar  307  TYR307      0.0417
    168  CE2       33.2010 -116.0880   17.2450 C.ar  307  TYR307      0.0417
    169  CZ        33.3990 -116.0240   18.6110 C.ar  307  TYR307      0.1957
    170  OH        33.6540 -114.8100   19.2170 O.3   307  TYR307     -0.2866
    171  N         28.9320 -118.0020    9.8260 N.3   342  TYR342     -0.1241
    172  CA        29.5610 -117.0250   10.7130 C.3   342  TYR342      0.1605
    173  C         28.9980 -115.6330   10.4070 C.2   342  TYR342      0.2264
    174  O         29.7230 -114.7600    9.9310 O.2   342  TYR342     -0.2867
    175  CB        31.0670 -117.0470   10.4400 C.3   342  TYR342      0.0534
    176  CG        31.9930 -116.4710   11.4990 C.ar  342  TYR342     -0.0201
    177  CD1       31.5370 -115.5940   12.4720 C.ar  342  TYR342     -0.0009
    178  CD2       33.3520 -116.8020   11.5000 C.ar  342  TYR342     -0.0009
    179  CE1       32.4120 -115.0670   13.4220 C.ar  342  TYR342      0.0417
    180  CE2       34.2250 -116.2880   12.4400 C.ar  342  TYR342      0.0417
    181  CZ        33.7550 -115.4220   13.4010 C.ar  342  TYR342      0.1957
    182  OH        34.6370 -114.9130   14.3370 O.3   342  TYR342     -0.2866
@<TRIPOS>BOND
     1    92    93    1
     2    78    79    1
     3    90    89    1
     4    87    88    2
     5    87    86    1
     6    93    94    1
     7    93    96    1
     8   106   105    2
     9   105   104    1
    10    94    95    2
    11    94   103   am
    12    97    96    1
    13    97    98    1
    14    85    86    1
    15    85    80   am
    16   103   104    1
    17    79    80    1
    18    79    82    1
    19    89    86    1
    20    89    91    1
    21    80    81    2
    22   104   107    1
    23   171   172    1
    24   174   173    2
    25   101   100    1
    26    84    82    1
    27    82    83    1
    28    98    99    1
    29   124   125    2
    30   124   123    1
    31   173   172    1
    32   175   172    1
    33   175   176    1
    34   107   108    1
    35   107   109    1
    36   100    99    2
    37   100   102    1
    38   123   126    1
    39   123   122    1
    40    35    34   ar
    41    35    33   ar
    42    34    32   ar
    43   176   178   ar
    44   176   177   ar
    45   178   180   ar
    46   126   127    1
    47   113   112    2
    48    33    31   ar
    49    32    30   ar
    50   129   127   ar
    51   129   131   ar
    52    31    30   ar
    53   122   112   am
    54    30    29    1
    55   180   181   ar
    56   177   179   ar
    57   112   111    1
    58   127   128   ar
    59    29    26    1
    60   131   132   ar
    61   181   179   ar
    62   181   182    1
    63   111   110    1
    64   111   114    1
    65   128   130   ar
    66    13    11    1
    67    77    75   ar
    68    77    76   ar
    69     8     7    1
    70     8     9    2
    71    54    52    1
    72    26    25    1
    73    26    27    1
    74    75    73   ar
    75    53    52    1
    76   132   130   ar
    77    76    74   ar
    78    18    19    1
    79    18    15    1
    80    20    19   ar
    81    20    22   ar
    82   117   119   ar
    83   117   115   ar
    84   119   120   ar
    85    25    16   am
    86   114   115    1
    87   115   116   ar
    88   120   121    1
    89   120   118   ar
    90     7     6    1
    91     7    10    1
    92    11    10    1
    93    73    72   ar
    94    73    71   ar
    95    27    28    2
    96   116   118   ar
    97    52    49    1
    98    19    21   ar
    99    22    24   ar
   100    72    70   ar
   101    74    71   ar
   102    71    69   ar
   103    16    15    1
   104    16    17    2
   105   161   162    2
   106   161   160    1
   107    14    15    1
   108    10    12    1
   109    70    69   ar
   110    69    68    1
   111    24    23   ar
   112    21    23   ar
   113   160   163    1
   114   160   159    1
   115    49    48    1
   116    49    50    1
   117    68    65    1
   118   166   168   ar
   119   166   164   ar
   120   163   164    1
   121   168   169   ar
   122    48    38   am
   123    50    51    2
   124   164   165   ar
   125    65    66    1
   126    65    64    1
   127    43    45   ar
   128    43    41   ar
   129    40    41    1
   130    40    37    1
   131    67    66    2
   132    45    46   ar
   133    38    37    1
   134    38    39    2
   135   169   170    1
   136   169   167   ar
   137   165   167   ar
   138    41    42   ar
   139    64    57   am
   140   140   138   am
   141    36    37    1
   142    60    59    1
   143    60    61    1
   144    63    61   am
   145    59    56    1
   146     5     2    1
   147    46    47    1
   148    46    44   ar
   149    61    62    2
   150    57    56    1
   151    57    58    2
   152    42    44   ar
   153   145   146    1
   154   145   142    1
   155   146   147    1
   156   138   139    2
   157   138   137    1
   158    56    55    1
   159     1     2    1
   160     2     3    1
   161   137   134    1
   162   158   156    1
   163   142   143    1
   164   142   141    1
   165     4     3    2
   166   144   143    2
   167   156   157    1
   168   156   155    2
   169   147   141    1
   170   155   154    1
   171   154   153    1
   172   134   133    1
   173   134   135    1
   174   135   136    2
   175   153   152    1
   176   152   149    1
   177   148   149    1
   178   149   150    1
   179   150   151    2
