@<TRIPOS>MOLECULE
tmp/3mj4D00.pdb
 248 240 0 0 0
SMALL
GASTEIGER

@<TRIPOS>ATOM
      1  N         69.5420  -70.6850   48.5190 N.3    55  PRO55      -0.2116
      2  CA        69.2590  -72.1210   48.5780 C.3    55  PRO55       0.1372
      3  C         70.5340  -72.9660   48.7300 C.2    55  PRO55       0.2244
      4  O         71.5210  -72.7360   48.0380 O.2    55  PRO55      -0.2868
      5  CB        68.5650  -72.3920   47.2320 C.3    55  PRO55       0.0268
      6  CG        69.0340  -71.2960   46.3440 C.3    55  PRO55       0.0207
      7  CD        69.0910  -70.0950   47.2520 C.3    55  PRO55       0.0892
      8  N         71.5910  -76.8280   48.3380 N.3    57  ILE57      -0.1245
      9  CA        71.2360  -78.1620   47.8870 C.3    57  ILE57       0.1561
     10  C         72.3220  -79.1500   48.3010 C.2    57  ILE57       0.2260
     11  O         73.4480  -79.0660   47.8160 O.2    57  ILE57      -0.2867
     12  CB        71.1070  -78.2100   46.3570 C.3    57  ILE57       0.0252
     13  CG1       69.7680  -77.6380   45.9010 C.3    57  ILE57       0.0019
     14  CG2       71.1360  -79.6300   45.8770 C.3    57  ILE57       0.0019
     15  CD1       69.5920  -76.1660   46.1390 C.3    57  ILE57       0.0001
     16  N         74.5170  -82.4030   48.1750 N.3    59  HIS59      -0.1241
     17  CA        74.9110  -83.4490   47.2360 C.3    59  HIS59       0.1621
     18  C         76.2890  -83.9520   47.6060 C.2    59  HIS59       0.2264
     19  O         77.1010  -83.1910   48.1150 O.2    59  HIS59      -0.2867
     20  CB        74.9240  -82.9270   45.8000 C.3    59  HIS59       0.0745
     21  CG        75.8360  -81.7680   45.5970 C.ar   59  HIS59       0.0817
     22  ND1       77.1390  -81.9110   45.1720 N.ar   59  HIS59      -0.2268
     23  CD2       75.6510  -80.4410   45.7970 C.ar   59  HIS59       0.1154
     24  CE1       77.7140  -80.7230   45.1070 C.ar   59  HIS59       0.1986
     25  NE2       76.8330  -79.8160   45.4830 N.ar   59  HIS59      -0.2212
     26  N         68.4180  -81.8440   42.3090 N.3    80  HIS80      -0.1241
     27  CA        68.1830  -80.4640   41.8800 C.3    80  HIS80       0.1621
     28  C         68.3020  -80.3560   40.3640 C.2    80  HIS80       0.2264
     29  O         69.2310  -80.8920   39.7650 O.2    80  HIS80      -0.2867
     30  CB        69.1990  -79.5460   42.5800 C.3    80  HIS80       0.0745
     31  CG        68.9460  -78.0760   42.4040 C.ar   80  HIS80       0.0817
     32  ND1       67.7490  -77.4770   42.7330 N.ar   80  HIS80      -0.2268
     33  CD2       69.7570  -77.0780   41.9740 C.ar   80  HIS80       0.1154
     34  CE1       67.8230  -76.1830   42.4880 C.ar   80  HIS80       0.1986
     35  NE2       69.0320  -75.9140   42.0280 N.ar   80  HIS80      -0.2212
     36  N         68.3140  -77.3610   37.2820 N.3    82  VAL82      -0.1245
     37  CA        68.3450  -75.9210   36.9890 C.3    82  VAL82       0.1561
     38  C         68.0960  -75.6090   35.5100 C.2    82  VAL82       0.2260
     39  O         68.7660  -76.1510   34.6340 O.2    82  VAL82      -0.2867
     40  CB        69.6930  -75.2850   37.4270 C.3    82  VAL82       0.0252
     41  CG1       69.8470  -73.8670   36.8750 C.3    82  VAL82       0.0019
     42  CG2       69.8230  -75.2890   38.9370 C.3    82  VAL82       0.0019
     43  N         67.9300  -72.5060   32.4850 N.3    84  ALA84      -0.1245
     44  CA        68.4730  -71.1760   32.1780 C.3    84  ALA84       0.1562
     45  C         67.6390  -70.4140   31.1550 C.2    84  ALA84       0.2260
     46  O         67.3940  -70.9060   30.0570 O.2    84  ALA84      -0.2867
     47  CB        69.9030  -71.2840   31.6810 C.3    84  ALA84       0.0290
     48  N         70.8060  -76.2050   31.9960 N.3    93  ILE93      -0.1245
     49  CA        72.2040  -75.9480   32.2680 C.3    93  ILE93       0.1561
     50  C         72.5100  -76.8380   33.4590 C.2    93  ILE93       0.2260
     51  O         71.6590  -76.9860   34.3330 O.2    93  ILE93      -0.2867
     52  CB        72.4780  -74.4610   32.6280 C.3    93  ILE93       0.0252
     53  CG1       73.9760  -74.2310   32.8080 C.3    93  ILE93       0.0019
     54  CG2       71.7530  -74.0510   33.9180 C.3    93  ILE93       0.0019
     55  CD1       74.4570  -72.8750   32.3480 C.3    93  ILE93       0.0001
     56  N         75.3140  -68.4290   27.5000 N.3   146  PHE146     -0.1227
     57  CA        75.2010  -69.1120   28.7790 C.3   146  PHE146      0.1736
     58  C         76.1680  -68.6360   29.8610 C.2   146  PHE146      0.2595
     59  O         75.8500  -68.6990   31.0510 O.2   146  PHE146     -0.2718
     60  CB        75.3100  -70.6280   28.5730 C.3   146  PHE146      0.0547
     61  CG        74.0760  -71.2450   27.9930 C.ar  146  PHE146     -0.0202
     62  CD1       73.9930  -71.5210   26.6380 C.ar  146  PHE146     -0.0042
     63  CD2       72.9870  -71.5310   28.8010 C.ar  146  PHE146     -0.0042
     64  CE1       72.8540  -72.0860   26.1100 C.ar  146  PHE146     -0.0003
     65  CE2       71.8450  -72.0910   28.2760 C.ar  146  PHE146     -0.0003
     66  CZ        71.7790  -72.3680   26.9340 C.ar  146  PHE146     -0.0000
     67  N         77.3330  -68.1440   29.4510 N.am  147  PHE147     -0.1976
     68  CA        78.3990  -67.8420   30.4060 C.3   147  PHE147      0.1639
     69  C         78.8310  -66.3850   30.5690 C.2   147  PHE147      0.2290
     70  O         79.0530  -65.9330   31.6970 O.2   147  PHE147     -0.2864
     71  CB        79.6150  -68.7290   30.1350 C.3   147  PHE147      0.0560
     72  CG        79.4170  -70.1500   30.5580 C.ar  147  PHE147     -0.0200
     73  CD1       79.6470  -70.5300   31.8730 C.ar  147  PHE147     -0.0042
     74  CD2       78.9790  -71.0980   29.6530 C.ar  147  PHE147     -0.0042
     75  CE1       79.4570  -71.8380   32.2780 C.ar  147  PHE147     -0.0003
     76  CE2       78.7950  -72.3920   30.0440 C.ar  147  PHE147     -0.0003
     77  CZ        79.0350  -72.7680   31.3660 C.ar  147  PHE147     -0.0000
     78  N         76.2310  -64.0040   32.4370 N.3   150  TYR150     -0.1227
     79  CA        75.9830  -64.5330   33.7820 C.3   150  TYR150      0.1736
     80  C         77.1800  -64.3440   34.6980 C.2   150  TYR150      0.2596
     81  O         77.0150  -63.9690   35.8590 O.2   150  TYR150     -0.2718
     82  CB        75.5880  -66.0030   33.7390 C.3   150  TYR150      0.0548
     83  CG        75.1640  -66.6040   35.0710 C.ar  150  TYR150     -0.0200
     84  CD1       73.8270  -66.8360   35.3510 C.ar  150  TYR150     -0.0009
     85  CD2       76.1010  -66.9650   36.0310 C.ar  150  TYR150     -0.0009
     86  CE1       73.4320  -67.4090   36.5540 C.ar  150  TYR150      0.0417
     87  CE2       75.7200  -67.5280   37.2390 C.ar  150  TYR150      0.0417
     88  CZ        74.3820  -67.7590   37.4960 C.ar  150  TYR150      0.1957
     89  OH        73.9850  -68.3350   38.6890 O.3   150  TYR150     -0.2866
     90  N         78.3780  -64.6130   34.1790 N.am  151  THR151     -0.1953
     91  CA        79.6160  -64.3460   34.9110 C.3   151  THR151      0.1897
     92  C         79.7870  -62.8470   35.1660 C.2   151  THR151      0.2313
     93  O         79.9990  -62.4210   36.3000 O.2   151  THR151     -0.2863
     94  CB        80.8400  -64.8990   34.1630 C.3   151  THR151      0.1794
     95  OG1       80.6880  -66.3090   34.0050 O.3   151  THR151     -0.2208
     96  CG2       82.1050  -64.6370   34.9370 C.3   151  THR151      0.0378
     97  N         77.4950  -61.9190   37.7730 N.3   154  GLN154     -0.1231
     98  CA        77.7200  -62.5660   39.0600 C.3   154  GLN154      0.1698
     99  C         78.9640  -62.0540   39.7800 C.2   154  GLN154      0.2592
    100  O         78.9530  -61.8790   41.0030 O.2   154  GLN154     -0.2718
    101  CB        77.8220  -64.0840   38.8690 C.3   154  GLN154      0.0381
    102  CG        78.2660  -64.8640   40.1070 C.3   154  GLN154      0.0905
    103  CD        77.1010  -65.4290   40.8980 C.2   154  GLN154      0.2608
    104  OE1       76.2530  -64.6880   41.4250 O.2   154  GLN154     -0.2717
    105  NE2       77.0420  -66.7500   40.9720 N.am  154  GLN154     -0.0878
    106  N         80.0350  -61.8220   39.0270 N.am  155  TRP155     -0.1976
    107  CA        81.3340  -61.5240   39.6250 C.3   155  TRP155      0.1640
    108  C         81.7160  -60.0570   39.5360 C.2   155  TRP155      0.2290
    109  O         82.4690  -59.5570   40.3580 O.2   155  TRP155     -0.2864
    110  CB        82.4320  -62.3580   38.9600 C.3   155  TRP155      0.0576
    111  CG        82.3200  -63.8200   39.2390 C.ar  155  TRP155      0.0006
    112  CD1       81.7750  -64.7770   38.4260 C.ar  155  TRP155      0.0946
    113  CD2       82.7610  -64.4960   40.4170 C.ar  155  TRP155      0.0152
    114  NE1       81.8550  -66.0060   39.0280 N.ar  155  TRP155     -0.2442
    115  CE2       82.4540  -65.8630   40.2520 C.ar  155  TRP155      0.0810
    116  CE3       83.3840  -64.0790   41.5970 C.ar  155  TRP155      0.0012
    117  CZ2       82.7510  -66.8180   41.2250 C.ar  155  TRP155      0.0191
    118  CZ3       83.6750  -65.0280   42.5620 C.ar  155  TRP155      0.0001
    119  CH2       83.3580  -66.3840   42.3690 C.ar  155  TRP155      0.0015
    120  N         86.7750  -71.2530   38.0720 N.3   166  VAL166     -0.1231
    121  CA        85.4130  -70.7620   38.2780 C.3   166  VAL166      0.1692
    122  C         84.3970  -71.4400   37.3480 C.2   166  VAL166      0.2592
    123  O         83.5480  -72.1840   37.8180 O.2   166  VAL166     -0.2718
    124  CB        85.3130  -69.2100   38.1940 C.3   166  VAL166      0.0266
    125  CG1       83.8630  -68.7720   38.0240 C.3   166  VAL166      0.0020
    126  CG2       85.9110  -68.5540   39.4310 C.3   166  VAL166      0.0020
    127  N         84.4860  -71.2080   36.0410 N.am  167  THR167     -0.1953
    128  CA        83.5520  -71.8450   35.1100 C.3   167  THR167      0.1897
    129  C         83.8240  -73.3430   34.8740 C.2   167  THR167      0.2313
    130  O         82.9620  -74.0690   34.3640 O.2   167  THR167     -0.2863
    131  CB        83.4530  -71.1000   33.7500 C.3   167  THR167      0.1794
    132  OG1       84.7460  -70.9870   33.1460 O.3   167  THR167     -0.2208
    133  CG2       82.8690  -69.7220   33.9410 C.3   167  THR167      0.0378
    134  N         83.7320  -75.4840   36.8910 N.3   169  ARG169     -0.1231
    135  CA        82.8820  -76.2340   37.8220 C.3   169  ARG169      0.1694
    136  C         81.6230  -76.7640   37.1350 C.2   169  ARG169      0.2591
    137  O         81.0580  -77.7850   37.5430 O.2   169  ARG169     -0.2718
    138  CB        82.4760  -75.3650   39.0150 C.3   169  ARG169      0.0321
    139  CG        83.6040  -75.0740   39.9750 C.3   169  ARG169      0.0489
    140  CD        83.1510  -74.1850   41.1110 C.3   169  ARG169      0.2205
    141  NE        81.9600  -74.7100   41.7710 N.pl3 169  ARG169     -0.0865
    142  CZ        81.9900  -75.4950   42.8430 C.cat 169  ARG169      0.5346
    143  NH1       83.1550  -75.8530   43.3730 N.pl3 169  ARG169      0.1354
    144  NH2       80.8540  -75.9170   43.3820 N.pl3 169  ARG169      0.1354
    145  N         81.1870  -76.0550   36.0930 N.am  170  VAL170     -0.1980
    146  CA        79.9610  -76.3980   35.3850 C.3   170  VAL170      0.1595
    147  C         80.2580  -77.2420   34.1560 C.2   170  VAL170      0.2287
    148  O         80.5860  -76.7110   33.0920 O.2   170  VAL170     -0.2864
    149  CB        79.1730  -75.1450   34.9770 C.3   170  VAL170      0.0276
    150  CG1       77.7130  -75.5060   34.7030 C.3   170  VAL170      0.0022
    151  CG2       79.2670  -74.0940   36.0720 C.3   170  VAL170      0.0022
    152  N         71.6900  -80.8650   37.9710 N.3   180  TYR180     -0.1227
    153  CA        72.7960  -79.9440   38.1870 C.3   180  TYR180      0.1736
    154  C         74.0270  -80.7040   38.6500 C.2   180  TYR180      0.2595
    155  O         75.1230  -80.4700   38.1750 O.2   180  TYR180     -0.2718
    156  CB        72.4570  -78.8490   39.1950 C.3   180  TYR180      0.0548
    157  CG        73.3090  -77.6320   38.9480 C.ar  180  TYR180     -0.0200
    158  CD1       73.1080  -76.8550   37.8160 C.ar  180  TYR180     -0.0009
    159  CD2       74.3420  -77.2840   39.8130 C.ar  180  TYR180     -0.0009
    160  CE1       73.8950  -75.7670   37.5550 C.ar  180  TYR180      0.0417
    161  CE2       75.1420  -76.1910   39.5580 C.ar  180  TYR180      0.0417
    162  CZ        74.9140  -75.4370   38.4210 C.ar  180  TYR180      0.1957
    163  OH        75.6950  -74.3340   38.1410 O.3   180  TYR180     -0.2866
    164  N         73.8390  -81.6260   39.5810 N.am  181  PHE181     -0.1976
    165  CA        74.9320  -82.4530   40.0520 C.3   181  PHE181      0.1639
    166  C         74.7570  -83.8980   39.5600 C.2   181  PHE181      0.2290
    167  O         73.6340  -84.3810   39.3980 O.2   181  PHE181     -0.2864
    168  CB        74.9880  -82.3990   41.5690 C.3   181  PHE181      0.0560
    169  CG        74.7950  -81.0190   42.1220 C.ar  181  PHE181     -0.0200
    170  CD1       73.5340  -80.5900   42.5240 C.ar  181  PHE181     -0.0042
    171  CD2       75.8720  -80.1340   42.2240 C.ar  181  PHE181     -0.0042
    172  CE1       73.3510  -79.3130   43.0260 C.ar  181  PHE181     -0.0003
    173  CE2       75.7050  -78.8580   42.7360 C.ar  181  PHE181     -0.0003
    174  CZ        74.4410  -78.4390   43.1420 C.ar  181  PHE181     -0.0000
    175  N         65.2800  -73.8880   40.4010 N.3   265  THR265     -0.1218
    176  CA        66.0090  -72.6700   40.1000 C.3   265  THR265      0.1862
    177  C         66.0600  -72.3160   38.6190 C.2   265  THR265      0.2287
    178  O         66.3180  -73.1640   37.7630 O.2   265  THR265     -0.2866
    179  CB        67.4490  -72.7290   40.6020 C.3   265  THR265      0.1770
    180  OG1       67.4640  -72.9050   42.0260 O.3   265  THR265     -0.2211
    181  CG2       68.1680  -71.4400   40.2500 C.3   265  THR265      0.0375
    182  N         68.1530  -69.7160   36.2130 N.3   267  ASN267     -0.1240
    183  CA        69.2850  -68.7970   36.0430 C.3   267  ASN267      0.1653
    184  C         68.9630  -67.7500   34.9720 C.2   267  ASN267      0.2266
    185  O         68.3320  -68.0600   33.9580 O.2   267  ASN267     -0.2867
    186  CB        70.5660  -69.5440   35.6500 C.3   267  ASN267      0.1155
    187  CG        71.1440  -70.3890   36.7850 C.2   267  ASN267      0.2627
    188  OD1       70.7340  -70.2910   37.9410 O.2   267  ASN267     -0.2716
    189  ND2       72.1190  -71.2160   36.4520 N.am  267  ASN267     -0.0877
    190  N         71.0610  -65.4650   32.7430 N.3   269  PRO269     -0.2116
    191  CA        72.3930  -65.1080   32.2630 C.3   269  PRO269      0.1372
    192  C         72.3550  -63.7840   31.5380 C.2   269  PRO269      0.2244
    193  O         73.3680  -63.1070   31.4810 O.2   269  PRO269     -0.2868
    194  CB        72.7100  -66.2110   31.2380 C.3   269  PRO269      0.0268
    195  CG        71.5840  -67.1860   31.3170 C.3   269  PRO269      0.0207
    196  CD        70.4210  -66.4630   31.8790 C.3   269  PRO269      0.0892
    197  N         69.5570  -65.4250   39.7840 N.3   276  ARG276     -0.1245
    198  CA        68.8070  -66.6500   40.0390 C.3   276  ARG276      0.1563
    199  C         67.4680  -66.3830   40.7120 C.2   276  ARG276      0.2260
    200  O         67.3470  -65.4310   41.4840 O.2   276  ARG276     -0.2867
    201  CB        69.6280  -67.5970   40.9220 C.3   276  ARG276      0.0307
    202  CG        70.8740  -68.1590   40.2770 C.3   276  ARG276      0.0489
    203  CD        71.6850  -69.0160   41.2460 C.3   276  ARG276      0.2205
    204  NE        72.2220  -68.2370   42.3560 N.pl3 276  ARG276     -0.0865
    205  CZ        73.3810  -67.5700   42.3350 C.cat 276  ARG276      0.5346
    206  NH1       74.1560  -67.5770   41.2520 N.pl3 276  ARG276      0.1354
    207  NH2       73.7680  -66.8810   43.4060 N.pl3 276  ARG276      0.1354
    208  N         68.1360  -63.7020   43.7720 N.3   296  GLU296     -0.1245
    209  CA        69.4980  -63.4710   44.2190 C.3   296  GLU296      0.1567
    210  C         70.1550  -62.3960   43.3750 C.2   296  GLU296      0.2260
    211  O         70.3070  -62.5380   42.1540 O.2   296  GLU296     -0.2867
    212  CB        70.3060  -64.7560   44.1870 C.3   296  GLU296      0.0388
    213  CG        69.8910  -65.7770   45.2410 C.3   296  GLU296      0.1160
    214  CD        70.6380  -67.1200   45.0920 C.2   296  GLU296      0.3649
    215  OE1       69.9790  -68.1550   44.8510 O.co2 296  GLU296     -0.2457
    216  OE2       71.8850  -67.1410   45.2050 O.co2 296  GLU296     -0.2457
    217  N         81.4650  -65.6950   47.8570 N.3   306  TYR306     -0.1241
    218  CA        82.3620  -66.2140   46.8290 C.3   306  TYR306      0.1605
    219  C         83.7450  -65.5740   46.9020 C.2   306  TYR306      0.2264
    220  O         83.8800  -64.3690   46.6880 O.2   306  TYR306     -0.2867
    221  CB        81.7950  -65.9410   45.4410 C.3   306  TYR306      0.0534
    222  CG        80.3510  -66.3470   45.2350 C.ar  306  TYR306     -0.0201
    223  CD1       79.4380  -65.4440   44.7140 C.ar  306  TYR306     -0.0009
    224  CD2       79.9080  -67.6390   45.5220 C.ar  306  TYR306     -0.0009
    225  CE1       78.1180  -65.7970   44.5020 C.ar  306  TYR306      0.0417
    226  CE2       78.5880  -67.9990   45.3140 C.ar  306  TYR306      0.0417
    227  CZ        77.6950  -67.0690   44.8020 C.ar  306  TYR306      0.1957
    228  OH        76.3710  -67.3940   44.5820 O.3   306  TYR306     -0.2866
    229  N         86.2010  -72.0380   48.1910 N.3   341  TYR341     -0.1241
    230  CA        84.7850  -72.3660   48.1820 C.3   341  TYR341      0.1605
    231  C         84.5650  -73.8730   48.2060 C.2   341  TYR341      0.2264
    232  O         84.8710  -74.5830   47.2500 O.2   341  TYR341     -0.2867
    233  CB        84.0750  -71.7250   46.9920 C.3   341  TYR341      0.0534
    234  CG        82.6240  -72.1180   46.8620 C.ar  341  TYR341     -0.0201
    235  CD1       81.7850  -72.1360   47.9700 C.ar  341  TYR341     -0.0009
    236  CD2       82.0910  -72.4570   45.6280 C.ar  341  TYR341     -0.0009
    237  CE1       80.4590  -72.4890   47.8500 C.ar  341  TYR341      0.0417
    238  CE2       80.7660  -72.8130   45.4970 C.ar  341  TYR341      0.0417
    239  CZ        79.9540  -72.8310   46.6100 C.ar  341  TYR341      0.1957
    240  OH        78.6340  -73.1900   46.4700 O.3   341  TYR341     -0.2866
    241  N         81.7850  -77.0880   48.9050 N.3   343  ASN343     -0.1240
    242  CA        80.4110  -77.5150   49.0660 C.3   343  ASN343      0.1653
    243  C         80.2380  -78.0260   50.4890 C.2   343  ASN343      0.2266
    244  O         81.2100  -78.2720   51.2020 O.2   343  ASN343     -0.2867
    245  CB        80.0940  -78.6180   48.0810 C.3   343  ASN343      0.1155
    246  CG        80.3000  -78.1960   46.6640 C.2   343  ASN343      0.2627
    247  OD1       79.7920  -77.1620   46.2420 O.2   343  ASN343     -0.2716
    248  ND2       81.0470  -78.9930   45.9070 N.am  343  ASN343     -0.0877
@<TRIPOS>BOND
     1    64    62   ar
     2    64    66   ar
     3    62    61   ar
     4    66    65   ar
     5    56    57    1
     6    61    60    1
     7    61    63   ar
     8    65    63   ar
     9    60    57    1
    10    57    58    1
    11    67    58   am
    12    67    68    1
    13    74    76   ar
    14    74    72   ar
    15    58    59    2
    16    76    77   ar
    17    46    45    2
    18    71    68    1
    19    71    72    1
    20    68    69    1
    21    72    73   ar
    22    69    70    2
    23    45    44    1
    24   194   195    1
    25   194   191    1
    26   195   196    1
    27    77    75   ar
    28   193   192    2
    29   192   191    1
    30    47    44    1
    31    73    75   ar
    32   196   190    1
    33    48    49    1
    34    44    43    1
    35   191   190    1
    36    49    52    1
    37    49    50    1
    38    55    53    1
    39    78    79    1
    40    52    53    1
    41    52    54    1
    42   148   147    2
    43   132   131    1
    44    50    51    2
    45    82    79    1
    46    82    83    1
    47   131   133    1
    48   131   128    1
    49    79    80    1
    50   185   184    2
    51    95    94    1
    52   147   146    1
    53    94    91    1
    54    94    96    1
    55    90    80   am
    56    90    91    1
    57   130   129    2
    58    39    38    2
    59    80    81    2
    60   150   149    1
    61   129   128    1
    62    91    92    1
    63   184   183    1
    64   149   146    1
    65   149   151    1
    66    83    84   ar
    67    83    85   ar
    68   128   127    1
    69    92    93    2
    70    84    86   ar
    71   146   145    1
    72    38    37    1
    73   186   183    1
    74   186   187    1
    75    85    87   ar
    76   127   122   am
    77   183   182    1
    78   145   136   am
    79   189   187   am
    80    86    88   ar
    81   187   188    2
    82    41    40    1
    83   134   135    1
    84    37    36    1
    85    37    40    1
    86   136   137    2
    87   136   135    1
    88    87    88   ar
    89   122   123    2
    90   122   121    1
    91    40    42    1
    92    88    89    1
    93   160   158   ar
    94   160   162   ar
    95   178   177    2
    96    97    98    1
    97   158   157   ar
    98   135   138    1
    99   152   153    1
   100   125   124    1
   101   120   121    1
   102   163   162    1
   103   155   154    2
   104   153   154    1
   105   153   156    1
   106   124   121    1
   107   124   126    1
   108   162   161   ar
   109   112   114   ar
   110   112   111   ar
   111   177   176    1
   112   154   164   am
   113   101    98    1
   114   101   102    1
   115   157   156    1
   116   157   159   ar
   117   110   111    1
   118   110   107    1
   119   138   139    1
   120   106   107    1
   121   106    99   am
   122   114   115   ar
   123    98    99    1
   124   111   113   ar
   125   167   166    2
   126   108   107    1
   127   108   109    2
   128   161   159   ar
   129   166   165    1
   130   164   165    1
   131    29    28    2
   132    99   100    2
   133   197   198    1
   134   139   140    1
   135   198   199    1
   136   198   201    1
   137   165   168    1
   138   176   175    1
   139   176   179    1
   140   102   103    1
   141   181   179    1
   142   115   113   ar
   143   115   117   ar
   144   202   201    1
   145   202   203    1
   146    28    27    1
   147   113   116   ar
   148   179   180    1
   149   199   200    2
   150   103   105   am
   151   103   104    2
   152   140   141    1
   153   117   119   ar
   154   203   204    1
   155   206   205    1
   156   168   169    1
   157   116   118   ar
   158   141   142    2
   159    27    26    1
   160    27    30    1
   161    33    35   ar
   162    33    31   ar
   163    35    34   ar
   164   169   171   ar
   165   169   170   ar
   166   211   210    2
   167   171   173   ar
   168   205   204    2
   169   205   207    1
   170   119   118   ar
   171    31    30    1
   172    31    32   ar
   173    34    32   ar
   174   170   172   ar
   175   173   174   ar
   176   142   143    1
   177   142   144    1
   178   172   174   ar
   179   210   209    1
   180   208   209    1
   181   212   209    1
   182   212   213    1
   183   225   223   ar
   184   225   227   ar
   185   228   227    1
   186   223   222   ar
   187   227   226   ar
   188   215   214   ar
   189   214   216   ar
   190   214   213    1
   191    24    22   ar
   192    24    25   ar
   193    22    21   ar
   194   222   221    1
   195   222   224   ar
   196   226   224   ar
   197   221   218    1
   198    25    23   ar
   199   238   236   ar
   200   238   239   ar
   201    21    23   ar
   202    21    20    1
   203   236   234   ar
   204    20    17    1
   205    14    12    1
   206    13    15    1
   207    13    12    1
   208   248   246   am
   209   247   246    2
   210     6     5    1
   211     6     7    1
   212    12     9    1
   213   240   239    1
   214   239   237   ar
   215   246   245    1
   216   220   219    2
   217   218   219    1
   218   218   217    1
   219   234   233    1
   220   234   235   ar
   221   233   230    1
   222     5     2    1
   223    17    18    1
   224    17    16    1
   225   232   231    2
   226     7     1    1
   227    18    19    2
   228    11    10    2
   229   237   235   ar
   230     9    10    1
   231     9     8    1
   232     4     3    2
   233   245   242    1
   234   230   229    1
   235   230   231    1
   236     1     2    1
   237     2     3    1
   238   241   242    1
   239   242   243    1
   240   243   244    2
