@<TRIPOS>MOLECULE
tmp/3mj5A00.pdb
 139 135 0 0 0
SMALL
GASTEIGER

@<TRIPOS>ATOM
      1  N         -6.2930   47.5020  -28.2440 N.3   155  LYS155     -0.1245
      2  CA        -6.4050   48.5190  -29.2800 C.3   155  LYS155      0.1561
      3  C         -5.6930   49.7700  -28.8040 C.2   155  LYS155      0.2260
      4  O         -5.5140   49.9530  -27.6020 O.2   155  LYS155     -0.2867
      5  CB        -7.8570   48.8710  -29.4190 C.3   155  LYS155      0.0271
      6  CG        -8.7450   47.6500  -29.3880 C.3   155  LYS155      0.0035
      7  CD        -8.7560   47.0850  -30.7780 C.3   155  LYS155      0.0206
      8  CE        -8.7120   48.2420  -31.7580 C.3   155  LYS155      0.1093
      9  NZ        -9.1660   47.7850  -33.0940 N.3   155  LYS155     -0.1314
     10  N         -9.4880   52.4820  -35.7510 N.3   160  LEU160     -0.1231
     11  CA       -10.9070   52.1770  -35.8120 C.3   160  LEU160      0.1693
     12  C        -11.1590   50.7860  -35.2300 C.2   160  LEU160      0.2593
     13  O        -10.3700   49.8610  -35.4100 O.2   160  LEU160     -0.2718
     14  CB       -11.4010   52.2670  -37.2540 C.3   160  LEU160      0.0284
     15  CG       -12.8860   51.9890  -37.4900 C.3   160  LEU160      0.0019
     16  CD1      -13.8120   53.0730  -36.9130 C.3   160  LEU160      0.0001
     17  CD2      -13.1460   51.7890  -38.9890 C.3   160  LEU160      0.0001
     18  N        -12.2760   50.6250  -34.5420 N.am  161  GLY161     -0.1942
     19  CA       -12.5190   49.3840  -33.8210 C.3   161  GLY161      0.2014
     20  C        -13.9030   48.8490  -34.0650 C.2   161  GLY161      0.2638
     21  O        -14.7780   49.5720  -34.4760 O.2   161  GLY161     -0.2714
     22  N        -14.0870   47.5680  -33.8040 N.am  162  ASP162     -0.1971
     23  CA       -15.3600   46.9060  -34.0070 C.3   162  ASP162      0.1709
     24  C        -16.0940   46.8210  -32.6780 C.2   162  ASP162      0.2293
     25  O        -15.5470   46.3060  -31.6970 O.2   162  ASP162     -0.2864
     26  CB       -15.0900   45.5010  -34.5450 C.3   162  ASP162      0.1436
     27  CG       -16.3510   44.7190  -34.7910 C.2   162  ASP162      0.3671
     28  OD1      -16.9380   44.8420  -35.8880 O.co2 162  ASP162     -0.2456
     29  OD2      -16.7500   43.9490  -33.9000 O.co2 162  ASP162     -0.2456
     30  N        -18.6970   44.9610  -31.7400 N.3   164  ARG164     -0.1245
     31  CA       -18.8930   43.5780  -31.3480 C.3   164  ARG164      0.1563
     32  C        -17.6270   42.9570  -30.7230 C.2   164  ARG164      0.2260
     33  O        -17.6710   42.4550  -29.6200 O.2   164  ARG164     -0.2867
     34  CB       -19.3550   42.7710  -32.5440 C.3   164  ARG164      0.0307
     35  CG       -19.6390   41.3310  -32.2300 C.3   164  ARG164      0.0489
     36  CD       -19.7390   40.4790  -33.4930 C.3   164  ARG164      0.2205
     37  NE       -18.5190   40.5830  -34.2810 N.pl3 164  ARG164     -0.0865
     38  CZ       -17.4660   39.7750  -34.1800 C.cat 164  ARG164      0.5346
     39  NH1      -17.4640   38.7700  -33.3230 N.pl3 164  ARG164      0.1354
     40  NH2      -16.4010   39.9710  -34.9440 N.pl3 164  ARG164      0.1354
     41  N        -24.1100   35.9120  -33.3040 N.3   206  MET206     -0.1245
     42  CA       -23.6990   36.4440  -34.5860 C.3   206  MET206      0.1570
     43  C        -24.4810   35.6910  -35.6450 C.2   206  MET206      0.2261
     44  O        -24.3550   34.5000  -35.7420 O.2   206  MET206     -0.2867
     45  CB       -22.2030   36.2190  -34.7220 C.3   206  MET206      0.0387
     46  CG       -21.5440   36.5610  -36.0640 C.3   206  MET206      0.0595
     47  SD       -21.6620   38.2600  -36.7130 S.3   206  MET206     -0.1393
     48  CE       -22.9570   38.0120  -37.9240 C.3   206  MET206      0.0692
     49  N        -24.9460   41.1200  -36.8720 N.3   244  ALA244     -0.1231
     50  CA       -24.9090   40.6780  -38.2460 C.3   244  ALA244      0.1679
     51  C        -24.0150   41.6570  -39.0030 C.2   244  ALA244      0.2434
     52  O        -23.7090   42.7410  -38.5180 O.2   244  ALA244     -0.2733
     53  CB       -26.2920   40.6890  -38.8210 C.3   244  ALA244      0.0304
     54  N        -23.5280   41.2660  -40.1670 N.am  245  PRO245     -0.2718
     55  CA       -22.8640   42.3430  -40.8870 C.3   245  PRO245      0.1520
     56  C        -23.8640   43.4090  -41.3060 C.2   245  PRO245      0.2440
     57  O        -25.0500   43.1450  -41.3840 O.2   245  PRO245     -0.2731
     58  CB       -22.2930   41.6350  -42.1130 C.3   245  PRO245      0.0310
     59  CG       -21.9930   40.2760  -41.5950 C.3   245  PRO245      0.0237
     60  CD       -23.1280   39.9430  -40.6640 C.3   245  PRO245      0.0939
     61  N        -23.3860   44.6140  -41.5640 N.am  246  PRO246     -0.2727
     62  CA       -24.2510   45.6950  -42.0040 C.3   246  PRO246      0.1402
     63  C        -25.1190   45.3110  -43.2100 C.2   246  PRO246      0.2269
     64  O        -24.6210   44.9300  -44.2800 O.2   246  PRO246     -0.2865
     65  CB       -23.2600   46.7890  -42.4140 C.3   246  PRO246      0.0296
     66  CG       -22.0060   46.4680  -41.7020 C.3   246  PRO246      0.0237
     67  CD       -21.9610   44.9820  -41.5840 C.3   246  PRO246      0.0939
     68  N        -23.4610   50.9410  -38.7320 N.3   262  TYR262     -0.1241
     69  CA       -22.1480   51.2660  -39.2790 C.3   262  TYR262      0.1605
     70  C        -22.2990   51.6600  -40.7500 C.2   262  TYR262      0.2264
     71  O        -22.7690   50.8690  -41.5670 O.2   262  TYR262     -0.2867
     72  CB       -21.2310   50.0590  -39.1370 C.3   262  TYR262      0.0534
     73  CG       -19.8290   50.2660  -39.6410 C.ar  262  TYR262     -0.0201
     74  CD1      -18.8350   50.7520  -38.8080 C.ar  262  TYR262     -0.0009
     75  CD2      -19.4910   49.9640  -40.9430 C.ar  262  TYR262     -0.0009
     76  CE1      -17.5680   50.9370  -39.2490 C.ar  262  TYR262      0.0417
     77  CE2      -18.2160   50.1550  -41.3940 C.ar  262  TYR262      0.0417
     78  CZ       -17.2510   50.6470  -40.5370 C.ar  262  TYR262      0.1957
     79  OH       -15.9510   50.8330  -40.9770 O.3   262  TYR262     -0.2866
     80  N        -20.2310   52.8390  -44.1350 N.3   264  GLY264     -0.1210
     81  CA       -18.9010   52.9340  -44.7050 C.3   264  GLY264      0.1956
     82  C        -18.5820   51.5380  -45.1350 C.2   264  GLY264      0.2612
     83  O        -19.4830   50.7350  -45.3430 O.2   264  GLY264     -0.2717
     84  N        -17.3020   51.2320  -45.2590 N.am  265  ASN265     -0.1960
     85  CA       -16.9010   49.8620  -45.5510 C.3   265  ASN265      0.1819
     86  C        -16.0500   49.3240  -44.4150 C.2   265  ASN265      0.2621
     87  O        -15.8380   50.0220  -43.3940 O.2   265  ASN265     -0.2715
     88  CB       -16.1560   49.8050  -46.8710 C.3   265  ASN265      0.1195
     89  CG       -15.1590   50.9320  -47.0120 C.2   265  ASN265      0.2630
     90  OD1      -14.2840   51.1110  -46.1640 O.2   265  ASN265     -0.2716
     91  ND2      -15.2860   51.7000  -48.0760 N.am  265  ASN265     -0.0877
     92  N        -15.5710   48.0930  -44.5770 N.am  266  TYR266     -0.1960
     93  CA       -14.8330   47.4260  -43.5100 C.3   266  TYR266      0.1771
     94  C        -13.6270   48.2100  -43.0620 C.2   266  TYR266      0.2619
     95  O        -13.2530   48.2090  -41.8810 O.2   266  TYR266     -0.2715
     96  CB       -14.3290   46.1050  -44.0110 C.3   266  TYR266      0.0574
     97  CG       -13.9370   45.1540  -42.9240 C.ar  266  TYR266     -0.0198
     98  CD1      -14.9120   44.4960  -42.1720 C.ar  266  TYR266     -0.0009
     99  CD2      -12.5950   44.8840  -42.6650 C.ar  266  TYR266     -0.0009
    100  CE1      -14.5670   43.6140  -41.1880 C.ar  266  TYR266      0.0417
    101  CE2      -12.2330   43.9980  -41.6670 C.ar  266  TYR266      0.0417
    102  CZ       -13.2280   43.3630  -40.9370 C.ar  266  TYR266      0.1957
    103  OH       -12.8850   42.4750  -39.9590 O.3   266  TYR266     -0.2866
    104  N        -12.9910   48.8600  -44.0260 N.am  267  GLN267     -0.1977
    105  CA       -11.7000   49.4670  -43.7800 C.3   267  GLN267      0.1601
    106  C        -11.9340   50.7620  -43.0650 C.2   267  GLN267      0.2287
    107  O        -11.1960   51.1280  -42.1570 O.2   267  GLN267     -0.2864
    108  CB       -10.9620   49.7160  -45.1060 C.3   267  GLN267      0.0394
    109  CG       -10.6430   48.4320  -45.9290 C.3   267  GLN267      0.0908
    110  CD       -11.8210   47.9100  -46.7950 C.2   267  GLN267      0.2608
    111  OE1      -12.7080   48.6690  -47.2020 O.2   267  GLN267     -0.2717
    112  NE2      -11.8060   46.6030  -47.0900 N.am  267  GLN267     -0.0878
    113  N        -19.7580   54.5390  -36.8570 N.3   271  TYR271     -0.1241
    114  CA       -20.8160   53.9820  -36.0370 C.3   271  TYR271      0.1605
    115  C        -21.7050   55.1090  -35.5400 C.2   271  TYR271      0.2264
    116  O        -21.2300   56.2110  -35.2920 O.2   271  TYR271     -0.2867
    117  CB       -20.2040   53.3270  -34.8010 C.3   271  TYR271      0.0534
    118  CG       -19.7410   51.9160  -34.9670 C.ar  271  TYR271     -0.0201
    119  CD1      -20.6510   50.8960  -34.9950 C.ar  271  TYR271     -0.0009
    120  CD2      -18.3790   51.5980  -35.0550 C.ar  271  TYR271     -0.0009
    121  CE1      -20.2510   49.5910  -35.1320 C.ar  271  TYR271      0.0417
    122  CE2      -17.9570   50.2740  -35.1970 C.ar  271  TYR271      0.0417
    123  CZ       -18.9160   49.2740  -35.2300 C.ar  271  TYR271      0.1957
    124  OH       -18.5920   47.9380  -35.3460 O.3   271  TYR271     -0.2866
    125  N        -25.9960   47.0410  -37.1170 N.3   299  THR299     -0.1203
    126  CA       -25.0140   45.9960  -37.0540 C.3   299  THR299      0.1994
    127  C        -25.1750   45.1650  -35.7720 C.2   299  THR299      0.2617
    128  O        -24.9820   43.9530  -35.7810 O.2   299  THR299     -0.2717
    129  CB       -23.5790   46.5830  -37.2980 C.3   299  THR299      0.1784
    130  OG1      -22.6840   45.5280  -37.6160 O.3   299  THR299     -0.2211
    131  CG2      -23.0450   47.3440  -36.0970 C.3   299  THR299      0.0376
    132  N        -25.5930   45.8480  -34.7050 N.am  300  ASP300     -0.1973
    133  CA       -25.7210   45.3060  -33.3590 C.3   300  ASP300      0.1709
    134  C        -27.0090   45.8180  -32.7100 C.2   300  ASP300      0.2293
    135  O        -27.2280   47.0210  -32.6310 O.2   300  ASP300     -0.2864
    136  CB       -24.5360   45.7600  -32.5070 C.3   300  ASP300      0.1436
    137  CG       -23.2000   45.2100  -33.0120 C.2   300  ASP300      0.3671
    138  OD1      -22.9220   44.0060  -32.7610 O.co2 300  ASP300     -0.2456
    139  OD2      -22.4220   45.9770  -33.6500 O.co2 300  ASP300     -0.2456
@<TRIPOS>BOND
     1    91    89   am
     2   111   110    2
     3   112   110   am
     4    89    88    1
     5    89    90    2
     6    88    85    1
     7   110   109    1
     8   109   108    1
     9    85    84    1
    10    85    86    1
    11    83    82    2
    12    84    82   am
    13    82    81    1
    14   108   105    1
    15    81    80    1
    16    92    86   am
    17    92    93    1
    18    86    87    2
    19    64    63    2
    20   104   105    1
    21   104    94   am
    22    96    93    1
    23    96    97    1
    24   105   106    1
    25    93    94    1
    26    63    62    1
    27   106   107    2
    28    94    95    2
    29    97    99   ar
    30    97    98   ar
    31    99   101   ar
    32    65    62    1
    33    65    66    1
    34    98   100   ar
    35    58    59    1
    36    58    55    1
    37    62    61    1
    38    66    67    1
    39   101   102   ar
    40    59    60    1
    41    67    61    1
    42    71    70    2
    43    61    56   am
    44    77    75   ar
    45    77    78   ar
    46    57    56    2
    47    56    55    1
    48   100   102   ar
    49    79    78    1
    50    75    73   ar
    51   102   103    1
    52    55    54    1
    53    70    69    1
    54    60    54    1
    55    78    76   ar
    56    54    51   am
    57    73    72    1
    58    73    74   ar
    59    69    72    1
    60    69    68    1
    61    76    74   ar
    62    51    52    2
    63    51    50    1
    64    17    15    1
    65    53    50    1
    66    50    49    1
    67    48    47    1
    68   130   129    1
    69    15    14    1
    70    15    16    1
    71   129   126    1
    72   129   131    1
    73    14    11    1
    74   125   126    1
    75   126   127    1
    76   113   114    1
    77    47    46    1
    78    46    45    1
    79   114   115    1
    80   114   117    1
    81    28    27   ar
    82    11    10    1
    83    11    12    1
    84   128   127    2
    85   127   132   am
    86    44    43    2
    87    43    42    1
    88   115   116    2
    89    13    12    2
    90   124   123    1
    91    12    18   am
    92   123   122   ar
    93   123   121   ar
    94   122   120   ar
    95   121   119   ar
    96   120   118   ar
    97   119   118   ar
    98   118   117    1
    99    40    38    1
   100    27    26    1
   101    27    29   ar
   102    45    42    1
   103   132   133    1
   104    42    41    1
   105    26    23    1
   106    18    19    1
   107    21    20    2
   108    37    38    2
   109    37    36    1
   110    38    39    1
   111    20    19    1
   112    20    22   am
   113    23    22    1
   114    23    24    1
   115   139   137   ar
   116    36    35    1
   117   133   134    1
   118   133   136    1
   119     9     8    1
   120   137   138   ar
   121   137   136    1
   122   134   135    2
   123    24    25    2
   124    34    35    1
   125    34    31    1
   126     8     7    1
   127    30    31    1
   128    31    32    1
   129     7     6    1
   130    32    33    2
   131     5     6    1
   132     5     2    1
   133     2     3    1
   134     2     1    1
   135     3     4    2
