@<TRIPOS>MOLECULE
tmp/3mj9A01.pdb
 87 80 0 0 0
SMALL
GASTEIGER

@<TRIPOS>ATOM
      1  N         -6.1120  -53.8770  -25.2110 N.3    20  VAL20      -0.1231
      2  CA        -5.3300  -54.2550  -26.3770 C.3    20  VAL20       0.1692
      3  C         -4.6970  -52.9590  -26.8490 C.2    20  VAL20       0.2591
      4  O         -5.2220  -51.8720  -26.6160 O.2    20  VAL20      -0.2718
      5  CB        -6.2060  -54.8680  -27.4690 C.3    20  VAL20       0.0266
      6  CG1       -5.3650  -55.7060  -28.4200 C.3    20  VAL20       0.0020
      7  CG2       -7.2920  -55.7200  -26.8480 C.3    20  VAL20       0.0020
      8  N         -3.5410  -53.0730  -27.4710 N.am   21  GLN21      -0.1979
      9  CA        -2.7930  -51.8800  -27.8680 C.3    21  GLN21       0.1601
     10  C         -3.7160  -50.7820  -28.3910 C.2    21  GLN21       0.2287
     11  O         -4.3880  -50.9410  -29.4080 O.2    21  GLN21      -0.2864
     12  CB        -1.7150  -52.2130  -28.9070 C.3    21  GLN21       0.0394
     13  CG        -2.2520  -52.6610  -30.2480 C.3    21  GLN21       0.0908
     14  CD        -1.2070  -52.5590  -31.3350 C.2    21  GLN21       0.2608
     15  OE1       -0.0510  -52.9390  -31.1380 O.2    21  GLN21      -0.2717
     16  NE2       -1.6020  -52.0370  -32.4930 N.am   21  GLN21      -0.0878
     17  N         -5.1120  -48.1720  -30.3690 N.3    23  THR23      -0.1218
     18  CA        -4.9820  -47.5790  -31.7020 C.3    23  THR23       0.1862
     19  C         -6.1710  -46.6840  -31.9910 C.2    23  THR23       0.2287
     20  O         -7.1540  -46.6610  -31.2480 O.2    23  THR23      -0.2866
     21  CB        -4.8670  -48.6440  -32.8150 C.3    23  THR23       0.1770
     22  OG1       -6.0980  -49.3710  -32.9220 O.3    23  THR23      -0.2211
     23  CG2       -3.7130  -49.6090  -32.5290 C.3    23  THR23       0.0375
     24  N         -8.1550  -47.1000  -34.0770 N.3    25  GLU25      -0.1245
     25  CA        -9.0190  -48.0180  -34.8050 C.3    25  GLU25       0.1567
     26  C         -9.7110  -48.9680  -33.8530 C.2    25  GLU25       0.2260
     27  O         -9.0760  -49.8330  -33.2510 O.2    25  GLU25      -0.2867
     28  CB        -8.1970  -48.8260  -35.8090 C.3    25  GLU25       0.0388
     29  CG        -7.4640  -47.9870  -36.8590 C.3    25  GLU25       0.1160
     30  CD        -6.3160  -48.7440  -37.5270 C.2    25  GLU25       0.3649
     31  OE1       -5.5990  -49.4940  -36.8260 O.co2  25  GLU25      -0.2457
     32  OE2       -6.1290  -48.5810  -38.7520 O.co2  25  GLU25      -0.2457
     33  N        -11.1890  -51.9650  -32.7680 N.3    27  HIS27      -0.1241
     34  CA       -11.1960  -53.3820  -33.1430 C.3    27  HIS27       0.1621
     35  C        -11.9200  -54.2260  -32.1110 C.2    27  HIS27       0.2264
     36  O        -12.1570  -55.4170  -32.3080 O.2    27  HIS27      -0.2867
     37  CB        -9.7680  -53.8870  -33.3420 C.3    27  HIS27       0.0745
     38  CG        -9.1150  -53.3570  -34.5800 C.ar   27  HIS27       0.0817
     39  ND1       -8.1550  -52.3690  -34.5530 N.ar   27  HIS27      -0.2268
     40  CD2       -9.3010  -53.6650  -35.8870 C.ar   27  HIS27       0.1154
     41  CE1       -7.7650  -52.1040  -35.7870 C.ar   27  HIS27       0.1986
     42  NE2       -8.4450  -52.8750  -36.6160 N.ar   27  HIS27      -0.2212
     43  N         -9.8750  -49.3910  -28.0780 N.3    73  ASN73      -0.1240
     44  CA        -9.5480  -50.7600  -27.6800 C.3    73  ASN73       0.1653
     45  C         -9.0920  -50.8430  -26.2290 C.2    73  ASN73       0.2266
     46  O         -8.3080  -51.7160  -25.8370 O.2    73  ASN73      -0.2867
     47  CB        -8.4790  -51.3230  -28.6110 C.3    73  ASN73       0.1155
     48  CG        -8.7950  -51.0630  -30.0750 C.2    73  ASN73       0.2627
     49  OD1       -9.8860  -51.3720  -30.5480 O.2    73  ASN73      -0.2716
     50  ND2       -7.8440  -50.4770  -30.7940 N.am   73  ASN73      -0.0877
     51  N        -12.3890  -59.4840  -30.3610 N.3    96  LEU96      -0.1245
     52  CA       -11.9300  -58.5660  -31.4000 C.3    96  LEU96       0.1561
     53  C        -12.7520  -58.7610  -32.6470 C.2    96  LEU96       0.2260
     54  O        -13.2750  -59.8440  -32.9030 O.2    96  LEU96      -0.2867
     55  CB       -10.4480  -58.7860  -31.7270 C.3    96  LEU96       0.0270
     56  CG        -9.4350  -58.4310  -30.6380 C.3    96  LEU96       0.0019
     57  CD1       -8.0190  -58.7220  -31.1330 C.3    96  LEU96       0.0001
     58  CD2       -9.5740  -56.9780  -30.2190 C.3    96  LEU96       0.0001
     59  N        -11.8100  -59.0170  -35.5390 N.3    98  ASN98      -0.1240
     60  CA       -11.1730  -60.0270  -36.4010 C.3    98  ASN98       0.1653
     61  C        -11.4770  -61.4240  -35.8820 C.2    98  ASN98       0.2266
     62  O        -11.0270  -62.4300  -36.4310 O.2    98  ASN98      -0.2867
     63  CB        -9.6670  -59.7930  -36.5650 C.3    98  ASN98       0.1155
     64  CG        -8.8620  -60.1290  -35.3210 C.2    98  ASN98       0.2627
     65  OD1       -9.3790  -60.6320  -34.3220 O.2    98  ASN98      -0.2716
     66  ND2       -7.5720  -59.8420  -35.3870 N.am   98  ASN98      -0.0877
     67  N        -10.7390  -63.0620  -33.2900 N.3   100  SER100     -0.1202
     68  CA        -9.8510  -63.5880  -32.2560 C.3   100  SER100      0.2020
     69  C        -10.3290  -63.0410  -30.9310 C.2   100  SER100      0.2619
     70  O        -11.0820  -62.0710  -30.8740 O.2   100  SER100     -0.2717
     71  CB        -8.3950  -63.1940  -32.4990 C.3   100  SER100      0.2103
     72  OG        -7.5390  -63.8250  -31.5650 O.3   100  SER100     -0.2182
     73  N         -9.9030  -63.6900  -29.8650 N.am  101  MET101     -0.1965
     74  CA       -10.2200  -63.2240  -28.5230 C.3   101  MET101      0.1736
     75  C         -8.9700  -62.8680  -27.7670 C.2   101  MET101      0.2616
     76  O         -7.8890  -63.3830  -28.0300 O.2   101  MET101     -0.2715
     77  CB       -11.0150  -64.2760  -27.7520 C.3   101  MET101      0.0427
     78  CG       -12.4770  -64.2860  -28.1340 C.3   101  MET101      0.0599
     79  SD       -13.5120  -65.0820  -26.9060 S.3   101  MET101     -0.1393
     80  CE       -15.1460  -64.7670  -27.5820 C.3   101  MET101      0.0692
     81  N         -9.1380  -61.9380  -26.8450 N.am  102  VAL102     -0.1977
     82  CA        -8.0770  -61.5650  -25.9320 C.3   102  VAL102      0.1596
     83  C         -8.5870  -61.7060  -24.5170 C.2   102  VAL102      0.2287
     84  O         -9.4850  -60.9950  -24.0880 O.2   102  VAL102     -0.2864
     85  CB        -7.5930  -60.1230  -26.1790 C.3   102  VAL102      0.0276
     86  CG1       -6.5400  -59.7270  -25.1540 C.3   102  VAL102      0.0022
     87  CG2       -7.0510  -59.9850  -27.5890 C.3   102  VAL102      0.0022
@<TRIPOS>BOND
     1    32    30   ar
     2    30    29    1
     3    30    31   ar
     4    29    28    1
     5    42    40   ar
     6    42    41   ar
     7    63    60    1
     8    63    64    1
     9    62    61    2
    10    60    61    1
    11    60    59    1
    12    40    38   ar
    13    28    25    1
    14    41    39   ar
    15    66    64   am
    16    64    65    2
    17    25    24    1
    18    25    26    1
    19    38    39   ar
    20    38    37    1
    21    26    27    2
    22    37    34    1
    23    67    68    1
    24    34    33    1
    25    34    35    1
    26    22    21    1
    27    54    53    2
    28    21    23    1
    29    21    18    1
    30    53    52    1
    31    71    68    1
    32    71    72    1
    33    16    14   am
    34    36    35    2
    35    68    69    1
    36    19    18    1
    37    19    20    2
    38    55    52    1
    39    55    56    1
    40    18    17    1
    41    52    51    1
    42    14    15    2
    43    14    13    1
    44    57    56    1
    45    69    70    2
    46    69    73   am
    47    50    48   am
    48    56    58    1
    49    49    48    2
    50    13    12    1
    51    48    47    1
    52    73    74    1
    53    11    10    2
    54    12     9    1
    55    47    44    1
    56    74    75    1
    57    74    77    1
    58     6     5    1
    59    10     9    1
    60    78    77    1
    61    78    79    1
    62    43    44    1
    63    76    75    2
    64     9     8    1
    65    75    81   am
    66    44    45    1
    67    87    85    1
    68    80    79    1
    69     8     3   am
    70     5     7    1
    71     5     2    1
    72     3     4    2
    73     3     2    1
    74    81    82    1
    75     2     1    1
    76    45    46    2
    77    85    82    1
    78    85    86    1
    79    82    83    1
    80    83    84    2
