@<TRIPOS>MOLECULE
tmp/3mjhC00.pdb
 192 189 0 0 0
SMALL
GASTEIGER

@<TRIPOS>ATOM
      1  N          6.0710   24.8380   15.6350 N.3    13  SER13      -0.1202
      2  CA         7.3950   25.4220   15.8350 C.3    13  SER13       0.2020
      3  C          7.3080   26.7050   16.6460 C.2    13  SER13       0.2619
      4  O          6.3830   27.4930   16.4600 O.2    13  SER13      -0.2717
      5  CB         8.0950   25.7320   14.5050 C.3    13  SER13       0.2103
      6  OG         8.0750   24.6050   13.6610 O.3    13  SER13      -0.2182
      7  N          8.2770   26.8750   17.5450 N.am   14  ALA14      -0.1965
      8  CA         8.4640   28.0800   18.3630 C.3    14  ALA14       0.1728
      9  C          7.4510   28.3220   19.4980 C.2    14  ALA14       0.2616
     10  O          7.4870   29.3900   20.1250 O.2    14  ALA14      -0.2715
     11  CB         8.6140   29.3370   17.4690 C.3    14  ALA14       0.0334
     12  N          6.5760   27.3460   19.7810 N.am   15  VAL15      -0.1963
     13  CA         5.6740   27.4260   20.9570 C.3    15  VAL15       0.1727
     14  C          6.4150   27.3460   22.3160 C.2    15  VAL15       0.2617
     15  O          5.8860   27.7710   23.3550 O.2    15  VAL15      -0.2715
     16  CB         4.5020   26.3690   20.9250 C.3    15  VAL15       0.0290
     17  CG1        3.5450   26.6210   19.7470 C.3    15  VAL15       0.0023
     18  CG2        5.0320   24.9430   20.8830 C.3    15  VAL15       0.0023
     19  N          7.6240   26.7920   22.3010 N.am   16  GLY16      -0.1940
     20  CA         8.4420   26.6620   23.5060 C.3    16  GLY16       0.2014
     21  C          8.7420   25.2490   23.9920 C.2    16  GLY16       0.2639
     22  O          9.1340   25.0620   25.1620 O.2    16  GLY16      -0.2714
     23  N          8.5840   24.2630   23.1060 N.am   17  LYS17      -0.1963
     24  CA         8.8100   22.8480   23.4350 C.3    17  LYS17       0.1728
     25  C         10.1920   22.5750   24.0410 C.2    17  LYS17       0.2617
     26  O         10.3160   21.9430   25.1030 O.2    17  LYS17      -0.2715
     27  CB         8.5730   21.9640   22.1930 C.3    17  LYS17       0.0311
     28  CG         7.0950   21.9250   21.7300 C.3    17  LYS17       0.0038
     29  CD         6.8560   20.9520   20.5470 C.3    17  LYS17       0.0206
     30  CE         7.7410   21.2720   19.3450 C.3    17  LYS17       0.1093
     31  NZ         7.5260   22.6590   18.8390 N.3    17  LYS17      -0.1314
     32  N         11.2340   23.0700   23.3790 N.am   18  SER18      -0.1936
     33  CA        12.5990   22.8100   23.8330 C.3    18  SER18       0.2055
     34  C         12.9030   23.6290   25.0730 C.2    18  SER18       0.2643
     35  O         13.6790   23.2090   25.9240 O.2    18  SER18      -0.2714
     36  CB        13.5870   23.1650   22.7340 C.3    18  SER18       0.2130
     37  OG        13.3530   22.3640   21.5830 O.3    18  SER18      -0.2179
     38  N         12.2680   24.7950   25.1910 N.am   19  SER19      -0.1949
     39  CA        12.4160   25.6090   26.4030 C.3    19  SER19       0.1924
     40  C         11.8040   24.9310   27.6340 C.2    19  SER19       0.2314
     41  O         12.4130   24.9030   28.7040 O.2    19  SER19      -0.2863
     42  CB        11.8290   27.0080   26.1840 C.3    19  SER19       0.2116
     43  OG        12.5060   27.6660   25.1140 O.3    19  SER19      -0.2180
     44  N         16.6950   28.6650   30.9150 N.3    29  PHE29      -0.1227
     45  CA        15.8700   29.2420   29.8570 C.3    29  PHE29       0.1736
     46  C         16.7570   30.0970   28.9820 C.2    29  PHE29       0.2595
     47  O         17.4720   30.9720   29.4850 O.2    29  PHE29      -0.2718
     48  CB        14.7390   30.1060   30.4280 C.3    29  PHE29       0.0547
     49  CG        13.9190   30.8110   29.3690 C.ar   29  PHE29      -0.0202
     50  CD1       12.9400   30.1220   28.6510 C.ar   29  PHE29      -0.0042
     51  CD2       14.1370   32.1600   29.0770 C.ar   29  PHE29      -0.0042
     52  CE1       12.1820   30.7650   27.6810 C.ar   29  PHE29      -0.0003
     53  CE2       13.3780   32.8150   28.0950 C.ar   29  PHE29      -0.0003
     54  CZ        12.4030   32.1130   27.3960 C.ar   29  PHE29      -0.0000
     55  N         16.7050   29.8450   27.6790 N.am   30  HIS30      -0.1961
     56  CA        17.4800   30.6160   26.7120 C.3    30  HIS30       0.1787
     57  C         16.5760   31.5600   25.9080 C.2    30  HIS30       0.2620
     58  O         15.6140   31.1150   25.2710 O.2    30  HIS30      -0.2715
     59  CB        18.2270   29.6860   25.7500 C.3    30  HIS30       0.0785
     60  CG        19.2290   28.7840   26.4130 C.ar   30  HIS30       0.0821
     61  ND1       19.5270   27.5260   25.9300 N.ar   30  HIS30      -0.2267
     62  CD2       20.0020   28.9540   27.5140 C.ar   30  HIS30       0.1154
     63  CE1       20.4430   26.9640   26.6990 C.ar   30  HIS30       0.1986
     64  NE2       20.7420   27.8060   27.6730 N.ar   30  HIS30      -0.2212
     65  N         16.8940   32.8550   25.9270 N.am   31  GLU31      -0.1963
     66  CA        16.2240   33.8170   25.0390 C.3    31  GLU31       0.1733
     67  C         16.3900   33.4620   23.5540 C.2    31  GLU31       0.2616
     68  O         15.4620   33.6580   22.7650 O.2    31  GLU31      -0.2715
     69  CB        16.6730   35.2600   25.3170 C.3    31  GLU31       0.0429
     70  CG        18.1730   35.4910   25.3010 C.3    31  GLU31       0.1163
     71  CD        18.5640   36.8380   25.8960 C.2    31  GLU31       0.3649
     72  OE1       19.4990   37.4650   25.3690 O.co2  31  GLU31      -0.2457
     73  OE2       17.9380   37.2700   26.8920 O.co2  31  GLU31      -0.2457
     74  N         17.5550   32.9210   23.1890 N.am   32  PHE32      -0.1960
     75  CA        17.7820   32.4460   21.8310 C.3    32  PHE32       0.1771
     76  C         18.0340   30.9410   21.7950 C.2    32  PHE32       0.2619
     77  O         18.9600   30.4340   22.4320 O.2    32  PHE32      -0.2715
     78  CB        18.9030   33.2400   21.1360 C.3    32  PHE32       0.0574
     79  CG        18.6630   34.7320   21.1350 C.ar   32  PHE32      -0.0200
     80  CD1       17.4890   35.2610   20.6090 C.ar   32  PHE32      -0.0042
     81  CD2       19.5930   35.6000   21.6900 C.ar   32  PHE32      -0.0042
     82  CE1       17.2520   36.6320   20.6230 C.ar   32  PHE32      -0.0003
     83  CE2       19.3640   36.9810   21.7050 C.ar   32  PHE32      -0.0003
     84  CZ        18.1910   37.4950   21.1770 C.ar   32  PHE32      -0.0000
     85  N         17.1940   30.2430   21.0390 N.am   33  GLN33      -0.1963
     86  CA        17.1930   28.7810   21.0070 C.3    33  GLN33       0.1733
     87  C         17.0750   28.2940   19.5760 C.2    33  GLN33       0.2616
     88  O         16.1430   28.6750   18.8720 O.2    33  GLN33      -0.2715
     89  CB        16.0180   28.2420   21.8270 C.3    33  GLN33       0.0408
     90  CG        16.0770   26.7320   22.1010 C.3    33  GLN33       0.0908
     91  CD        16.9450   26.3930   23.2980 C.2    33  GLN33       0.2608
     92  OE1       16.7940   26.9750   24.3750 O.2    33  GLN33      -0.2717
     93  NE2       17.8520   25.4390   23.1190 N.am   33  GLN33      -0.0878
     94  N         17.9920   27.4270   19.1500 N.am   34  GLU34      -0.1963
     95  CA        17.9080   26.8730   17.8130 C.3    34  GLU34       0.1733
     96  C         16.6620   26.0060   17.6470 C.2    34  GLU34       0.2617
     97  O         16.3080   25.2210   18.5390 O.2    34  GLU34      -0.2715
     98  CB        19.1710   26.0790   17.4480 C.3    34  GLU34       0.0429
     99  CG        19.3360   25.8820   15.9450 C.3    34  GLU34       0.1163
    100  CD        20.7380   25.4570   15.5340 C.2    34  GLU34       0.3649
    101  OE1       21.6400   25.4000   16.3940 O.co2  34  GLU34      -0.2457
    102  OE2       20.9340   25.1730   14.3320 O.co2  34  GLU34      -0.2457
    103  N         15.9960   26.1720   16.5070 N.am   35  SER35      -0.1936
    104  CA        14.9420   25.2650   16.0880 C.3    35  SER35       0.2055
    105  C         15.4680   23.8340   16.1290 C.2    35  SER35       0.2643
    106  O         16.5860   23.5490   15.6870 O.2    35  SER35      -0.2714
    107  CB        14.4630   25.6030   14.6720 C.3    35  SER35       0.2130
    108  OG        14.1100   26.9720   14.5920 O.3    35  SER35      -0.2179
    109  N         14.6670   22.9460   16.7050 N.am   36  THR36      -0.1950
    110  CA        15.0380   21.5420   16.8040 C.3    36  THR36       0.1897
    111  C         14.9260   20.8890   15.4180 C.2    36  THR36       0.2313
    112  O         13.9920   21.1710   14.6690 O.2    36  THR36      -0.2863
    113  CB        14.1360   20.8340   17.8320 C.3    36  THR36       0.1794
    114  OG1       14.2070   21.5400   19.0830 O.3    36  THR36      -0.2208
    115  CG2       14.5390   19.3590   18.0370 C.3    36  THR36       0.0378
    116  N         10.4220   16.8130   19.9800 N.3    60  THR60      -0.1203
    117  CA        10.3510   16.7070   18.5220 C.3    60  THR60       0.1994
    118  C         10.4740   18.0810   17.8750 C.2    60  THR60       0.2618
    119  O         10.2110   19.0960   18.5130 O.2    60  THR60      -0.2717
    120  CB         9.0270   16.0420   18.0560 C.3    60  THR60       0.1784
    121  OG1        7.9210   16.9110   18.3330 O.3    60  THR60      -0.2211
    122  CG2        8.8040   14.6860   18.7570 C.3    60  THR60       0.0376
    123  N         10.8870   18.1070   16.6140 N.am   61  ALA61      -0.1965
    124  CA        10.8170   19.3220   15.8060 C.3    61  ALA61       0.1728
    125  C          9.3580   19.5340   15.4040 C.2    61  ALA61       0.2617
    126  O          8.7000   18.5950   14.9330 O.2    61  ALA61      -0.2715
    127  CB        11.6710   19.1730   14.5890 C.3    61  ALA61       0.0334
    128  N          8.8680   20.7430   15.5750 N.am   62  GLY62      -0.1940
    129  CA         7.5420   21.1140   15.1740 C.3    62  GLY62       0.2014
    130  C          7.3130   21.5150   13.7270 C.2    62  GLY62       0.2638
    131  O          6.2180   21.4910   13.2770 O.2    62  GLY62      -0.2714
    132  N          8.3420   21.8790   13.0210 N.am   63  LEU63      -0.1977
    133  CA         8.2120   22.1380   11.6170 C.3    63  LEU63       0.1596
    134  C          7.4130   21.0670   10.8790 C.2    63  LEU63       0.2287
    135  O          7.5920   19.9060   11.0990 O.2    63  LEU63      -0.2864
    136  CB         9.5900   22.2520   11.0160 C.3    63  LEU63       0.0297
    137  CG         9.7570   23.5860   10.3260 C.3    63  LEU63       0.0022
    138  CD1       11.1380   24.0990   10.3790 C.3    63  LEU63       0.0001
    139  CD2        9.2810   23.4160    8.9370 C.3    63  LEU63       0.0001
    140  N          1.6530   27.5250   26.7530 N.3   117  ASN117     -0.1225
    141  CA         2.9550   28.0740   27.1140 C.3   117  ASN117      0.1785
    142  C          3.0930   29.5740   26.8090 C.2   117  ASN117      0.2597
    143  O          2.2360   30.1600   26.1400 O.2   117  ASN117     -0.2718
    144  CB         4.0750   27.2590   26.4450 C.3   117  ASN117      0.1169
    145  CG         5.4370   27.5380   27.0440 C.2   117  ASN117      0.2627
    146  OD1        5.6160   27.5140   28.2670 O.2   117  ASN117     -0.2716
    147  ND2        6.4080   27.8210   26.1850 N.am  117  ASN117     -0.0877
    148  N          4.1720   30.1820   27.3060 N.am  118  LYS118     -0.1980
    149  CA         4.4400   31.6380   27.1690 C.3   118  LYS118      0.1596
    150  C          3.4130   32.4800   27.9490 C.2   118  LYS118      0.2287
    151  O          3.1490   33.6410   27.6140 O.2   118  LYS118     -0.2864
    152  CB         4.5360   32.0870   25.6980 C.3   118  LYS118      0.0298
    153  CG         5.4100   31.1890   24.7950 C.3   118  LYS118      0.0038
    154  CD         6.0110   31.9680   23.6250 C.3   118  LYS118      0.0206
    155  CE         6.8510   31.0650   22.7390 C.3   118  LYS118      0.1093
    156  NZ         7.4890   31.7770   21.5690 N.3   118  LYS118     -0.1314
    157  N          3.6050   34.0330   30.5130 N.3   120  ASP120     -0.1225
    158  CA         4.1830   35.2980   30.9890 C.3   120  ASP120      0.1805
    159  C          3.8590   36.4790   30.0660 C.2   120  ASP120      0.2597
    160  O          4.0060   37.6460   30.4530 O.2   120  ASP120     -0.2718
    161  CB         5.7020   35.1770   31.1580 C.3   120  ASP120      0.1424
    162  CG         6.3940   34.6240   29.9180 C.2   120  ASP120      0.3668
    163  OD1        6.2200   33.4210   29.6040 O.co2 120  ASP120     -0.2456
    164  OD2        7.1350   35.3900   29.2690 O.co2 120  ASP120     -0.2456
    165  N          3.4000   36.1780   28.8720 N.am  121  LEU121     -0.1979
    166  CA         3.0630   37.2060   27.9390 C.3   121  LEU121      0.1596
    167  C          1.5790   37.4650   27.9980 C.2   121  LEU121      0.2287
    168  O          0.9010   37.4680   27.0020 O.2   121  LEU121     -0.2864
    169  CB         3.5120   36.8500   26.5490 C.3   121  LEU121      0.0297
    170  CG         4.9670   36.4710   26.3840 C.3   121  LEU121      0.0022
    171  CD1        5.2670   36.0520   25.0180 C.3   121  LEU121      0.0001
    172  CD2        5.9170   37.5210   26.8580 C.3   121  LEU121      0.0001
    173  N          5.0280   28.7550   31.7680 N.3   147  SER147     -0.1202
    174  CA         6.0350   29.6340   31.2220 C.3   147  SER147      0.2020
    175  C          7.3920   29.0080   31.4570 C.2   147  SER147      0.2619
    176  O          7.8230   28.8530   32.6030 O.2   147  SER147     -0.2717
    177  CB         5.9640   31.0340   31.8560 C.3   147  SER147      0.2103
    178  OG         7.1110   31.8050   31.5130 O.3   147  SER147     -0.2182
    179  N          8.0730   28.6400   30.3810 N.am  148  ALA148     -0.1965
    180  CA         9.4600   28.2040   30.5150 C.3   148  ALA148      0.1728
    181  C         10.3300   29.3570   31.0270 C.2   148  ALA148      0.2616
    182  O         11.3120   29.1400   31.7360 O.2   148  ALA148     -0.2715
    183  CB         9.9830   27.6840   29.1940 C.3   148  ALA148      0.0334
    184  N          9.9490   30.5800   30.6710 N.am  149  LYS149     -0.1977
    185  CA        10.6930   31.7750   31.0530 C.3   149  LYS149      0.1596
    186  C         10.7380   31.9870   32.5670 C.2   149  LYS149      0.2287
    187  O         11.8250   32.0440   33.1510 O.2   149  LYS149     -0.2864
    188  CB        10.1120   33.0140   30.3660 C.3   149  LYS149      0.0298
    189  CG        11.0310   34.2310   30.4460 C.3   149  LYS149      0.0038
    190  CD        10.5450   35.3830   29.6000 C.3   149  LYS149      0.0206
    191  CE        11.3290   36.6520   29.9490 C.3   149  LYS149      0.1093
    192  NZ        10.6450   37.8810   29.4640 N.3   149  LYS149     -0.1314
@<TRIPOS>BOND
     1   139   137    1
     2   137   138    1
     3   137   136    1
     4   134   135    2
     5   134   133    1
     6   136   133    1
     7   133   132    1
     8   132   130   am
     9   131   130    2
    10     6     5    1
    11   130   129    1
    12   102   100   ar
    13     5     2    1
    14   127   124    1
    15   108   107    1
    16   112   111    2
    17   107   104    1
    18   126   125    2
    19   129   128    1
    20   125   128   am
    21   125   124    1
    22   111   110    1
    23   100    99    1
    24   100   101   ar
    25     1     2    1
    26   106   105    2
    27   124   123    1
    28     2     3    1
    29    99    98    1
    30   104   105    1
    31   104   103    1
    32   105   109   am
    33     4     3    2
    34   103    96   am
    35   123   118   am
    36     3     7   am
    37   109   110    1
    38   110   113    1
    39    98    95    1
    40    11     8    1
    41     7     8    1
    42    96    95    1
    43    96    97    2
    44    95    94    1
    45   113   115    1
    46   113   114    1
    47   118   119    2
    48   118   117    1
    49   120   121    1
    50   120   117    1
    51   120   122    1
    52     8     9    1
    53   117   116    1
    54    31    30    1
    55    88    87    2
    56    94    87   am
    57    30    29    1
    58     9    12   am
    59     9    10    2
    60    87    86    1
    61    17    16    1
    62    12    13    1
    63    29    28    1
    64    80    82   ar
    65    80    79   ar
    66    82    84   ar
    67    18    16    1
    68    16    13    1
    69    13    14    1
    70    86    85    1
    71    86    89    1
    72    85    76   am
    73    79    78    1
    74    79    81   ar
    75    78    75    1
    76    84    83   ar
    77   156   155    1
    78    37    36    1
    79    81    83   ar
    80    28    27    1
    81    76    75    1
    82    76    77    2
    83    89    90    1
    84    75    74    1
    85    90    91    1
    86    27    24    1
    87    19    14   am
    88    19    20    1
    89    14    15    2
    90    36    33    1
    91   155   154    1
    92    68    67    2
    93    23    24    1
    94    23    21   am
    95    93    91   am
    96    74    67   am
    97    91    92    2
    98    32    33    1
    99    32    25   am
   100    24    25    1
   101    20    21    1
   102    67    66    1
   103   154   153    1
   104    33    34    1
   105    21    22    2
   106    25    26    2
   107   153   152    1
   108   171   170    1
   109    66    69    1
   110    66    65    1
   111    34    38   am
   112    34    35    2
   113    43    42    1
   114    38    39    1
   115    58    57    2
   116    70    69    1
   117    70    71    1
   118    72    71   ar
   119   152   149    1
   120    59    60    1
   121    59    56    1
   122    71    73   ar
   123    57    65   am
   124    57    56    1
   125    61    60   ar
   126    61    63   ar
   127   143   142    2
   128    42    39    1
   129   147   145   am
   130   170   169    1
   131   170   172    1
   132    39    40    1
   133    60    62   ar
   134   144   145    1
   135   144   141    1
   136   169   166    1
   137    63    64   ar
   138    56    55    1
   139   140   141    1
   140   142   141    1
   141   142   148   am
   142   168   167    2
   143   145   146    2
   144   149   148    1
   145   149   150    1
   146    54    52   ar
   147    54    53   ar
   148    62    64   ar
   149   151   150    2
   150    40    41    2
   151    55    46   am
   152    52    50   ar
   153   166   167    1
   154   166   165    1
   155    53    51   ar
   156    50    49   ar
   157   165   159   am
   158    46    47    2
   159    46    45    1
   160    51    49   ar
   161   183   180    1
   162   164   162   ar
   163    49    48    1
   164   192   191    1
   165   190   191    1
   166   190   189    1
   167   163   162   ar
   168    45    48    1
   169    45    44    1
   170   162   161    1
   171   159   160    2
   172   159   158    1
   173   188   189    1
   174   188   185    1
   175   179   180    1
   176   179   175   am
   177   157   158    1
   178   180   181    1
   179   184   181   am
   180   184   185    1
   181   158   161    1
   182   181   182    2
   183   185   186    1
   184   174   175    1
   185   174   173    1
   186   174   177    1
   187   175   176    2
   188   178   177    1
   189   186   187    2
