@<TRIPOS>MOLECULE
tmp/3mjnA02.pdb
 128 121 0 0 0
SMALL
GASTEIGER

@<TRIPOS>ATOM
      1  N        -10.2340   10.1610    7.6760 N.3    74  ARG74      -0.1231
      2  CA       -10.0470    9.3640    6.4560 C.3    74  ARG74       0.1694
      3  C        -10.0570   10.2430    5.1940 C.2    74  ARG74       0.2592
      4  O        -10.2320   11.4680    5.2830 O.2    74  ARG74      -0.2718
      5  CB       -11.1070    8.2600    6.3640 C.3    74  ARG74       0.0321
      6  CG       -12.4490    8.7730    5.9070 C.3    74  ARG74       0.0489
      7  CD       -13.5620    7.7760    6.0740 C.3    74  ARG74       0.2205
      8  NE       -14.8680    8.4230    5.8990 N.pl3  74  ARG74      -0.0865
      9  CZ       -15.5230    9.0940    6.8500 C.cat  74  ARG74       0.5346
     10  NH1      -16.6980    9.6340    6.5670 N.pl3  74  ARG74       0.1354
     11  NH2      -15.0200    9.2270    8.0780 N.pl3  74  ARG74       0.1354
     12  N         -9.8600    9.6030    4.0360 N.am   75  LYS75      -0.1966
     13  CA        -9.9600   10.2370    2.6970 C.3    75  LYS75       0.1728
     14  C        -11.1730   11.1690    2.4700 C.2    75  LYS75       0.2617
     15  O        -12.3220   10.8030    2.7490 O.2    75  LYS75      -0.2715
     16  CB        -9.9170    9.1570    1.6050 C.3    75  LYS75       0.0311
     17  CG        -8.5790    9.0670    0.8720 C.3    75  LYS75       0.0038
     18  CD        -7.9380    7.6770    0.9780 C.3    75  LYS75       0.0206
     19  CE        -7.1710    7.4930    2.3010 C.3    75  LYS75       0.1093
     20  NZ        -6.1640    8.5720    2.5290 N.3    75  LYS75      -0.1314
     21  N        -10.8990   12.3690    1.9590 N.am   76  SER76      -0.1936
     22  CA       -11.9400   13.3670    1.6860 C.3    76  SER76       0.2055
     23  C        -11.8620   13.9700    0.2810 C.2    76  SER76       0.2643
     24  O        -10.7730   14.1150   -0.2960 O.2    76  SER76      -0.2714
     25  CB       -11.8800   14.4900    2.7180 C.3    76  SER76       0.2130
     26  OG       -12.3360   14.0370    3.9780 O.3    76  SER76      -0.2179
     27  N        -13.0300   14.3220   -0.2540 N.am   77  SER77      -0.1949
     28  CA       -13.1380   15.0530   -1.5210 C.3    77  SER77       0.1924
     29  C        -13.3560   16.5550   -1.2590 C.2    77  SER77       0.2314
     30  O        -12.7660   17.4070   -1.9410 O.2    77  SER77      -0.2863
     31  CB       -14.2570   14.4650   -2.3980 C.3    77  SER77       0.2116
     32  OG       -15.4250   14.1820   -1.6380 O.3    77  SER77      -0.2180
     33  N        -20.6800    6.3090    7.9990 N.3    93  LEU93      -0.1245
     34  CA       -22.0850    5.9450    7.8460 C.3    93  LEU93       0.1561
     35  C        -22.3260    4.5640    8.4220 C.2    93  LEU93       0.2260
     36  O        -21.6710    3.6140    8.0520 O.2    93  LEU93      -0.2867
     37  CB       -22.5210    6.0180    6.3710 C.3    93  LEU93       0.0270
     38  CG       -22.3280    7.3440    5.6070 C.3    93  LEU93       0.0019
     39  CD1      -22.7780    7.2310    4.1710 C.3    93  LEU93       0.0001
     40  CD2      -23.0520    8.5000    6.2900 C.3    93  LEU93       0.0001
     41  N        -20.1770    1.9960    6.1340 N.3   204  ASN204     -0.1225
     42  CA       -20.1330    1.9910    4.6610 C.3   204  ASN204      0.1785
     43  C        -18.8070    1.4730    4.0970 C.2   204  ASN204      0.2597
     44  O        -18.7950    0.6510    3.1750 O.2   204  ASN204     -0.2718
     45  CB       -20.4780    3.3810    4.0930 C.3   204  ASN204      0.1169
     46  CG       -19.9640    3.5890    2.6590 C.2   204  ASN204      0.2627
     47  OD1      -20.3270    2.8460    1.7360 O.2   204  ASN204     -0.2716
     48  ND2      -19.1020    4.6050    2.4830 N.am  204  ASN204     -0.0877
     49  N        -17.7070    1.9560    4.6690 N.am  205  ASP205     -0.1974
     50  CA       -16.3680    1.6590    4.2010 C.3   205  ASP205      0.1709
     51  C        -16.0290    0.1630    4.1680 C.2   205  ASP205      0.2293
     52  O        -15.3240   -0.3140    3.2590 O.2   205  ASP205     -0.2864
     53  CB       -15.3690    2.4340    5.0640 C.3   205  ASP205      0.1436
     54  CG       -15.7510    3.9170    5.2070 C.2   205  ASP205      0.3671
     55  OD1      -16.4980    4.2980    6.1280 O.co2 205  ASP205     -0.2456
     56  OD2      -15.2960    4.7180    4.3730 O.co2 205  ASP205     -0.2456
     57  N        -16.9310   -1.7400    0.8570 N.3   208  TRP208     -0.1227
     58  CA       -15.9580   -1.3770   -0.1680 C.3   208  TRP208      0.1737
     59  C        -14.5690   -1.9800    0.0630 C.2   208  TRP208      0.2595
     60  O        -13.9060   -2.3880   -0.8820 O.2   208  TRP208     -0.2718
     61  CB       -15.8650    0.1530   -0.2880 C.3   208  TRP208      0.0564
     62  CG       -17.1550    0.7500   -0.7570 C.ar  208  TRP208      0.0003
     63  CD1      -18.2960    0.9500   -0.0160 C.ar  208  TRP208      0.0946
     64  CD2      -17.4630    1.1940   -2.0850 C.ar  208  TRP208      0.0152
     65  NE1      -19.2880    1.5050   -0.8020 N.ar  208  TRP208     -0.2442
     66  CE2      -18.8050    1.6560   -2.0750 C.ar  208  TRP208      0.0810
     67  CE3      -16.7380    1.2430   -3.2830 C.ar  208  TRP208      0.0012
     68  CZ2      -19.4300    2.1540   -3.2160 C.ar  208  TRP208      0.0191
     69  CZ3      -17.3570    1.7500   -4.4160 C.ar  208  TRP208      0.0001
     70  CH2      -18.6930    2.1970   -4.3750 C.ar  208  TRP208      0.0015
     71  N        -14.1190   -2.0410    1.3110 N.am  209  GLU209     -0.1979
     72  CA       -12.7440   -2.4430    1.5860 C.3   209  GLU209      0.1602
     73  C        -12.5430   -3.9370    1.4970 C.2   209  GLU209      0.2287
     74  O        -11.4180   -4.4020    1.4100 O.2   209  GLU209     -0.2864
     75  CB       -12.2780   -1.9180    2.9400 C.3   209  GLU209      0.0415
     76  CG       -11.9170   -0.4400    2.9050 C.3   209  GLU209      0.1163
     77  CD       -11.8870    0.2270    4.2780 C.2   209  GLU209      0.3649
     78  OE1      -11.8370   -0.4790    5.3180 O.co2 209  GLU209     -0.2457
     79  OE2      -11.9220    1.4790    4.3010 O.co2 209  GLU209     -0.2457
     80  N        -10.4130   -5.7650   -3.2170 N.3   214  GLU214     -0.1245
     81  CA        -9.7740   -4.8180   -2.2940 C.3   214  GLU214      0.1567
     82  C         -9.1290   -5.4880   -1.0730 C.2   214  GLU214      0.2260
     83  O         -8.2650   -4.8890   -0.4390 O.2   214  GLU214     -0.2867
     84  CB       -10.7510   -3.7200   -1.8360 C.3   214  GLU214      0.0388
     85  CG       -11.1030   -2.6940   -2.8900 C.3   214  GLU214      0.1160
     86  CD       -10.0140   -1.6370   -3.0970 C.2   214  GLU214      0.3649
     87  OE1       -9.0950   -1.5060   -2.2560 O.co2 214  GLU214     -0.2457
     88  OE2      -10.0860   -0.9140   -4.1110 O.co2 214  GLU214     -0.2457
     89  N        -19.3050   -6.4450   -4.8170 N.3   225  ARG225     -0.1245
     90  CA       -20.2370   -5.3890   -4.3530 C.3   225  ARG225      0.1563
     91  C        -21.7020   -5.5800   -4.7610 C.2   225  ARG225      0.2260
     92  O        -22.6200   -5.2760   -3.9880 O.2   225  ARG225     -0.2867
     93  CB       -19.7830   -4.0180   -4.8640 C.3   225  ARG225      0.0307
     94  CG       -18.9440   -3.2380   -3.8850 C.3   225  ARG225      0.0489
     95  CD       -17.9640   -2.3260   -4.5780 C.3   225  ARG225      0.2205
     96  NE       -16.6600   -2.4270   -3.9310 N.pl3 225  ARG225     -0.0865
     97  CZ       -15.5310   -1.9270   -4.4240 C.cat 225  ARG225      0.5346
     98  NH1      -15.5330   -1.2690   -5.5810 N.pl3 225  ARG225      0.1354
     99  NH2      -14.3960   -2.0860   -3.7590 N.pl3 225  ARG225      0.1354
    100  N        -23.5740    1.5110   -3.3610 N.3   241  THR241     -0.1218
    101  CA       -23.2180    2.8450   -3.8640 C.3   241  THR241      0.1862
    102  C        -24.1400    3.9430   -3.3320 C.2   241  THR241      0.2287
    103  O        -23.8190    5.1180   -3.4790 O.2   241  THR241     -0.2866
    104  CB       -23.2520    2.9020   -5.4130 C.3   241  THR241      0.1770
    105  OG1      -24.5040    2.3980   -5.8810 O.3   241  THR241     -0.2211
    106  CG2      -22.1150    2.0880   -6.0380 C.3   241  THR241      0.0375
    107  N        -25.1330    4.6310   -0.1580 N.3   243  ALA243     -0.1231
    108  CA       -25.0060    4.8400    1.2770 C.3   243  ALA243      0.1694
    109  C        -25.4100    6.2440    1.7540 C.2   243  ALA243      0.2591
    110  O        -25.9400    6.3760    2.8610 O.2   243  ALA243     -0.2718
    111  CB       -23.5810    4.4960    1.7420 C.3   243  ALA243      0.0304
    112  N        -25.1700    7.2700    0.9310 N.am  244  GLN244     -0.1979
    113  CA       -25.5650    8.6460    1.2590 C.3   244  GLN244      0.1601
    114  C        -27.0400    8.7670    1.5940 C.2   244  GLN244      0.2287
    115  O        -27.4330    9.6310    2.3550 O.2   244  GLN244     -0.2864
    116  CB       -25.2660    9.5980    0.1050 C.3   244  GLN244      0.0394
    117  CG       -23.8820   10.2020    0.0960 C.3   244  GLN244      0.0908
    118  CD       -23.7670   11.4350    0.9670 C.2   244  GLN244      0.2608
    119  OE1      -23.9310   11.3770    2.2000 O.2   244  GLN244     -0.2717
    120  NE2      -23.4640   12.5640    0.3330 N.am  244  GLN244     -0.0878
    121  N         -8.1190    2.5140    7.0190 N.3   303  ASN303     -0.1240
    122  CA        -8.3710    3.6600    6.1220 C.3   303  ASN303      0.1653
    123  C         -8.0290    5.0460    6.7080 C.2   303  ASN303      0.2266
    124  O         -8.3530    6.0680    6.0950 O.2   303  ASN303     -0.2867
    125  CB        -9.8110    3.6430    5.5730 C.3   303  ASN303      0.1155
    126  CG       -10.8690    3.8010    6.6660 C.2   303  ASN303      0.2627
    127  OD1      -10.5630    3.9370    7.8490 O.2   303  ASN303     -0.2716
    128  ND2      -12.1150    3.7770    6.2660 N.am  303  ASN303     -0.0877
@<TRIPOS>BOND
     1   106   104    1
     2   105   104    1
     3    98    97    1
     4   104   101    1
     5    93    90    1
     6    93    94    1
     7    89    90    1
     8    91    90    1
     9    91    92    2
    10    95    96    1
    11    95    94    1
    12    97    96    2
    13    97    99    1
    14    69    70   ar
    15    69    67   ar
    16    70    68   ar
    17    88    86   ar
    18   101   100    1
    19   101   102    1
    20   103   102    2
    21    67    64   ar
    22    80    81    1
    23    68    66   ar
    24    86    85    1
    25    86    87   ar
    26    85    84    1
    27    31    32    1
    28    31    28    1
    29    81    84    1
    30    81    82    1
    31    64    66   ar
    32    64    62   ar
    33    66    65   ar
    34    30    29    2
    35    28    29    1
    36    28    27    1
    37    82    83    2
    38    60    59    2
    39    65    63   ar
    40    62    61    1
    41    62    63   ar
    42    24    23    2
    43    61    58    1
    44    27    23   am
    45    58    59    1
    46    58    57    1
    47   107   108    1
    48    59    71   am
    49   117   116    1
    50   117   118    1
    51   116   113    1
    52    23    22    1
    53   120   118   am
    54    17    18    1
    55    17    16    1
    56   112   113    1
    57   112   109   am
    58   118   119    2
    59    18    19    1
    60   113   114    1
    61   108   111    1
    62   108   109    1
    63    71    72    1
    64    74    73    2
    65    73    72    1
    66    72    75    1
    67   114   115    2
    68    16    13    1
    69    22    21    1
    70    22    25    1
    71    47    46    2
    72   109   110    2
    73    21    14   am
    74    19    20    1
    75    14    13    1
    76    14    15    2
    77    48    46   am
    78    46    45    1
    79    13    12    1
    80    25    26    1
    81    76    75    1
    82    76    77    1
    83    44    43    2
    84    52    51    2
    85    12     3   am
    86    45    42    1
    87    43    42    1
    88    43    49   am
    89    51    50    1
    90    39    38    1
    91    50    49    1
    92    50    53    1
    93    77    79   ar
    94    77    78   ar
    95    56    54   ar
    96    42    41    1
    97    53    54    1
    98     3     4    2
    99     3     2    1
   100    54    55   ar
   101   125   122    1
   102   125   126    1
   103    38    40    1
   104    38    37    1
   105     8     7    1
   106     8     9    2
   107     6     7    1
   108     6     5    1
   109   124   123    2
   110   122   123    1
   111   122   121    1
   112   128   126   am
   113     5     2    1
   114    37    34    1
   115     2     1    1
   116    10     9    1
   117   126   127    2
   118     9    11    1
   119    34    33    1
   120    34    35    1
   121    36    35    2
