@<TRIPOS>MOLECULE
tmp/3mjnA01.pdb
 81 77 0 0 0
SMALL
GASTEIGER

@<TRIPOS>ATOM
      1  N          7.2300   12.6910   27.1620 N.3     2  THR2       -0.1218
      2  CA         7.7350   12.2170   25.8680 C.3     2  THR2        0.1862
      3  C          7.5440   10.6910   25.6680 C.2     2  THR2        0.2287
      4  O          7.6690   10.1860   24.5320 O.2     2  THR2       -0.2866
      5  CB         9.1900   12.7150   25.5990 C.3     2  THR2        0.1770
      6  OG1        9.2090   14.1510   25.6610 O.3     2  THR2       -0.2211
      7  CG2        9.6940   12.2710   24.2290 C.3     2  THR2        0.0375
      8  N         10.1150    0.3250   16.7470 N.3    23  GLN23      -0.1231
      9  CA        10.3980    1.4010   15.7920 C.3    23  GLN23       0.1698
     10  C         10.3690    2.8300   16.3610 C.2    23  GLN23       0.2593
     11  O         10.9760    3.7290   15.7830 O.2    23  GLN23      -0.2718
     12  CB         9.4660    1.3120   14.5740 C.3    23  GLN23       0.0381
     13  CG         9.5700    0.0060   13.7970 C.3    23  GLN23       0.0905
     14  CD        10.9900   -0.2800   13.3170 C.2    23  GLN23       0.2608
     15  OE1       11.4670    0.3350   12.3710 O.2    23  GLN23      -0.2717
     16  NE2       11.6680   -1.2100   13.9800 N.am   23  GLN23      -0.0878
     17  N          9.6670    3.0400   17.4730 N.am   24  SER24      -0.1938
     18  CA         9.5880    4.3620   18.1100 C.3    24  SER24       0.2055
     19  C         10.7810    4.6470   19.0480 C.2    24  SER24       0.2643
     20  O         10.9330    5.7580   19.5650 O.2    24  SER24      -0.2714
     21  CB         8.2630    4.5180   18.8660 C.3    24  SER24       0.2130
     22  OG         8.2550    3.7520   20.0630 O.3    24  SER24      -0.2179
     23  N         11.6170    3.6310   19.2680 N.am   25  GLY25      -0.1954
     24  CA        12.7470    3.7330   20.1860 C.3    25  GLY25       0.1869
     25  C         12.2530    3.8330   21.6130 C.2    25  GLY25       0.2309
     26  O         12.8600    4.5120   22.4550 O.2    25  GLY25      -0.2863
     27  N          9.6990    5.3460   22.6230 N.3    27  ASN27      -0.1240
     28  CA         8.8980    6.5550   22.8530 C.3    27  ASN27       0.1653
     29  C          7.4230    6.1990   23.0870 C.2    27  ASN27       0.2266
     30  O          6.6740    6.9400   23.7280 O.2    27  ASN27      -0.2867
     31  CB         9.0360    7.5280   21.6760 C.3    27  ASN27       0.1155
     32  CG        10.3350    8.3520   21.7200 C.2    27  ASN27       0.2627
     33  OD1       11.0920    8.3160   22.7000 O.2    27  ASN27      -0.2716
     34  ND2       10.5810    9.1100   20.6420 N.am   27  ASN27      -0.0877
     35  N          0.9950   15.6500   21.7810 N.3   268  GLN268     -0.1245
     36  CA         2.3410   15.9470   21.2700 C.3   268  GLN268      0.1566
     37  C          3.0830   14.7090   20.7240 C.2   268  GLN268      0.2260
     38  O          3.5640   14.7050   19.6030 O.2   268  GLN268     -0.2867
     39  CB         3.1730   16.6690   22.3420 C.3   268  GLN268      0.0367
     40  CG         4.6770   16.6950   22.0780 C.3   268  GLN268      0.0905
     41  CD         5.4860   17.2690   23.2550 C.2   268  GLN268      0.2608
     42  OE1        5.5150   18.4950   23.4830 O.2   268  GLN268     -0.2717
     43  NE2        6.1560   16.3830   23.9970 N.am  268  GLN268     -0.0878
     44  N          3.9280   13.6710   16.4510 N.3   272  HIS272     -0.1226
     45  CA         5.2920   13.3230   16.0420 C.3   272  HIS272      0.1752
     46  C          5.3790   11.8800   15.5510 C.2   272  HIS272      0.2595
     47  O          6.0560   11.5940   14.5550 O.2   272  HIS272     -0.2718
     48  CB         6.2520   13.5990   17.1990 C.3   272  HIS272      0.0759
     49  CG         7.6380   13.0690   17.0010 C.ar  272  HIS272      0.0818
     50  ND1        8.4820   13.5250   16.0040 N.ar  272  HIS272     -0.2268
     51  CD2        8.3470   12.1500   17.7050 C.ar  272  HIS272      0.1154
     52  CE1        9.6420   12.8940   16.0920 C.ar  272  HIS272      0.1986
     53  NE2        9.5860   12.0560   17.1140 N.ar  272  HIS272     -0.2212
     54  N          4.6710   10.9760   16.2240 N.am  273  GLN273     -0.1979
     55  CA         4.6020    9.5730   15.7930 C.3   273  GLN273      0.1601
     56  C          4.0220    9.3740   14.3780 C.2   273  GLN273      0.2287
     57  O          4.4300    8.4630   13.6540 O.2   273  GLN273     -0.2864
     58  CB         3.8210    8.7270   16.8100 C.3   273  GLN273      0.0394
     59  CG         4.6160    8.3620   18.0380 C.3   273  GLN273      0.0908
     60  CD         5.9320    7.6800   17.7000 C.2   273  GLN273      0.2608
     61  OE1        5.9630    6.5930   17.1110 O.2   273  GLN273     -0.2717
     62  NE2        7.0280    8.3260   18.0570 N.am  273  GLN273     -0.0878
     63  N          6.2490   10.2930   11.4440 N.3   276  LEU276     -0.1231
     64  CA         7.1870    9.2130   11.1590 C.3   276  LEU276      0.1693
     65  C          6.5260    7.9870   10.5270 C.2   276  LEU276      0.2592
     66  O          7.0760    7.4130    9.5960 O.2   276  LEU276     -0.2718
     67  CB         7.9190    8.7660   12.4310 C.3   276  LEU276      0.0284
     68  CG         8.7400    9.6790   13.3530 C.3   276  LEU276      0.0019
     69  CD1        9.5280    8.7980   14.3110 C.3   276  LEU276      0.0001
     70  CD2        9.6840   10.6210   12.5990 C.3   276  LEU276      0.0001
     71  N          5.3670    7.5750   11.0410 N.am  277  PHE277     -0.1976
     72  CA         4.7490    6.3040   10.6310 C.3   277  PHE277      0.1639
     73  C          3.3560    6.4280   10.0190 C.2   277  PHE277      0.2290
     74  O          2.7480    5.4200    9.6840 O.2   277  PHE277     -0.2864
     75  CB         4.7180    5.2890   11.7860 C.3   277  PHE277      0.0560
     76  CG         6.0300    5.1370   12.5080 C.ar  277  PHE277     -0.0200
     77  CD1        7.0930    4.4400   11.9270 C.ar  277  PHE277     -0.0042
     78  CD2        6.1980    5.6780   13.7850 C.ar  277  PHE277     -0.0042
     79  CE1        8.3200    4.2910   12.6090 C.ar  277  PHE277     -0.0003
     80  CE2        7.4080    5.5430   14.4720 C.ar  277  PHE277     -0.0003
     81  CZ         8.4730    4.8500   13.8850 C.ar  277  PHE277     -0.0000
@<TRIPOS>BOND
     1    66    65    2
     2    74    73    2
     3    73    72    1
     4    65    71   am
     5    65    64    1
     6    72    71    1
     7    72    75    1
     8    64    63    1
     9    64    67    1
    10    75    76    1
    11    77    76   ar
    12    77    79   ar
    13    15    14    2
    14    67    68    1
    15    76    78   ar
    16    70    68    1
    17    79    81   ar
    18    14    13    1
    19    14    16   am
    20    68    69    1
    21    57    56    2
    22    78    80   ar
    23    13    12    1
    24    81    80   ar
    25    56    55    1
    26    47    46    2
    27    12     9    1
    28    46    45    1
    29    46    54   am
    30    11    10    2
    31     9    10    1
    32     9     8    1
    33    55    54    1
    34    55    58    1
    35    50    52   ar
    36    50    49   ar
    37    45    44    1
    38    45    48    1
    39    52    53   ar
    40    10    17   am
    41    58    59    1
    42    49    48    1
    43    49    51   ar
    44    61    60    2
    45    53    51   ar
    46    17    18    1
    47    60    59    1
    48    60    62   am
    49    18    21    1
    50    18    19    1
    51    21    22    1
    52    19    23   am
    53    19    20    2
    54    23    24    1
    55    38    37    2
    56    24    25    1
    57    34    32   am
    58    37    36    1
    59    36    35    1
    60    36    39    1
    61    25    26    2
    62    31    32    1
    63    31    28    1
    64    32    33    2
    65    40    39    1
    66    40    41    1
    67    27    28    1
    68    28    29    1
    69    29    30    2
    70    41    42    2
    71    41    43   am
    72     7     5    1
    73     4     3    2
    74     5     6    1
    75     5     2    1
    76     3     2    1
    77     2     1    1
