@<TRIPOS>MOLECULE
tmp/3mjnA03.pdb
 112 109 0 0 0
SMALL
GASTEIGER

@<TRIPOS>ATOM
      1  N        -13.2280   16.3070   10.9320 N.3    89  THR89      -0.1203
      2  CA       -13.6370   14.9320   10.6780 C.3    89  THR89       0.1994
      3  C        -15.0900   14.8890   10.1370 C.2    89  THR89       0.2618
      4  O        -15.9460   15.6940   10.5310 O.2    89  THR89      -0.2717
      5  CB       -13.4600   14.0540   11.9370 C.3    89  THR89       0.1784
      6  OG1      -14.3220   14.5200   12.9760 O.3    89  THR89      -0.2211
      7  CG2      -12.0230   14.0960   12.4260 C.3    89  THR89       0.0376
      8  N        -15.3590   13.9620    9.2200 N.am   90  GLU90      -0.1965
      9  CA       -16.6660   13.9180    8.5620 C.3    90  GLU90       0.1733
     10  C        -17.6890   12.9840    9.2220 C.2    90  GLU90       0.2616
     11  O        -18.8800   13.2590    9.1780 O.2    90  GLU90      -0.2715
     12  CB       -16.5180   13.6290    7.0610 C.3    90  GLU90       0.0429
     13  CG       -15.7030   14.7200    6.3290 C.3    90  GLU90       0.1163
     14  CD       -15.7780   14.6350    4.8060 C.2    90  GLU90       0.3649
     15  OE1      -16.8850   14.3740    4.2690 O.co2  90  GLU90      -0.2457
     16  OE2      -14.7260   14.8420    4.1480 O.co2  90  GLU90      -0.2457
     17  N        -17.2360   11.9040    9.8470 N.am   91  GLY91      -0.1955
     18  CA       -18.1550   10.9370   10.4520 C.3    91  GLY91       0.1869
     19  C        -18.3710    9.8160    9.4590 C.2    91  GLY91       0.2309
     20  O        -18.3020   10.0360    8.2620 O.2    91  GLY91      -0.2863
     21  N        -25.2090    8.7030   10.9670 N.3   250  VAL250     -0.1231
     22  CA       -23.8270    9.1640   10.7980 C.3   250  VAL250      0.1692
     23  C        -23.1200    9.0230   12.1500 C.2   250  VAL250      0.2592
     24  O        -23.6220    9.4830   13.1630 O.2   250  VAL250     -0.2718
     25  CB       -23.7500   10.6550   10.3520 C.3   250  VAL250      0.0266
     26  CG1      -22.2780   11.1240   10.2530 C.3   250  VAL250      0.0020
     27  CG2      -24.4600   10.8520    9.0370 C.3   250  VAL250      0.0020
     28  N        -21.9610    8.3710   12.1540 N.am  251  ALA251     -0.1966
     29  CA       -21.2460    8.0400   13.3820 C.3   251  ALA251      0.1713
     30  C        -20.0280    8.9300   13.5570 C.2   251  ALA251      0.2458
     31  O        -19.3080    9.1920   12.5970 O.2   251  ALA251     -0.2730
     32  CB       -20.8300    6.5860   13.3640 C.3   251  ALA251      0.0333
     33  N        -19.8040    9.4160   14.7900 N.am  252  PRO252     -0.2716
     34  CA       -18.5710   10.1480   15.0510 C.3   252  PRO252      0.1536
     35  C        -17.3590    9.2350   14.9170 C.2   252  PRO252      0.2598
     36  O        -17.3740    8.0740   15.3650 O.2   252  PRO252     -0.2715
     37  CB       -18.7410   10.6410   16.4950 C.3   252  PRO252      0.0310
     38  CG       -19.7390    9.7250   17.1050 C.3   252  PRO252      0.0237
     39  CD       -20.6650    9.3210   15.9900 C.3   252  PRO252      0.0939
     40  N        -16.3150    9.7550   14.2880 N.am  253  ASN253     -0.1973
     41  CA       -15.0930    8.9980   14.1050 C.3   253  ASN253      0.1688
     42  C        -14.5190    8.4310   15.3970 C.2   253  ASN253      0.2292
     43  O        -14.7420    8.9510   16.5010 O.2   253  ASN253     -0.2864
     44  CB       -14.0430    9.8360   13.3760 C.3   253  ASN253      0.1181
     45  CG       -14.4330   10.1320   11.9360 C.2   253  ASN253      0.2629
     46  OD1      -15.3890    9.5680   11.4110 O.2   253  ASN253     -0.2716
     47  ND2      -13.6800   10.9990   11.2830 N.am  253  ASN253     -0.0877
     48  N         -8.5730   18.3750   17.2670 N.3   310  LEU310     -0.1231
     49  CA       -10.0120   18.5330   17.4160 C.3   310  LEU310      0.1693
     50  C        -10.4570   19.9780   17.3000 C.2   310  LEU310      0.2593
     51  O        -11.2150   20.3200   16.3970 O.2   310  LEU310     -0.2718
     52  CB       -10.5560   17.7920   18.6530 C.3   310  LEU310      0.0284
     53  CG       -10.4770   16.2700   18.4420 C.3   310  LEU310      0.0019
     54  CD1      -10.7420   15.5070   19.6960 C.3   310  LEU310      0.0001
     55  CD2      -11.4320   15.8210   17.3350 C.3   310  LEU310      0.0001
     56  N         -9.9820   20.8530   18.1670 N.am  311  GLY311     -0.1942
     57  CA       -10.2960   22.2760   17.9470 C.3   311  GLY311      0.2014
     58  C        -11.7430   22.5890   18.2650 C.2   311  GLY311      0.2639
     59  O        -12.6770   22.0360   17.6520 O.2   311  GLY311     -0.2714
     60  N        -11.9120   23.4930   19.2260 N.am  312  GLY312     -0.1954
     61  CA       -13.1800   23.7070   19.9090 C.3   312  GLY312      0.1869
     62  C        -13.0300   23.0160   21.2440 C.2   312  GLY312      0.2309
     63  O        -13.9840   22.9070   22.0020 O.2   312  GLY312     -0.2863
     64  N        -13.2240   20.0380   22.4530 N.3   314  PRO314     -0.2116
     65  CA       -14.5200   19.4940   22.8040 C.3   314  PRO314      0.1372
     66  C        -14.4840   18.5160   23.9700 C.2   314  PRO314      0.2244
     67  O        -13.5330   17.7490   24.1190 O.2   314  PRO314     -0.2868
     68  CB       -14.9390   18.7570   21.5200 C.3   314  PRO314      0.0268
     69  CG       -13.6840   18.3610   20.8770 C.3   314  PRO314      0.0207
     70  CD       -12.6930   19.4370   21.2100 C.3   314  PRO314      0.0892
     71  N        -19.7060   16.8330   23.4730 N.3   318  GLU318     -0.1231
     72  CA       -19.6480   17.6440   22.2620 C.3   318  GLU318      0.1699
     73  C        -18.9830   16.9150   21.1110 C.2   318  GLU318      0.2592
     74  O        -19.3050   17.1860   19.9600 O.2   318  GLU318     -0.2718
     75  CB       -18.8680   18.9310   22.4700 C.3   318  GLU318      0.0402
     76  CG       -19.3560   19.8520   23.5400 C.3   318  GLU318      0.1161
     77  CD       -18.3300   20.9300   23.7920 C.2   318  GLU318      0.3649
     78  OE1      -17.1700   20.6120   24.1350 O.co2 318  GLU318     -0.2457
     79  OE2      -18.6720   22.1080   23.6330 O.co2 318  GLU318     -0.2457
     80  N        -18.0050   16.0560   21.4080 N.am  319  TYR319     -0.1962
     81  CA       -17.3950   15.2510   20.3710 C.3   319  TYR319      0.1771
     82  C        -18.4200   14.2450   19.8090 C.2   319  TYR319      0.2619
     83  O        -18.5720   14.1260   18.6100 O.2   319  TYR319     -0.2715
     84  CB       -16.0960   14.5430   20.8280 C.3   319  TYR319      0.0574
     85  CG       -15.5110   13.7390   19.6990 C.ar  319  TYR319     -0.0198
     86  CD1      -14.7470   14.3500   18.7160 C.ar  319  TYR319     -0.0009
     87  CD2      -15.8030   12.3890   19.5610 C.ar  319  TYR319     -0.0009
     88  CE1      -14.2480   13.6200   17.6330 C.ar  319  TYR319      0.0417
     89  CE2      -15.3400   11.6720   18.4990 C.ar  319  TYR319      0.0417
     90  CZ       -14.5650   12.2850   17.5430 C.ar  319  TYR319      0.1957
     91  OH       -14.0980   11.5560   16.4990 O.3   319  TYR319     -0.2866
     92  N        -19.1090   13.5190   20.6710 N.am  320  LEU320     -0.1963
     93  CA       -20.1120   12.5700   20.2010 C.3   320  LEU320      0.1728
     94  C        -21.3560   13.2560   19.5660 C.2   320  LEU320      0.2616
     95  O        -21.9600   12.7190   18.6240 O.2   320  LEU320     -0.2715
     96  CB       -20.5060   11.6000   21.3280 C.3   320  LEU320      0.0311
     97  CG       -19.3740   10.7060   21.8660 C.3   320  LEU320      0.0022
     98  CD1      -19.8810    9.8160   22.9950 C.3   320  LEU320      0.0001
     99  CD2      -18.6610    9.8750   20.7600 C.3   320  LEU320      0.0001
    100  N        -21.7010   14.4390   20.0860 N.am  321  GLY321     -0.1955
    101  CA       -22.8770   15.1940   19.6590 C.3   321  GLY321      0.1869
    102  C        -24.0950   14.7980   20.4780 C.2   321  GLY321      0.2309
    103  O        -24.2260   13.6330   20.8730 O.2   321  GLY321     -0.2863
    104  N        -27.2800   14.4950   19.6660 N.3   323  GLU323     -0.1245
    105  CA       -27.9610   13.4730   18.8810 C.3   323  GLU323      0.1567
    106  C        -27.5170   12.0600   19.2780 C.2   323  GLU323      0.2260
    107  O        -28.3370   11.2310   19.6740 O.2   323  GLU323     -0.2867
    108  CB       -27.6360   13.7470   17.4110 C.3   323  GLU323      0.0388
    109  CG       -28.4100   12.9670   16.3710 C.3   323  GLU323      0.1160
    110  CD       -28.0810   13.4540   14.9550 C.2   323  GLU323      0.3649
    111  OE1      -29.0110   13.4900   14.1030 O.co2 323  GLU323     -0.2457
    112  OE2      -26.9000   13.8210   14.7010 O.co2 323  GLU323     -0.2457
@<TRIPOS>BOND
     1    16    14   ar
     2    15    14   ar
     3    14    13    1
     4    13    12    1
     5    12     9    1
     6    20    19    2
     7     9     8    1
     8     9    10    1
     9    27    25    1
    10    11    10    2
    11     8     3   am
    12    10    17   am
    13    19    18    1
    14    17    18    1
    15     3     4    2
    16     3     2    1
    17    26    25    1
    18    25    22    1
    19     2     1    1
    20     2     5    1
    21    22    21    1
    22    22    23    1
    23    47    45   am
    24    46    45    2
    25    45    44    1
    26     5     7    1
    27     5     6    1
    28    23    28   am
    29    23    24    2
    30    28    29    1
    31    31    30    2
    32    32    29    1
    33    44    41    1
    34    29    30    1
    35    30    33   am
    36   111   110   ar
    37    41    40    1
    38    41    42    1
    39    40    35   am
    40   112   110   ar
    41    33    34    1
    42    33    39    1
    43    35    34    1
    44    35    36    2
    45   110   109    1
    46    34    37    1
    47    42    43    2
    48    39    38    1
    49   109   108    1
    50    51    50    2
    51    37    38    1
    52    91    90    1
    53    48    49    1
    54    50    49    1
    55    50    56   am
    56    55    53    1
    57   108   105    1
    58    49    52    1
    59    90    88   ar
    60    90    89   ar
    61    88    86   ar
    62    59    58    2
    63    57    56    1
    64    57    58    1
    65    58    60   am
    66    53    52    1
    67    53    54    1
    68    89    87   ar
    69    83    82    2
    70    95    94    2
    71    86    85   ar
    72   105   106    1
    73   105   104    1
    74    60    61    1
    75   106   107    2
    76    87    85   ar
    77    94   100   am
    78    94    93    1
    79   101   100    1
    80   101   102    1
    81    85    84    1
    82    82    81    1
    83    82    92   am
    84    61    62    1
    85    74    73    2
    86    93    92    1
    87    93    96    1
    88    81    84    1
    89    81    80    1
    90   102   103    2
    91    99    97    1
    92    69    70    1
    93    69    68    1
    94    73    80   am
    95    73    72    1
    96    70    64    1
    97    62    63    2
    98    96    97    1
    99    68    65    1
   100    97    98    1
   101    72    75    1
   102    72    71    1
   103    64    65    1
   104    75    76    1
   105    65    66    1
   106    76    77    1
   107    79    77   ar
   108    77    78   ar
   109    66    67    2
