@<TRIPOS>MOLECULE
tmp/3mjrB00.pdb
 163 152 0 0 0
SMALL
GASTEIGER

@<TRIPOS>ATOM
      1  N         31.1660   41.4250  -18.2330 N.3    11  ILE11      -0.1245
      2  CA        32.2170   41.7680  -17.2560 C.3    11  ILE11       0.1561
      3  C         33.1990   42.8070  -17.8110 C.2    11  ILE11       0.2260
      4  O         33.5010   42.8010  -19.0160 O.2    11  ILE11      -0.2867
      5  CB        33.0190   40.5200  -16.7710 C.3    11  ILE11       0.0252
      6  CG1       32.0710   39.4110  -16.3030 C.3    11  ILE11       0.0019
      7  CG2       34.0030   40.9070  -15.6510 C.3    11  ILE11       0.0019
      8  CD1       32.7840   38.1660  -15.7920 C.3    11  ILE11       0.0001
      9  N         26.0230   48.2800   -8.1450 N.3    34  GLU34      -0.1245
     10  CA        25.8430   46.8310   -8.0730 C.3    34  GLU34       0.1567
     11  C         26.4160   46.2530   -6.7640 C.2    34  GLU34       0.2260
     12  O         27.5410   46.5810   -6.3880 O.2    34  GLU34      -0.2867
     13  CB        26.4850   46.1780   -9.3020 C.3    34  GLU34       0.0388
     14  CG        26.8090   44.7060   -9.1670 C.3    34  GLU34       0.1160
     15  CD        26.8550   44.0010  -10.5060 C.2    34  GLU34       0.3649
     16  OE1       26.2470   42.9160  -10.6100 O.co2  34  GLU34      -0.2457
     17  OE2       27.4730   44.5350  -11.4590 O.co2  34  GLU34      -0.2457
     18  N         27.3020   43.0680   -6.0810 N.3    36  VAL36      -0.1231
     19  CA        28.3850   42.1040   -6.3040 C.3    36  VAL36       0.1692
     20  C         29.7490   42.7910   -6.2310 C.2    36  VAL36       0.2591
     21  O         30.5460   42.4960   -5.3330 O.2    36  VAL36      -0.2718
     22  CB        28.2070   41.3060   -7.6200 C.3    36  VAL36       0.0266
     23  CG1       29.4540   40.5020   -7.9370 C.3    36  VAL36       0.0020
     24  CG2       27.0010   40.3760   -7.5040 C.3    36  VAL36       0.0020
     25  N         30.0060   43.7210   -7.1520 N.am   37  ALA37      -0.1980
     26  CA        31.1760   44.5810   -7.0350 C.3    37  ALA37       0.1597
     27  C         31.1220   45.2190   -5.6550 C.2    37  ALA37       0.2287
     28  O         30.0440   45.5860   -5.1840 O.2    37  ALA37      -0.2864
     29  CB        31.1800   45.6400   -8.1170 C.3    37  ALA37       0.0319
     30  N         31.0450   35.2090   -1.9450 N.3    49  LEU49      -0.1245
     31  CA        31.8090   35.4600   -3.1640 C.3    49  LEU49       0.1561
     32  C         33.0700   34.5940   -3.2090 C.2    49  LEU49       0.2260
     33  O         33.3670   34.0000   -4.2400 O.2    49  LEU49      -0.2867
     34  CB        32.1420   36.9500   -3.3210 C.3    49  LEU49       0.0270
     35  CG        32.6700   37.5070   -4.6540 C.3    49  LEU49       0.0019
     36  CD1       31.8430   37.0640   -5.8570 C.3    49  LEU49       0.0001
     37  CD2       32.7330   39.0290   -4.6110 C.3    49  LEU49       0.0001
     38  N         32.0190   30.9310   -3.6440 N.3    52  MET52      -0.1230
     39  CA        31.4970   30.8590   -4.9900 C.3    52  MET52       0.1702
     40  C         32.6440   30.7760   -5.9870 C.2    52  MET52       0.2592
     41  O         32.5590   30.0370   -6.9720 O.2    52  MET52      -0.2718
     42  CB        30.6340   32.1010   -5.2360 C.3    52  MET52       0.0401
     43  CG        30.2040   32.3330   -6.6480 C.3    52  MET52       0.0596
     44  SD        29.0840   31.0810   -7.2820 S.3    52  MET52      -0.1393
     45  CE        28.6740   31.8890   -8.8190 C.3    52  MET52       0.0692
     46  N         33.7120   31.5370   -5.7260 N.am   53  TYR53      -0.1976
     47  CA        34.9530   31.4200   -6.4970 C.3    53  TYR53       0.1639
     48  C         35.5650   30.0510   -6.2770 C.2    53  TYR53       0.2290
     49  O         35.9550   29.3790   -7.2300 O.2    53  TYR53      -0.2864
     50  CB        35.9800   32.4990   -6.1080 C.3    53  TYR53       0.0560
     51  CG        35.8650   33.8130   -6.8550 C.ar   53  TYR53      -0.0198
     52  CD1       35.6160   35.0080   -6.1730 C.ar   53  TYR53      -0.0009
     53  CD2       36.0160   33.8670   -8.2400 C.ar   53  TYR53      -0.0009
     54  CE1       35.5140   36.2200   -6.8550 C.ar   53  TYR53       0.0417
     55  CE2       35.9160   35.0710   -8.9310 C.ar   53  TYR53       0.0417
     56  CZ        35.6670   36.2400   -8.2350 C.ar   53  TYR53       0.1957
     57  OH        35.5680   37.4250   -8.9300 O.3    53  TYR53      -0.2866
     58  N         24.4670   32.1710   -3.4800 N.3    63  PHE63      -0.1227
     59  CA        24.9930   33.4360   -4.0000 C.3    63  PHE63       0.1736
     60  C         24.0010   34.1750   -4.9090 C.2    63  PHE63       0.2595
     61  O         23.7690   35.3650   -4.7270 O.2    63  PHE63      -0.2718
     62  CB        26.3050   33.1990   -4.7620 C.3    63  PHE63       0.0547
     63  CG        26.9130   34.4550   -5.3390 C.ar   63  PHE63      -0.0202
     64  CD1       27.9250   35.1220   -4.6680 C.ar   63  PHE63      -0.0042
     65  CD2       26.4630   34.9720   -6.5500 C.ar   63  PHE63      -0.0042
     66  CE1       28.4840   36.2900   -5.1920 C.ar   63  PHE63      -0.0003
     67  CE2       27.0170   36.1430   -7.0900 C.ar   63  PHE63      -0.0003
     68  CZ        28.0270   36.8000   -6.4100 C.ar   63  PHE63      -0.0000
     69  N         23.4390   33.4850   -5.8980 N.am   64  GLN64      -0.1979
     70  CA        22.5420   34.1560   -6.8310 C.3    64  GLN64       0.1601
     71  C         21.2870   34.7150   -6.1290 C.2    64  GLN64       0.2287
     72  O         20.8450   35.8350   -6.4360 O.2    64  GLN64      -0.2864
     73  CB        22.2210   33.3000   -8.0620 C.3    64  GLN64       0.0394
     74  CG        23.4240   33.1160   -9.0410 C.3    64  GLN64       0.0908
     75  CD        24.0380   34.4350   -9.5510 C.2    64  GLN64       0.2608
     76  OE1       25.2370   34.5090   -9.8550 O.2    64  GLN64      -0.2717
     77  NE2       23.2210   35.4560   -9.6660 N.am   64  GLN64      -0.0878
     78  N         22.4420   37.8840   -3.8710 N.3    67  ALA67      -0.1245
     79  CA        22.7890   38.9820   -4.7650 C.3    67  ALA67       0.1562
     80  C         21.5610   39.7320   -5.2870 C.2    67  ALA67       0.2260
     81  O         21.5630   40.9650   -5.3060 O.2    67  ALA67      -0.2867
     82  CB        23.6460   38.4830   -5.9200 C.3    67  ALA67       0.0290
     83  N         20.3840   43.4830   -4.4910 N.3    71  ARG71      -0.1245
     84  CA        20.0680   44.4690   -5.5150 C.3    71  ARG71       0.1563
     85  C         18.6870   45.0810   -5.2640 C.2    71  ARG71       0.2260
     86  O         18.5420   46.3030   -5.2880 O.2    71  ARG71      -0.2867
     87  CB        20.1720   43.8790   -6.9330 C.3    71  ARG71       0.0307
     88  CG        20.2790   44.9530   -8.0260 C.3    71  ARG71       0.0489
     89  CD        20.5220   44.3820   -9.4470 C.3    71  ARG71       0.2205
     90  NE        21.5730   43.3630   -9.4670 N.pl3  71  ARG71      -0.0865
     91  CZ        22.8790   43.6160   -9.4570 C.cat  71  ARG71       0.5346
     92  NH1       23.3260   44.8640   -9.4570 N.pl3  71  ARG71       0.1354
     93  NH2       23.7450   42.6150   -9.4540 N.pl3  71  ARG71       0.1354
     94  N         23.4050   47.4230  -13.5110 N.3    95  ARG95      -0.1245
     95  CA        22.8560   46.0690  -13.7120 C.3    95  ARG95       0.1563
     96  C         21.4540   45.9060  -13.1100 C.2    95  ARG95       0.2260
     97  O         20.9130   46.8320  -12.5050 O.2    95  ARG95      -0.2867
     98  CB        23.8170   44.9710  -13.2220 C.3    95  ARG95       0.0307
     99  CG        24.9850   44.6820  -14.1730 C.3    95  ARG95       0.0489
    100  CD        25.6080   43.3060  -13.8890 C.3    95  ARG95       0.2205
    101  NE        26.2970   42.7250  -15.0430 N.pl3  95  ARG95      -0.0865
    102  CZ        27.6160   42.5150  -15.1210 C.cat  95  ARG95       0.5346
    103  NH1       28.4180   42.8320  -14.1060 N.pl3  95  ARG95       0.1354
    104  NH2       28.1400   41.9790  -16.2160 N.pl3  95  ARG95       0.1354
    105  N         20.6760   39.5550  -13.5610 N.3   100  ASP100     -0.1239
    106  CA        20.8580   38.6300  -12.4320 C.3   100  ASP100      0.1674
    107  C         20.4310   37.1940  -12.7960 C.2   100  ASP100      0.2266
    108  O         21.1660   36.2310  -12.5600 O.2   100  ASP100     -0.2867
    109  CB        20.0210   39.0870  -11.2360 C.3   100  ASP100      0.1410
    110  CG        20.7180   40.1140  -10.3760 C.2   100  ASP100      0.3668
    111  OD1       21.9480   40.2970  -10.5260 O.co2 100  ASP100     -0.2456
    112  OD2       20.0220   40.7320   -9.5310 O.co2 100  ASP100     -0.2456
    113  N         23.4940   35.7920  -15.4890 N.3   104  PHE104     -0.1241
    114  CA        24.4020   35.1650  -14.5120 C.3   104  PHE104      0.1605
    115  C         23.9140   33.8680  -13.8770 C.2   104  PHE104      0.2264
    116  O         24.6790   32.9200  -13.7510 O.2   104  PHE104     -0.2867
    117  CB        24.8050   36.1380  -13.3950 C.3   104  PHE104      0.0534
    118  CG        25.8700   37.1070  -13.7950 C.ar  104  PHE104     -0.0203
    119  CD1       25.6270   38.4770  -13.7610 C.ar  104  PHE104     -0.0042
    120  CD2       27.1230   36.6510  -14.2200 C.ar  104  PHE104     -0.0042
    121  CE1       26.6120   39.3780  -14.1370 C.ar  104  PHE104     -0.0003
    122  CE2       28.1100   37.5430  -14.6010 C.ar  104  PHE104     -0.0003
    123  CZ        27.8600   38.9190  -14.5570 C.ar  104  PHE104     -0.0000
    124  N         25.1750   29.7770  -14.8350 N.3   108  LEU108     -0.1245
    125  CA        25.5580   28.8370  -13.7920 C.3   108  LEU108      0.1561
    126  C         24.8420   27.5000  -13.8900 C.2   108  LEU108      0.2260
    127  O         25.4660   26.4600  -13.7440 O.2   108  LEU108     -0.2867
    128  CB        25.4050   29.4650  -12.4140 C.3   108  LEU108      0.0270
    129  CG        26.5420   30.4720  -12.1930 C.3   108  LEU108      0.0019
    130  CD1       26.1810   31.4310  -11.0860 C.3   108  LEU108      0.0001
    131  CD2       27.8750   29.7570  -11.9150 C.3   108  LEU108      0.0001
    132  N         42.8370   46.6310  -14.9490 N.3   158  ARG158     -0.1245
    133  CA        42.0000   46.8520  -13.7700 C.3   158  ARG158      0.1563
    134  C         42.7530   46.3640  -12.5390 C.2   158  ARG158      0.2260
    135  O         43.5650   47.0890  -11.9670 O.2   158  ARG158     -0.2867
    136  CB        40.6860   46.0770  -13.9200 C.3   158  ARG158      0.0307
    137  CG        39.5720   46.4730  -12.9700 C.3   158  ARG158      0.0489
    138  CD        38.5400   45.3650  -12.9020 C.3   158  ARG158      0.2205
    139  NE        37.1760   45.8870  -12.9500 N.pl3 158  ARG158     -0.0865
    140  CZ        36.0910   45.1460  -13.1500 C.cat 158  ARG158      0.5346
    141  NH1       36.1940   43.8320  -13.3090 N.pl3 158  ARG158      0.1354
    142  NH2       34.8990   45.7240  -13.1920 N.pl3 158  ARG158      0.1354
    143  N         40.1370   38.3350   -8.4510 N.3   163  GLU163     -0.1245
    144  CA        39.0890   38.2130   -9.4470 C.3   163  GLU163      0.1567
    145  C         39.6050   37.4050  -10.6300 C.2   163  GLU163      0.2260
    146  O         38.9130   36.5150  -11.1210 O.2   163  GLU163     -0.2867
    147  CB        38.6160   39.6030   -9.9000 C.3   163  GLU163      0.0388
    148  CG        37.8010   39.6270  -11.1920 C.3   163  GLU163      0.1160
    149  CD        37.1940   40.9940  -11.4710 C.2   163  GLU163      0.3649
    150  OE1       36.2240   41.3670  -10.7880 O.co2 163  GLU163     -0.2457
    151  OE2       37.6840   41.6890  -12.3780 O.co2 163  GLU163     -0.2457
    152  N         34.3980   32.0060  -21.6860 N.3   170  TYR170     -0.1241
    153  CA        33.4260   32.3660  -20.6560 C.3   170  TYR170      0.1605
    154  C         32.8820   33.7770  -20.9410 C.2   170  TYR170      0.2264
    155  O         31.6950   34.0470  -20.7260 O.2   170  TYR170     -0.2867
    156  CB        34.0660   32.2710  -19.2620 C.3   170  TYR170      0.0534
    157  CG        33.2330   32.8520  -18.1350 C.ar  170  TYR170     -0.0201
    158  CD1       32.2360   32.0960  -17.5010 C.ar  170  TYR170     -0.0009
    159  CD2       33.4490   34.1560  -17.6910 C.ar  170  TYR170     -0.0009
    160  CE1       31.4730   32.6400  -16.4600 C.ar  170  TYR170      0.0417
    161  CE2       32.6910   34.7060  -16.6620 C.ar  170  TYR170      0.0417
    162  CZ        31.7090   33.9490  -16.0520 C.ar  170  TYR170      0.1957
    163  OH        30.9730   34.5140  -15.0360 O.3   170  TYR170     -0.2866
@<TRIPOS>BOND
     1   152   153    1
     2   154   155    2
     3   154   153    1
     4   153   156    1
     5   156   157    1
     6     4     3    2
     7     1     2    1
     8   157   159   ar
     9   157   158   ar
    10     3     2    1
    11   159   161   ar
    12   158   160   ar
    13     2     5    1
    14     5     6    1
    15     5     7    1
    16   161   162   ar
    17   160   162   ar
    18     6     8    1
    19   104   102    1
    20   162   163    1
    21   113   114    1
    22   102   101    2
    23   102   103    1
    24   101   100    1
    25   132   133    1
    26   124   125    1
    27   122   123   ar
    28   122   120   ar
    29   123   121   ar
    30   114   115    1
    31   114   117    1
    32   120   118   ar
    33    99   100    1
    34    99    98    1
    35   121   119   ar
    36   136   133    1
    37   136   137    1
    38   126   125    1
    39   126   127    2
    40   115   116    2
    41   118   119   ar
    42   118   117    1
    43   125   128    1
    44   133   134    1
    45    95    94    1
    46    95    98    1
    47    95    96    1
    48   105   106    1
    49   141   140    1
    50   142   140    1
    51   140   139    2
    52    96    97    2
    53   137   138    1
    54   139   138    1
    55   107   108    2
    56   107   106    1
    57   134   135    2
    58   106   109    1
    59   128   129    1
    60   151   149   ar
    61   129   131    1
    62   129   130    1
    63   149   148    1
    64   149   150   ar
    65    17    15   ar
    66   109   110    1
    67   148   147    1
    68   146   145    2
    69   145   144    1
    70    16    15   ar
    71   111   110   ar
    72    15    14    1
    73   110   112   ar
    74   147   144    1
    75    76    75    2
    76    77    75   am
    77    75    74    1
    78    90    91    2
    79    90    89    1
    80    91    92    1
    81    91    93    1
    82   144   143    1
    83    89    88    1
    84    13    14    1
    85    13    10    1
    86    74    73    1
    87    55    53   ar
    88    55    56   ar
    89    57    56    1
    90    45    44    1
    91    53    51   ar
    92    56    54   ar
    93     9    10    1
    94    29    26    1
    95    10    11    1
    96    73    70    1
    97    88    87    1
    98    23    22    1
    99    22    24    1
   100    22    19    1
   101    44    43    1
   102    49    48    2
   103    25    26    1
   104    25    20   am
   105    67    65   ar
   106    67    68   ar
   107    26    27    1
   108    41    40    2
   109    87    84    1
   110    51    52   ar
   111    51    50    1
   112    54    52   ar
   113    70    71    1
   114    70    69    1
   115    11    12    2
   116    43    42    1
   117    65    63   ar
   118    47    48    1
   119    47    50    1
   120    47    46    1
   121    72    71    2
   122    68    66   ar
   123    19    20    1
   124    19    18    1
   125    20    21    2
   126    40    46   am
   127    40    39    1
   128    82    79    1
   129    69    60   am
   130    36    35    1
   131    27    28    2
   132    84    85    1
   133    84    83    1
   134    63    62    1
   135    63    64   ar
   136    81    80    2
   137    86    85    2
   138    80    79    1
   139    42    39    1
   140    66    64   ar
   141    39    38    1
   142    60    61    2
   143    60    59    1
   144    79    78    1
   145    62    59    1
   146    35    37    1
   147    35    34    1
   148    33    32    2
   149    59    58    1
   150    34    31    1
   151    32    31    1
   152    31    30    1
