@<TRIPOS>MOLECULE
tmp/3mjsA01.pdb
 111 104 0 0 0
SMALL
GASTEIGER

@<TRIPOS>ATOM
      1  N        -18.7940   11.3480  -22.8380 N.3   312  ALA312     -0.1245
      2  CA       -19.2980    9.9370  -22.8860 C.3   312  ALA312      0.1562
      3  C        -20.1740    9.6920  -24.0910 C.2   312  ALA312      0.2260
      4  O        -20.5510    8.5410  -24.3290 O.2   312  ALA312     -0.2867
      5  CB       -20.0900    9.5720  -21.6020 C.3   312  ALA312      0.0290
      6  N        -14.6700    6.1040  -14.2030 N.3   357  SER357     -0.1202
      7  CA       -16.0930    5.8230  -14.1850 C.3   357  SER357      0.2020
      8  C        -16.3100    4.3780  -13.7910 C.2   357  SER357      0.2619
      9  O        -15.4590    3.4800  -14.0780 O.2   357  SER357     -0.2717
     10  CB       -16.6390    6.0280  -15.5700 C.3   357  SER357      0.2103
     11  OG       -17.9750    5.5730  -15.5720 O.3   357  SER357     -0.2182
     12  N        -17.5060    4.1140  -13.2390 N.am  358  GLY358     -0.1942
     13  CA       -17.9080    2.6940  -12.9830 C.3   358  GLY358      0.2014
     14  C        -17.9430    1.9470  -14.2660 C.2   358  GLY358      0.2638
     15  O        -17.6870    0.7100  -14.2180 O.2   358  GLY358     -0.2714
     16  N        -18.1470    2.5900  -15.4280 N.am  359  ALA359     -0.1977
     17  CA       -18.0170    1.9110  -16.6760 C.3   359  ALA359      0.1597
     18  C        -16.6830    1.1810  -16.8450 C.2   359  ALA359      0.2287
     19  O        -16.6260    0.1140  -17.4690 O.2   359  ALA359     -0.2864
     20  CB       -18.2400    2.7930  -17.8630 C.3   359  ALA359      0.0319
     21  N        -20.1200   -1.3240  -18.2440 N.3   364  SER364     -0.1217
     22  CA       -21.4830   -0.8390  -18.5990 C.3   364  SER364      0.1889
     23  C        -21.7590   -1.1980  -20.0290 C.2   364  SER364      0.2288
     24  O        -21.0770   -0.7200  -20.9640 O.2   364  SER364     -0.2866
     25  CB       -21.5270    0.6970  -18.3960 C.3   364  SER364      0.2089
     26  OG       -21.2980    1.0530  -17.0450 O.3   364  SER364     -0.2183
     27  N        -21.1650    1.0130  -23.5060 N.3   367  GLN367     -0.1245
     28  CA       -20.1780    2.0520  -23.2740 C.3   367  GLN367      0.1566
     29  C        -18.7420    1.4330  -23.3890 C.2   367  GLN367      0.2260
     30  O        -17.8710    1.7610  -22.5270 O.2   367  GLN367     -0.2867
     31  CB       -20.3580    2.7020  -21.8720 C.3   367  GLN367      0.0367
     32  CG       -21.7390    3.2710  -21.6800 C.3   367  GLN367      0.0905
     33  CD       -21.8200    4.2080  -20.5370 C.2   367  GLN367      0.2608
     34  OE1      -21.3310    5.3930  -20.5660 O.2   367  GLN367     -0.2717
     35  NE2      -22.3750    3.7310  -19.4950 N.am  367  GLN367     -0.0878
     36  N        -15.9750    4.3700  -23.8230 N.3   370  TYR370     -0.1241
     37  CA       -15.8090    5.1420  -22.5890 C.3   370  TYR370      0.1605
     38  C        -15.1930    4.2710  -21.4900 C.2   370  TYR370      0.2264
     39  O        -14.3790    4.6940  -20.6960 O.2   370  TYR370     -0.2867
     40  CB       -17.1560    5.5970  -22.1940 C.3   370  TYR370      0.0534
     41  CG       -17.3650    6.4820  -20.9910 C.ar  370  TYR370     -0.0201
     42  CD1      -16.8620    7.8080  -20.9860 C.ar  370  TYR370     -0.0009
     43  CD2      -17.9620    5.9770  -19.8060 C.ar  370  TYR370     -0.0009
     44  CE1      -17.1280    8.6890  -19.8970 C.ar  370  TYR370      0.0417
     45  CE2      -18.1950    6.8740  -18.7860 C.ar  370  TYR370      0.0417
     46  CZ       -17.7070    8.1110  -18.8100 C.ar  370  TYR370      0.1957
     47  OH       -17.9720    8.9510  -17.7390 O.3   370  TYR370     -0.2866
     48  N        -16.2160    7.3850  -10.5730 N.3   396  TRP396     -0.1227
     49  CA       -17.5530    7.7880  -10.0870 C.3   396  TRP396      0.1737
     50  C        -18.5860    6.8480  -10.5780 C.2   396  TRP396      0.2592
     51  O        -18.5570    6.4450  -11.7620 O.2   396  TRP396     -0.2718
     52  CB       -17.8990    9.1580  -10.6190 C.3   396  TRP396      0.0564
     53  CG       -16.8620   10.2860  -10.2240 C.ar  396  TRP396      0.0003
     54  CD1      -16.0730   10.9990  -11.1000 C.ar  396  TRP396      0.0946
     55  CD2      -16.6610   10.8630   -8.9380 C.ar  396  TRP396      0.0152
     56  NE1      -15.4370   12.0260  -10.4290 N.ar  396  TRP396     -0.2442
     57  CE2      -15.7410   11.9300   -9.1070 C.ar  396  TRP396      0.0810
     58  CE3      -17.1270   10.5540   -7.6470 C.ar  396  TRP396      0.0012
     59  CZ2      -15.3160   12.7430   -8.0130 C.ar  396  TRP396      0.0191
     60  CZ3      -16.6360   11.3660   -6.5700 C.ar  396  TRP396      0.0001
     61  CH2      -15.7960   12.4070   -6.7660 C.ar  396  TRP396      0.0015
     62  N        -19.6160    6.7100   -9.7020 N.am  397  GLY397     -0.2014
     63  CA       -20.8720    6.1590  -10.1640 C.3   397  GLY397      0.1506
     64  C        -21.7310    7.0670  -10.9510 C.3   397  GLY397      0.2054
     65  O        -21.4920    7.1540  -12.2600 O.3   397  GLY397     -0.2184
     66  N        -22.8920   15.0880  -16.4040 N.3   404  MET404     -0.1230
     67  CA       -23.3040   14.3790  -17.6440 C.3   404  MET404      0.1702
     68  C        -24.5390   13.4490  -17.4280 C.2   404  MET404      0.2592
     69  O        -25.2010   13.0250  -18.4050 O.2   404  MET404     -0.2718
     70  CB       -22.0380   13.7600  -18.4190 C.3   404  MET404      0.0401
     71  CG       -21.0790   13.0300  -17.5760 C.3   404  MET404      0.0596
     72  SD       -19.9020   12.1150  -18.5870 S.3   404  MET404     -0.1393
     73  CE       -18.7950   13.2760  -19.2960 C.3   404  MET404      0.0692
     74  N        -24.8500   13.1120  -16.1780 N.am  405  ALA405     -0.1980
     75  CA       -25.9430   12.1680  -15.9420 C.3   405  ALA405      0.1597
     76  C        -27.2120   12.8360  -15.5670 C.2   405  ALA405      0.2287
     77  O        -28.1410   12.1440  -15.1540 O.2   405  ALA405     -0.2864
     78  CB       -25.5590   11.0790  -14.8600 C.3   405  ALA405      0.0319
     79  N        -30.0090    9.5490  -19.7950 N.3   410  VAL410     -0.1245
     80  CA       -28.7780    9.0320  -19.2290 C.3   410  VAL410      0.1561
     81  C        -28.9610    8.6710  -17.7250 C.2   410  VAL410      0.2260
     82  O        -28.4750    7.6150  -17.2790 O.2   410  VAL410     -0.2867
     83  CB       -27.6540   10.0740  -19.5380 C.3   410  VAL410      0.0252
     84  CG1      -27.1270   10.7020  -18.3140 C.3   410  VAL410      0.0019
     85  CG2      -26.5170    9.4650  -20.3500 C.3   410  VAL410      0.0019
     86  N        -31.5020    5.2750  -17.0880 N.3   413  ARG413     -0.1231
     87  CA       -30.9730    3.9380  -17.3290 C.3   413  ARG413      0.1694
     88  C        -29.9800    3.5060  -16.2250 C.2   413  ARG413      0.2591
     89  O        -29.9260    2.3250  -15.8830 O.2   413  ARG413     -0.2718
     90  CB       -30.3470    3.8370  -18.7270 C.3   413  ARG413      0.0321
     91  CG       -29.0940    4.7140  -18.9580 C.3   413  ARG413      0.0489
     92  CD       -28.6190    4.6990  -20.4280 C.3   413  ARG413      0.2205
     93  NE       -27.1570    4.6590  -20.5270 N.pl3 413  ARG413     -0.0865
     94  CZ       -26.4710    3.8140  -21.3100 C.cat 413  ARG413      0.5346
     95  NH1      -27.0960    2.9470  -22.0980 N.pl3 413  ARG413      0.1354
     96  NH2      -25.1420    3.8360  -21.3220 N.pl3 413  ARG413      0.1354
     97  N        -29.1890    4.4630  -15.7070 N.am  414  LEU414     -0.1980
     98  CA       -28.1730    4.1840  -14.6700 C.3   414  LEU414      0.1596
     99  C        -28.8970    3.8220  -13.3810 C.2   414  LEU414      0.2287
    100  O        -28.7020    2.7400  -12.8040 O.2   414  LEU414     -0.2864
    101  CB       -27.2150    5.3610  -14.4400 C.3   414  LEU414      0.0297
    102  CG       -26.3850    5.9610  -15.6070 C.3   414  LEU414      0.0022
    103  CD1      -25.0550    6.5030  -15.0680 C.3   414  LEU414      0.0001
    104  CD2      -26.1100    5.0080  -16.7580 C.3   414  LEU414      0.0001
    105  N        -27.3570    1.9450  -10.0910 N.3   419  VAL419     -0.1245
    106  CA       -26.2590    2.8900   -9.8550 C.3   419  VAL419      0.1561
    107  C        -26.9090    4.2750   -9.6100 C.2   419  VAL419      0.2260
    108  O        -27.1750    5.0710  -10.5500 O.2   419  VAL419     -0.2867
    109  CB       -25.2490    2.9090  -11.0750 C.3   419  VAL419      0.0252
    110  CG1      -24.0270    3.8050  -10.7410 C.3   419  VAL419      0.0019
    111  CG2      -24.8370    1.4870  -11.4740 C.3   419  VAL419      0.0019
@<TRIPOS>BOND
     1     4     3    2
     2     3     2    1
     3    36    37    1
     4    27    28    1
     5    29    28    1
     6    29    30    2
     7    28    31    1
     8     2     1    1
     9     2     5    1
    10    37    40    1
    11    37    38    1
    12    40    41    1
    13    95    94    1
    14    31    32    1
    15    32    33    1
    16    38    39    2
    17    96    94    1
    18    94    93    2
    19    41    42   ar
    20    41    43   ar
    21    42    44   ar
    22    24    23    2
    23    34    33    2
    24    33    35   am
    25    93    92    1
    26    92    91    1
    27    85    83    1
    28    23    22    1
    29    44    46   ar
    30    43    45   ar
    31    79    80    1
    32    83    80    1
    33    83    84    1
    34    73    72    1
    35    80    81    1
    36    91    90    1
    37    46    45   ar
    38    46    47    1
    39    90    87    1
    40    22    25    1
    41    22    21    1
    42    72    71    1
    43    70    67    1
    44    70    71    1
    45    69    68    2
    46    25    26    1
    47    20    17    1
    48    81    82    2
    49    67    68    1
    50    67    66    1
    51    19    18    2
    52    68    74   am
    53    87    86    1
    54    87    88    1
    55    18    17    1
    56   104   102    1
    57    17    16    1
    58    88    89    2
    59    88    97   am
    60    74    75    1
    61    75    76    1
    62    75    78    1
    63    97    98    1
    64   102   103    1
    65   102   101    1
    66    11    10    1
    67    10     7    1
    68    76    77    2
    69    16    14   am
    70    98   101    1
    71    98    99    1
    72    14    15    2
    73    14    13    1
    74     6     7    1
    75     7     8    1
    76     9     8    2
    77     8    12   am
    78    99   100    2
    79    12    13    1
    80    65    64    1
    81    51    50    2
    82   111   109    1
    83    54    56   ar
    84    54    53   ar
    85   109   110    1
    86   109   106    1
    87    64    63    1
    88    52    53    1
    89    52    49    1
    90    50    49    1
    91    50    62   am
    92    48    49    1
    93   108   107    2
    94    56    57   ar
    95    53    55   ar
    96    63    62    1
    97   105   106    1
    98   106   107    1
    99    57    55   ar
   100    57    59   ar
   101    55    58   ar
   102    59    61   ar
   103    58    60   ar
   104    61    60   ar
