@<TRIPOS>MOLECULE
tmp/3mjwA00.pdb
 217 204 0 0 0
SMALL
GASTEIGER

@<TRIPOS>ATOM
      1  N         53.5220   14.0270   41.3570 N.3   553  LYS553     -0.1245
      2  CA        52.9080   15.2270   41.9080 C.3   553  LYS553      0.1561
      3  C         51.4360   14.9920   42.2370 C.2   553  LYS553      0.2260
      4  O         50.9620   13.8540   42.2430 O.2   553  LYS553     -0.2867
      5  CB        53.0720   16.4020   40.9420 C.3   553  LYS553      0.0271
      6  CG        52.6040   16.1090   39.5310 C.3   553  LYS553      0.0035
      7  CD        53.1200   17.1370   38.5370 C.3   553  LYS553      0.0206
      8  CE        52.0320   17.5080   37.5420 C.3   553  LYS553      0.1093
      9  NZ        52.5710   17.8100   36.1870 N.3   553  LYS553     -0.1314
     10  N         48.1390   16.8000   40.8170 N.3   555  MET555     -0.1245
     11  CA        47.5340   17.7700   39.9080 C.3   555  MET555      0.1570
     12  C         46.7450   18.8830   40.5970 C.2   555  MET555      0.2261
     13  O         45.8050   18.6300   41.3500 O.2   555  MET555     -0.2867
     14  CB        46.6640   17.0590   38.8690 C.3   555  MET555      0.0387
     15  CG        47.3560   16.8580   37.5320 C.3   555  MET555      0.0595
     16  SD        46.8310   15.3620   36.6770 S.3   555  MET555     -0.1393
     17  CE        47.5840   14.1180   37.7180 C.3   555  MET555      0.0692
     18  N         44.2240   20.6810   40.1250 N.3   557  SER557     -0.1217
     19  CA        42.9850   20.8110   39.3700 C.3   557  SER557      0.1889
     20  C         41.8090   21.1180   40.2960 C.2   557  SER557      0.2288
     21  O         41.9800   21.2270   41.5080 O.2   557  SER557     -0.2866
     22  CB        42.7280   19.5410   38.5550 C.3   557  SER557      0.2089
     23  OG        43.4240   18.4350   39.1060 O.3   557  SER557     -0.2183
     24  N         43.5510   14.5880   41.5670 N.3   561  PRO561     -0.2116
     25  CA        44.0370   13.3490   40.9640 C.3   561  PRO561      0.1372
     26  C         45.5420   13.2410   41.1410 C.2   561  PRO561      0.2244
     27  O         46.2110   14.2480   41.3830 O.2   561  PRO561     -0.2868
     28  CB        43.7060   13.5320   39.4760 C.3   561  PRO561      0.0268
     29  CG        43.3240   15.0050   39.3100 C.3   561  PRO561      0.0207
     30  CD        43.6170   15.6980   40.6070 C.3   561  PRO561      0.0892
     31  N         49.5340   12.0900   39.9110 N.3   563  TRP563     -0.1241
     32  CA        50.3930   11.9970   38.7370 C.3   563  TRP563      0.1605
     33  C         51.5300   11.0210   39.0060 C.2   563  TRP563      0.2264
     34  O         52.6600   11.4270   39.2720 O.2   563  TRP563     -0.2867
     35  CB        50.9580   13.3730   38.3810 C.3   563  TRP563      0.0550
     36  CG        51.7490   13.4080   37.1030 C.ar  563  TRP563      0.0003
     37  CD1       53.0280   12.9700   36.9160 C.ar  563  TRP563      0.0946
     38  CD2       51.3160   13.9270   35.8380 C.ar  563  TRP563      0.0152
     39  NE1       53.4150   13.1730   35.6140 N.ar  563  TRP563     -0.2442
     40  CE2       52.3830   13.7600   34.9310 C.ar  563  TRP563      0.0810
     41  CE3       50.1310   14.5110   35.3830 C.ar  563  TRP563      0.0012
     42  CZ2       52.3000   14.1570   33.5990 C.ar  563  TRP563      0.0191
     43  CZ3       50.0500   14.9040   34.0590 C.ar  563  TRP563      0.0001
     44  CH2       51.1280   14.7250   33.1830 C.ar  563  TRP563      0.0015
     45  N         47.2530    8.3050   35.9710 N.3   582  ILE582     -0.1245
     46  CA        46.5450    9.3720   36.6690 C.3   582  ILE582      0.1561
     47  C         45.3450    8.8090   37.4200 C.2   582  ILE582      0.2260
     48  O         44.2920    8.5650   36.8310 O.2   582  ILE582     -0.2867
     49  CB        46.0510   10.4720   35.7130 C.3   582  ILE582      0.0252
     50  CG1       47.2170   11.0860   34.9440 C.3   582  ILE582      0.0019
     51  CG2       45.3160   11.5520   36.4860 C.3   582  ILE582      0.0019
     52  CD1       46.8060   12.2170   34.0250 C.3   582  ILE582      0.0001
     53  N         42.2290    9.2120   39.5350 N.3   584  LYS584     -0.1245
     54  CA        41.2910   10.3050   39.7510 C.3   584  LYS584      0.1561
     55  C         39.9910    9.8770   40.4270 C.2   584  LYS584      0.2260
     56  O         39.4370    8.8180   40.1360 O.2   584  LYS584     -0.2867
     57  CB        40.9850   11.0220   38.4340 C.3   584  LYS584      0.0271
     58  CG        39.9910   12.1580   38.5800 C.3   584  LYS584      0.0035
     59  CD        39.9780   13.0530   37.3560 C.3   584  LYS584      0.0206
     60  CE        39.2310   14.3450   37.6430 C.3   584  LYS584      0.1093
     61  NZ        39.2980   15.2970   36.5010 N.3   584  LYS584     -0.1314
     62  N         35.1630   12.1240   38.9030 N.3   587  ASP587     -0.1239
     63  CA        34.5450   11.9230   37.5960 C.3   587  ASP587      0.1674
     64  C         34.1350   10.4680   37.3940 C.2   587  ASP587      0.2266
     65  O         34.6490    9.5690   38.0570 O.2   587  ASP587     -0.2867
     66  CB        35.4900   12.3530   36.4710 C.3   587  ASP587      0.1410
     67  CG        35.6350   13.8600   36.3660 C.2   587  ASP587      0.3668
     68  OD1       34.7410   14.5840   36.8560 O.co2 587  ASP587     -0.2456
     69  OD2       36.6390   14.3220   35.7840 O.co2 587  ASP587     -0.2456
     70  N         34.5440    7.5760   35.0270 N.3   589  LEU589     -0.1245
     71  CA        35.3940    7.1440   33.9210 C.3   589  LEU589      0.1561
     72  C         34.7630    6.0380   33.0770 C.2   589  LEU589      0.2260
     73  O         35.3810    5.5360   32.1380 O.2   589  LEU589     -0.2867
     74  CB        36.7740    6.7110   34.4320 C.3   589  LEU589      0.0270
     75  CG        37.8110    7.8220   34.6410 C.3   589  LEU589      0.0019
     76  CD1       37.1770    9.1980   34.5080 C.3   589  LEU589      0.0001
     77  CD2       38.5160    7.6790   35.9800 C.3   589  LEU589      0.0001
     78  N         34.0040    7.8480   29.9340 N.3   592  ASP592     -0.1239
     79  CA        35.2340    8.0100   29.1710 C.3   592  ASP592      0.1674
     80  C         35.5350    6.7360   28.3890 C.2   592  ASP592      0.2266
     81  O         35.6740    6.7690   27.1650 O.2   592  ASP592     -0.2867
     82  CB        36.3990    8.3680   30.0950 C.3   592  ASP592      0.1410
     83  CG        36.2640    9.7590   30.6880 C.2   592  ASP592      0.3668
     84  OD1       35.1260   10.2680   30.7550 O.co2 592  ASP592     -0.2456
     85  OD2       37.2920   10.3440   31.0860 O.co2 592  ASP592     -0.2456
     86  N         36.2520    6.6380   24.3290 N.3   596  LEU596     -0.1245
     87  CA        37.5580    6.1790   23.8690 C.3   596  LEU596      0.1561
     88  C         37.4270    4.9230   23.0130 C.2   596  LEU596      0.2260
     89  O         38.1630    4.7390   22.0420 O.2   596  LEU596     -0.2867
     90  CB        38.4900    5.9080   25.0520 C.3   596  LEU596      0.0270
     91  CG        39.1860    7.0980   25.7200 C.3   596  LEU596      0.0019
     92  CD1       39.8880    7.9560   24.6790 C.3   596  LEU596      0.0001
     93  CD2       38.2100    7.9340   26.5250 C.3   596  LEU596      0.0001
     94  N         43.7030    7.2950   24.3080 N.3   618  TYR618     -0.1241
     95  CA        44.5150    6.7740   25.4000 C.3   618  TYR618      0.1605
     96  C         43.7450    5.7730   26.2540 C.2   618  TYR618      0.2264
     97  O         42.5140    5.7440   26.2420 O.2   618  TYR618     -0.2867
     98  CB        45.0230    7.9250   26.2690 C.3   618  TYR618      0.0534
     99  CG        43.9470    8.9100   26.6650 C.ar  618  TYR618     -0.0201
    100  CD1       43.4030    8.8890   27.9370 C.ar  618  TYR618     -0.0009
    101  CD2       43.4680    9.8550   25.7610 C.ar  618  TYR618     -0.0009
    102  CE1       42.4210    9.7800   28.3070 C.ar  618  TYR618      0.0417
    103  CE2       42.4800   10.7560   26.1230 C.ar  618  TYR618      0.0417
    104  CZ        41.9630   10.7090   27.4010 C.ar  618  TYR618      0.1957
    105  OH        40.9830   11.5900   27.7900 O.3   618  TYR618     -0.2866
    106  N         42.1310    4.0530   29.5770 N.3   620  CYS620     -0.1235
    107  CA        41.3200    4.6330   30.6430 C.3   620  CYS620      0.1677
    108  C         40.3590    3.5970   31.2180 C.2   620  CYS620      0.2270
    109  O         39.3870    3.2120   30.5700 O.2   620  CYS620     -0.2867
    110  CB        40.5370    5.8430   30.1230 C.3   620  CYS620      0.0956
    111  SG        39.3290    6.5160   31.2860 S.3   620  CYS620     -0.0801
    112  N         43.8870    6.7870   34.4100 N.3   630  ILE630     -0.1231
    113  CA        44.0480    7.2240   33.0280 C.3   630  ILE630      0.1692
    114  C         45.5030    7.0670   32.5880 C.2   630  ILE630      0.2592
    115  O         46.4180    7.1180   33.4110 O.2   630  ILE630     -0.2718
    116  CB        43.6020    8.6940   32.8420 C.3   630  ILE630      0.0266
    117  CG1       42.0990    8.8370   33.0970 C.3   630  ILE630      0.0019
    118  CG2       43.9440    9.1950   31.4470 C.3   630  ILE630      0.0020
    119  CD1       41.7580    9.4970   34.4150 C.3   630  ILE630      0.0001
    120  N         45.7080    6.8620   31.2910 N.am  631  GLU631     -0.1966
    121  CA        47.0500    6.7560   30.7300 C.3   631  GLU631      0.1733
    122  C         47.6150    8.1260   30.3620 C.2   631  GLU631      0.2616
    123  O         47.0090    8.8700   29.5910 O.2   631  GLU631     -0.2715
    124  CB        47.0370    5.8640   29.4900 C.3   631  GLU631      0.0429
    125  CG        48.3880    5.7300   28.8180 C.3   631  GLU631      0.1163
    126  CD        48.2730    5.2630   27.3830 C.2   631  GLU631      0.3649
    127  OE1       48.5520    4.0750   27.1170 O.co2 631  GLU631     -0.2457
    128  OE2       47.9060    6.0880   26.5210 O.co2 631  GLU631     -0.2457
    129  N         48.7840    8.4480   30.9060 N.am  632  ILE632     -0.1963
    130  CA        49.4220    9.7360   30.6450 C.3   632  ILE632      0.1727
    131  C         50.1030    9.7940   29.2810 C.2   632  ILE632      0.2616
    132  O         51.1380    9.1640   29.0690 O.2   632  ILE632     -0.2715
    133  CB        50.4670   10.0810   31.7230 C.3   632  ILE632      0.0290
    134  CG1       49.8010   10.1880   33.0930 C.3   632  ILE632      0.0022
    135  CG2       51.1840   11.3740   31.3720 C.3   632  ILE632      0.0023
    136  CD1       50.7590   10.5040   34.2200 C.3   632  ILE632      0.0001
    137  N         49.5200   10.5550   28.3600 N.am  633  VAL633     -0.1977
    138  CA        50.1620   10.8050   27.0750 C.3   633  VAL633      0.1596
    139  C         51.4750   11.5530   27.2960 C.2   633  VAL633      0.2287
    140  O         51.5140   12.5540   28.0060 O.2   633  VAL633     -0.2864
    141  CB        49.2530   11.6140   26.1270 C.3   633  VAL633      0.0276
    142  CG1       50.0840   12.3520   25.0920 C.3   633  VAL633      0.0022
    143  CG2       48.2380   10.7020   25.4540 C.3   633  VAL633      0.0022
    144  N         52.9070   15.8600   26.4390 N.3   636  ALA636     -0.1231
    145  CA        51.6870   16.5710   26.0680 C.3   636  ALA636      0.1694
    146  C         51.4120   17.7720   26.9700 C.2   636  ALA636      0.2593
    147  O         51.7960   17.7920   28.1390 O.2   636  ALA636     -0.2718
    148  CB        50.5000   15.6220   26.0700 C.3   636  ALA636      0.0304
    149  N         50.7390   18.7720   26.4100 N.am  637  THR637     -0.1939
    150  CA        50.3930   19.9740   27.1540 C.3   637  THR637      0.2028
    151  C         49.0020   20.4540   26.7490 C.2   637  THR637      0.2642
    152  O         48.5120   20.1160   25.6730 O.2   637  THR637     -0.2714
    153  CB        51.4160   21.0990   26.9040 C.3   637  THR637      0.1808
    154  OG1       52.7400   20.5490   26.8800 O.3   637  THR637     -0.2208
    155  CG2       51.3270   22.1560   27.9930 C.3   637  THR637      0.0379
    156  N         48.3690   21.2350   27.6170 N.am  638  THR638     -0.1950
    157  CA        47.0480   21.7840   27.3380 C.3   638  THR638      0.1897
    158  C         47.1790   23.1050   26.5870 C.2   638  THR638      0.2313
    159  O         48.1210   23.8630   26.8190 O.2   638  THR638     -0.2863
    160  CB        46.2580   22.0290   28.6430 C.3   638  THR638      0.1794
    161  OG1       46.2130   20.8250   29.4170 O.3   638  THR638     -0.2208
    162  CG2       44.8370   22.4820   28.3380 C.3   638  THR638      0.0378
    163  N         47.0890   25.8110   29.2740 N.3   641  LYS641     -0.1245
    164  CA        48.3840   26.0080   29.9100 C.3   641  LYS641      0.1561
    165  C         49.4030   26.5580   28.9130 C.2   641  LYS641      0.2260
    166  O         50.4950   26.9750   29.2970 O.2   641  LYS641     -0.2867
    167  CB        48.8940   24.6950   30.5040 C.3   641  LYS641      0.0271
    168  CG        49.1140   24.7180   32.0140 C.3   641  LYS641      0.0035
    169  CD        47.8710   24.2710   32.7700 C.3   641  LYS641      0.0206
    170  CE        48.1800   24.0240   34.2410 C.3   641  LYS641      0.1093
    171  NZ        48.5990   25.2690   34.9410 N.3   641  LYS641     -0.1314
    172  N         44.4240   18.9100   24.4340 N.3   696  MET696     -0.1245
    173  CA        45.8730   18.8590   24.5730 C.3   696  MET696      0.1570
    174  C         46.5880   18.6730   23.2400 C.2   696  MET696      0.2261
    175  O         45.9600   18.5090   22.1930 O.2   696  MET696     -0.2867
    176  CB        46.2840   17.7530   25.5440 C.3   696  MET696      0.0387
    177  CG        45.6020   17.8280   26.8980 C.3   696  MET696      0.0595
    178  SD        46.4060   16.7870   28.1290 S.3   696  MET696     -0.1393
    179  CE        47.9930   17.6070   28.2630 C.3   696  MET696      0.0692
    180  N         44.6690   16.0480   20.7510 N.3   704  PHE704     -0.1241
    181  CA        43.7740   15.0400   21.3140 C.3   704  PHE704      0.1605
    182  C         42.9300   15.5710   22.4750 C.2   704  PHE704      0.2264
    183  O         43.4310   16.2830   23.3450 O.2   704  PHE704     -0.2867
    184  CB        44.5630   13.8010   21.7460 C.3   704  PHE704      0.0534
    185  CG        45.5200   14.0510   22.8780 C.ar  704  PHE704     -0.0203
    186  CD1       45.2640   13.5460   24.1410 C.ar  704  PHE704     -0.0042
    187  CD2       46.6750   14.7900   22.6800 C.ar  704  PHE704     -0.0042
    188  CE1       46.1390   13.7700   25.1840 C.ar  704  PHE704     -0.0003
    189  CE2       47.5540   15.0180   23.7200 C.ar  704  PHE704     -0.0003
    190  CZ        47.2850   14.5070   24.9720 C.ar  704  PHE704     -0.0000
    191  N         40.3730   15.2160   25.8970 N.3   706  ILE706     -0.1231
    192  CA        40.4350   14.4720   27.1510 C.3   706  ILE706      0.1692
    193  C         39.2080   14.7300   28.0150 C.2   706  ILE706      0.2592
    194  O         38.3720   15.5720   27.6940 O.2   706  ILE706     -0.2718
    195  CB        41.6810   14.8440   27.9780 C.3   706  ILE706      0.0266
    196  CG1       41.7080   16.3530   28.2410 C.3   706  ILE706      0.0019
    197  CG2       42.9540   14.3790   27.2810 C.3   706  ILE706      0.0020
    198  CD1       42.5430   16.7480   29.4420 C.3   706  ILE706      0.0001
    199  N         39.1160   13.9940   29.1180 N.am  707  ASP707     -0.1960
    200  CA        38.0520   14.1740   30.1020 C.3   707  ASP707      0.1840
    201  C         36.6740   14.3890   29.4790 C.2   707  ASP707      0.2622
    202  O         36.1230   15.4870   29.5350 O.2   707  ASP707     -0.2715
    203  CB        38.3880   15.3270   31.0500 C.3   707  ASP707      0.1450
    204  CG        37.3190   15.5460   32.1020 C.2   707  ASP707      0.3671
    205  OD1       36.6360   14.5690   32.4690 O.co2 707  ASP707     -0.2456
    206  OD2       37.1610   16.6980   32.5600 O.co2 707  ASP707     -0.2456
    207  N         36.1250   13.3340   28.8880 N.am  708  PHE708     -0.1974
    208  CA        34.7720   13.3880   28.3530 C.3   708  PHE708      0.1639
    209  C         33.7830   13.1610   29.4860 C.2   708  PHE708      0.2290
    210  O         33.1050   12.1360   29.5310 O.2   708  PHE708     -0.2864
    211  CB        34.5730   12.3200   27.2750 C.3   708  PHE708      0.0560
    212  CG        35.7240   12.2000   26.3200 C.ar  708  PHE708     -0.0200
    213  CD1       36.7490   11.3040   26.5660 C.ar  708  PHE708     -0.0042
    214  CD2       35.7780   12.9750   25.1730 C.ar  708  PHE708     -0.0042
    215  CE1       37.8090   11.1850   25.6920 C.ar  708  PHE708     -0.0003
    216  CE2       36.8370   12.8590   24.2950 C.ar  708  PHE708     -0.0003
    217  CZ        37.8530   11.9620   24.5560 C.ar  708  PHE708     -0.0000
@<TRIPOS>BOND
     1   180   181    1
     2   181   184    1
     3   181   182    1
     4   184   185    1
     5    89    88    2
     6   175   174    2
     7   182   183    2
     8   187   185   ar
     9   187   189   ar
    10   185   186   ar
    11    88    87    1
    12   174   173    1
    13   189   190   ar
    14    87    86    1
    15    87    90    1
    16   186   188   ar
    17   216   217   ar
    18   216   214   ar
    19    94    95    1
    20   172   173    1
    21   217   215   ar
    22   173   176    1
    23    92    91    1
    24   190   188   ar
    25    90    91    1
    26   142   141    1
    27   214   212   ar
    28    95    96    1
    29    95    98    1
    30   143   141    1
    31   176   177    1
    32   152   151    2
    33   215   213   ar
    34    91    93    1
    35   101   103   ar
    36   101    99   ar
    37   191   192    1
    38   145   148    1
    39   145   144    1
    40   145   146    1
    41   103   104   ar
    42   141   138    1
    43    97    96    2
    44    98    99    1
    45   212   213   ar
    46   212   211    1
    47   149   146   am
    48   149   150    1
    49   128   126   ar
    50   158   159    2
    51   158   157    1
    52    99   100   ar
    53   151   150    1
    54   151   156   am
    55   154   153    1
    56   177   178    1
    57   153   150    1
    58   153   155    1
    59   146   147    2
    60   138   139    1
    61   138   137    1
    62   127   126   ar
    63   192   195    1
    64   192   193    1
    65    81    80    2
    66   211   208    1
    67   197   195    1
    68   139   140    2
    69   157   156    1
    70   157   160    1
    71   126   125    1
    72   104   105    1
    73   104   102   ar
    74   194   193    2
    75   100   102   ar
    76   195   196    1
    77   193   199   am
    78   178   179    1
    79   196   198    1
    80   162   160    1
    81   208   207    1
    82   208   209    1
    83   137   131   am
    84    80    79    1
    85   160   161    1
    86   125   124    1
    87   207   201   am
    88   165   166    2
    89   165   164    1
    90   132   131    2
    91   199   200    1
    92    79    78    1
    93    79    82    1
    94   163   164    1
    95   131   130    1
    96   201   202    2
    97   201   200    1
    98   209   210    2
    99   124   121    1
   100   106   107    1
   101   123   122    2
   102   164   167    1
   103    82    83    1
   104   200   203    1
   105   110   107    1
   106   110   111    1
   107   122   121    1
   108   122   129   am
   109   167   168    1
   110   109   108    2
   111   107   108    1
   112   130   129    1
   113   130   133    1
   114    83    84   ar
   115    83    85   ar
   116   121   120    1
   117   203   204    1
   118   120   114   am
   119   135   133    1
   120   118   116    1
   121   133   134    1
   122   168   169    1
   123   204   205   ar
   124   204   206   ar
   125    73    72    2
   126   114   113    1
   127   114   115    2
   128   169   170    1
   129   116   113    1
   130   116   117    1
   131   113   112    1
   132    72    71    1
   133   134   136    1
   134   117   119    1
   135    44    42   ar
   136    44    43   ar
   137    42    40   ar
   138    71    74    1
   139    71    70    1
   140    52    50    1
   141    43    41   ar
   142   170   171    1
   143    74    75    1
   144    76    75    1
   145    75    77    1
   146    40    39   ar
   147    40    38   ar
   148    50    49    1
   149    41    38   ar
   150    39    37   ar
   151    49    51    1
   152    49    46    1
   153    69    67   ar
   154    38    36   ar
   155    45    46    1
   156     9     8    1
   157    67    66    1
   158    67    68   ar
   159    66    63    1
   160    61    60    1
   161    46    47    1
   162    16    15    1
   163    16    17    1
   164    48    47    2
   165    37    36   ar
   166    36    35    1
   167    59    60    1
   168    59    58    1
   169    64    63    1
   170    64    65    2
   171    15    14    1
   172     8     7    1
   173    63    62    1
   174    35    32    1
   175    57    58    1
   176    57    54    1
   177     7     6    1
   178    22    23    1
   179    22    19    1
   180    32    33    1
   181    32    31    1
   182    14    11    1
   183    33    34    2
   184    29    28    1
   185    29    30    1
   186    19    18    1
   187    19    20    1
   188    28    25    1
   189     6     5    1
   190    53    54    1
   191    54    55    1
   192    11    12    1
   193    11    10    1
   194    56    55    2
   195    20    21    2
   196    12    13    2
   197    30    24    1
   198     5     2    1
   199    25    26    1
   200    25    24    1
   201    26    27    2
   202     1     2    1
   203     2     3    1
   204     3     4    2
