@<TRIPOS>MOLECULE
tmp/3mk6C00.pdb
 139 138 0 0 0
SMALL
GASTEIGER

@<TRIPOS>ATOM
      1  N        -25.8640  -10.8910   -8.7720 N.3   232  LYS232     -0.1245
      2  CA       -25.5880   -9.5640   -9.3030 C.3   232  LYS232      0.1561
      3  C        -24.1960   -9.6120   -9.9730 C.2   232  LYS232      0.2260
      4  O        -23.2160  -10.0300   -9.3430 O.2   232  LYS232     -0.2867
      5  CB       -25.6030   -8.5370   -8.1690 C.3   232  LYS232      0.0271
      6  CG       -25.1900   -7.1340   -8.5920 C.3   232  LYS232      0.0035
      7  CD       -25.2510   -6.1330   -7.4460 C.3   232  LYS232      0.0206
      8  CE       -26.6710   -5.5990   -7.1750 C.3   232  LYS232      0.1093
      9  NZ       -26.6780   -4.7820   -5.9090 N.3   232  LYS232     -0.1314
     10  N        -20.8770   -8.0430  -12.2680 N.3   234  VAL234     -0.1245
     11  CA       -20.1160   -6.7940  -12.3790 C.3   234  VAL234      0.1561
     12  C        -20.7970   -5.7720  -13.3170 C.2   234  VAL234      0.2260
     13  O        -20.8300   -4.5840  -12.9980 O.2   234  VAL234     -0.2867
     14  CB       -18.6560   -7.0750  -12.7850 C.3   234  VAL234      0.0252
     15  CG1      -17.9210   -5.8020  -13.2410 C.3   234  VAL234      0.0019
     16  CG2      -17.8730   -7.7550  -11.5890 C.3   234  VAL234      0.0019
     17  N        -23.4810   -3.4170  -11.8750 N.3   237  ILE237     -0.1231
     18  CA       -23.0220   -2.2980  -11.0640 C.3   237  ILE237      0.1692
     19  C        -22.3930   -1.2210  -11.9450 C.2   237  ILE237      0.2592
     20  O        -22.7050   -0.0240  -11.7890 O.2   237  ILE237     -0.2718
     21  CB       -22.0080   -2.7860  -10.0100 C.3   237  ILE237      0.0266
     22  CG1      -22.6690   -3.8370   -9.0970 C.3   237  ILE237      0.0019
     23  CG2      -21.4120   -1.6070   -9.2080 C.3   237  ILE237      0.0020
     24  CD1      -21.6540   -4.6130   -8.2120 C.3   237  ILE237      0.0001
     25  N        -21.5330   -1.6400  -12.8780 N.am  238  TYR238     -0.1976
     26  CA       -20.7450   -0.6930  -13.6690 C.3   238  TYR238      0.1639
     27  C        -21.1960   -0.4110  -15.0830 C.2   238  TYR238      0.2290
     28  O        -20.5810    0.4290  -15.7570 O.2   238  TYR238     -0.2864
     29  CB       -19.2770   -1.1440  -13.7000 C.3   238  TYR238      0.0560
     30  CG       -18.7290   -1.2090  -12.3060 C.ar  238  TYR238     -0.0198
     31  CD1      -18.2510   -0.0520  -11.6710 C.ar  238  TYR238     -0.0009
     32  CD2      -18.7290   -2.4080  -11.5980 C.ar  238  TYR238     -0.0009
     33  CE1      -17.7790   -0.1010  -10.3660 C.ar  238  TYR238      0.0417
     34  CE2      -18.2580   -2.4710  -10.2790 C.ar  238  TYR238      0.0417
     35  CZ       -17.7940   -1.3250   -9.6680 C.ar  238  TYR238      0.1957
     36  OH       -17.3200   -1.3920   -8.3710 O.3   238  TYR238     -0.2866
     37  N        -15.4870   -3.5460  -14.9730 N.3   242  TYR242     -0.1241
     38  CA       -14.9170   -2.6180  -14.0320 C.3   242  TYR242      0.1605
     39  C        -13.4760   -2.4100  -14.5240 C.2   242  TYR242      0.2264
     40  O        -12.5600   -3.1450  -14.1420 O.2   242  TYR242     -0.2867
     41  CB       -15.0220   -3.1670  -12.5950 C.3   242  TYR242      0.0534
     42  CG       -14.6340   -2.1940  -11.5010 C.ar  242  TYR242     -0.0201
     43  CD1      -14.4240   -0.8500  -11.7820 C.ar  242  TYR242     -0.0009
     44  CD2      -14.5560   -2.6110  -10.1640 C.ar  242  TYR242     -0.0009
     45  CE1      -14.0720    0.0430  -10.7920 C.ar  242  TYR242      0.0417
     46  CE2      -14.2170   -1.7200   -9.1530 C.ar  242  TYR242      0.0417
     47  CZ       -13.9830   -0.3970   -9.4750 C.ar  242  TYR242      0.1957
     48  OH       -13.6360    0.5020   -8.5160 O.3   242  TYR242     -0.2866
     49  N        -11.9400   -6.2020  -13.7980 N.3   247  LEU247     -0.1245
     50  CA       -13.0070   -7.1940  -13.6430 C.3   247  LEU247      0.1561
     51  C        -13.9300   -7.1480  -14.8480 C.2   247  LEU247      0.2260
     52  O        -14.4930   -6.0890  -15.1680 O.2   247  LEU247     -0.2867
     53  CB       -13.8340   -6.9320  -12.3940 C.3   247  LEU247      0.0270
     54  CG       -13.2710   -7.2900  -11.0250 C.3   247  LEU247      0.0019
     55  CD1      -14.0910   -6.5820   -9.9560 C.3   247  LEU247      0.0001
     56  CD2      -13.2970   -8.8470  -10.7960 C.3   247  LEU247      0.0001
     57  N        -19.0340   -9.8520  -16.9980 N.3   250  TRP250     -0.1227
     58  CA       -19.6970  -11.1370  -16.7300 C.3   250  TRP250      0.1737
     59  C        -19.2840  -11.8150  -15.4150 C.2   250  TRP250      0.2595
     60  O        -19.9190  -12.7880  -14.9930 O.2   250  TRP250     -0.2718
     61  CB       -19.5210  -12.1000  -17.9140 C.3   250  TRP250      0.0564
     62  CG       -18.0600  -12.2610  -18.3440 C.ar  250  TRP250      0.0003
     63  CD1      -17.4570  -11.6810  -19.4360 C.ar  250  TRP250      0.0946
     64  CD2      -17.0580  -13.0460  -17.7120 C.ar  250  TRP250      0.0152
     65  NE1      -16.1310  -12.0430  -19.5020 N.ar  250  TRP250     -0.2442
     66  CE2      -15.8570  -12.8790  -18.4580 C.ar  250  TRP250      0.0810
     67  CE3      -17.0340  -13.8480  -16.5680 C.ar  250  TRP250      0.0012
     68  CZ2      -14.6710  -13.5050  -18.1120 C.ar  250  TRP250      0.0191
     69  CZ3      -15.8420  -14.4580  -16.2070 C.ar  250  TRP250      0.0001
     70  CH2      -14.6770  -14.2930  -16.9800 C.ar  250  TRP250      0.0015
     71  N        -18.2330  -11.3220  -14.7510 N.am  251  ALA251     -0.1966
     72  CA       -17.8990  -11.8620  -13.4300 C.3   251  ALA251      0.1728
     73  C        -19.0390  -11.6070  -12.4220 C.2   251  ALA251      0.2616
     74  O        -19.7960  -10.6290  -12.5380 O.2   251  ALA251     -0.2715
     75  CB       -16.5840  -11.2990  -12.9280 C.3   251  ALA251      0.0334
     76  N        -19.1980  -12.5280  -11.4670 N.am  252  VAL252     -0.1963
     77  CA       -20.2110  -12.3570  -10.4330 C.3   252  VAL252      0.1727
     78  C        -19.6890  -11.3410   -9.4060 C.2   252  VAL252      0.2616
     79  O        -18.6240  -11.5190   -8.8470 O.2   252  VAL252     -0.2715
     80  CB       -20.6060  -13.6830   -9.7530 C.3   252  VAL252      0.0290
     81  CG1      -21.6360  -13.4060   -8.6750 C.3   252  VAL252      0.0023
     82  CG2      -21.1640  -14.6960  -10.7840 C.3   252  VAL252      0.0023
     83  N        -20.4340  -10.2700   -9.1770 N.am  253  ALA253     -0.1963
     84  CA       -20.0360   -9.3100   -8.1570 C.3   253  ALA253      0.1728
     85  C        -20.5380   -9.7730   -6.7810 C.2   253  ALA253      0.2616
     86  O        -19.8080   -9.7140   -5.7930 O.2   253  ALA253     -0.2715
     87  CB       -20.5880   -7.9340   -8.4990 C.3   253  ALA253      0.0334
     88  N        -21.7830  -10.2300   -6.7290 N.am  254  SER254     -0.1950
     89  CA       -22.4230  -10.6200   -5.4590 C.3   254  SER254      0.1924
     90  C        -23.3650  -11.7930   -5.7310 C.2   254  SER254      0.2314
     91  O        -24.3710  -11.6310   -6.4310 O.2   254  SER254     -0.2863
     92  CB       -23.1990   -9.4300   -4.8850 C.3   254  SER254      0.2116
     93  OG       -23.9300   -9.7690   -3.7100 O.3   254  SER254     -0.2180
     94  N        -17.6770  -21.8060   -7.6020 N.3   283  ASN283     -0.1240
     95  CA       -16.7180  -20.6870   -7.7410 C.3   283  ASN283      0.1653
     96  C        -15.8910  -20.4590   -6.4650 C.2   283  ASN283      0.2266
     97  O        -14.6900  -20.1600   -6.5430 O.2   283  ASN283     -0.2867
     98  CB       -17.4020  -19.3910   -8.1430 C.3   283  ASN283      0.1155
     99  CG       -17.7420  -19.3400   -9.6460 C.2   283  ASN283      0.2627
    100  OD1      -17.2870  -20.1740  -10.4430 O.2   283  ASN283     -0.2716
    101  ND2      -18.5880  -18.4010  -10.0130 N.am  283  ASN283     -0.0877
    102  N        -14.1020  -24.8250  -14.5570 N.3   320  TYR320     -0.1241
    103  CA       -14.2700  -23.4350  -14.9780 C.3   320  TYR320      0.1605
    104  C        -13.7430  -22.5060  -13.8790 C.2   320  TYR320      0.2264
    105  O        -12.9990  -21.5480  -14.1420 O.2   320  TYR320     -0.2867
    106  CB       -15.7420  -23.1490  -15.2090 C.3   320  TYR320      0.0534
    107  CG       -16.0230  -21.6860  -15.4380 C.ar  320  TYR320     -0.0201
    108  CD1      -15.8500  -21.1270  -16.7000 C.ar  320  TYR320     -0.0009
    109  CD2      -16.4420  -20.8610  -14.3990 C.ar  320  TYR320     -0.0009
    110  CE1      -16.0940  -19.7810  -16.9460 C.ar  320  TYR320      0.0417
    111  CE2      -16.6870  -19.5000  -14.6350 C.ar  320  TYR320      0.0417
    112  CZ       -16.5100  -18.9860  -15.9200 C.ar  320  TYR320      0.1957
    113  OH       -16.7230  -17.6480  -16.1870 O.3   320  TYR320     -0.2866
    114  N        -10.6020  -19.9330  -13.9350 N.3   324  TYR324     -0.1227
    115  CA       -10.8330  -18.5180  -13.7280 C.3   324  TYR324      0.1736
    116  C         -9.8620  -17.8940  -12.6950 C.2   324  TYR324      0.2595
    117  O         -9.1660  -16.8960  -12.9610 O.2   324  TYR324     -0.2718
    118  CB       -12.3080  -18.2440  -13.3090 C.3   324  TYR324      0.0548
    119  CG       -12.4900  -16.8070  -12.8920 C.ar  324  TYR324     -0.0200
    120  CD1      -12.7300  -15.8100  -13.8380 C.ar  324  TYR324     -0.0009
    121  CD2      -12.3570  -16.4320  -11.5510 C.ar  324  TYR324     -0.0009
    122  CE1      -12.8610  -14.4620  -13.4440 C.ar  324  TYR324      0.0417
    123  CE2      -12.4980  -15.1120  -11.1440 C.ar  324  TYR324      0.0417
    124  CZ       -12.7390  -14.1340  -12.0980 C.ar  324  TYR324      0.1957
    125  OH       -12.8770  -12.8430  -11.6870 O.3   324  TYR324     -0.2866
    126  N         -9.8320  -18.4770  -11.4970 N.am  325  TRP325     -0.1976
    127  CA        -9.0520  -17.9150  -10.4210 C.3   325  TRP325      0.1640
    128  C         -7.5440  -18.0250  -10.6790 C.2   325  TRP325      0.2290
    129  O         -6.7980  -17.1870  -10.2150 O.2   325  TRP325     -0.2864
    130  CB        -9.3800  -18.6150   -9.1090 C.3   325  TRP325      0.0576
    131  CG       -10.7830  -18.3090   -8.5970 C.ar  325  TRP325      0.0006
    132  CD1      -11.8460  -19.1650   -8.5940 C.ar  325  TRP325      0.0946
    133  CD2      -11.2570  -17.0750   -8.0410 C.ar  325  TRP325      0.0152
    134  NE1      -12.9530  -18.5540   -8.0490 N.ar  325  TRP325     -0.2442
    135  CE2      -12.6180  -17.2720   -7.6890 C.ar  325  TRP325      0.0810
    136  CE3      -10.6590  -15.8280   -7.7780 C.ar  325  TRP325      0.0012
    137  CZ2      -13.4040  -16.2690   -7.1000 C.ar  325  TRP325      0.0191
    138  CZ3      -11.4440  -14.8150   -7.1850 C.ar  325  TRP325      0.0001
    139  CH2      -12.7990  -15.0510   -6.8460 C.ar  325  TRP325      0.0015
@<TRIPOS>BOND
     1    65    63   ar
     2    65    66   ar
     3    63    62   ar
     4    66    68   ar
     5    66    64   ar
     6    62    61    1
     7    62    64   ar
     8    68    70   ar
     9    61    58    1
    10    64    67   ar
    11    57    58    1
    12    70    69   ar
    13   110   108   ar
    14   110   112   ar
    15    58    59    1
    16   108   107   ar
    17    67    69   ar
    18   113   112    1
    19   112   111   ar
    20    28    27    2
    21   107   106    1
    22   107   109   ar
    23    59    60    2
    24    59    71   am
    25   106   103    1
    26    52    51    2
    27    27    26    1
    28   103   102    1
    29   103   104    1
    30    37    38    1
    31    51    50    1
    32    71    72    1
    33   111   109   ar
    34    39    40    2
    35    39    38    1
    36   105   104    2
    37    38    41    1
    38   114   115    1
    39   120   122   ar
    40   120   119   ar
    41    49    50    1
    42   115   118    1
    43   115   116    1
    44    29    26    1
    45    29    30    1
    46    26    25    1
    47    50    53    1
    48   122   124   ar
    49    72    75    1
    50    72    73    1
    51    12    13    2
    52    12    11    1
    53   118   119    1
    54    15    14    1
    55   117   116    2
    56   119   121   ar
    57    25    19   am
    58    14    11    1
    59    14    16    1
    60   116   126   am
    61    41    42    1
    62    74    73    2
    63    73    76   am
    64    53    54    1
    65    11    10    1
    66    30    31   ar
    67    30    32   ar
    68   124   125    1
    69   124   123   ar
    70    19    20    2
    71    19    18    1
    72    17    18    1
    73    43    42   ar
    74    43    45   ar
    75    31    33   ar
    76    32    34   ar
    77   121   123   ar
    78    42    44   ar
    79   126   127    1
    80    76    77    1
    81    18    21    1
    82    54    56    1
    83    54    55    1
    84    45    47   ar
    85    82    80    1
    86   128   127    1
    87   128   129    2
    88   100    99    2
    89    77    80    1
    90    77    78    1
    91   127   130    1
    92    33    35   ar
    93    34    35   ar
    94    44    46   ar
    95   101    99   am
    96    21    23    1
    97    21    22    1
    98     3     4    2
    99     3     2    1
   100    80    81    1
   101    35    36    1
   102    99    98    1
   103    47    46   ar
   104    47    48    1
   105    78    83   am
   106    78    79    2
   107     2     1    1
   108     2     5    1
   109    83    84    1
   110   130   131    1
   111    22    24    1
   112   131   132   ar
   113   131   133   ar
   114   132   134   ar
   115     6     5    1
   116     6     7    1
   117    87    84    1
   118    84    85    1
   119    98    95    1
   120   134   135   ar
   121   133   136   ar
   122   133   135   ar
   123   136   138   ar
   124    95    94    1
   125    95    96    1
   126   135   137   ar
   127     7     8    1
   128   138   139   ar
   129     8     9    1
   130   137   139   ar
   131    85    88   am
   132    85    86    2
   133    88    89    1
   134    97    96    2
   135    91    90    2
   136    90    89    1
   137    89    92    1
   138    92    93    1
