@<TRIPOS>MOLECULE
tmp/3mk6C01.pdb
 184 171 0 0 0
SMALL
GASTEIGER

@<TRIPOS>ATOM
      1  N        -16.0760  -49.9230    1.9570 N.3    12  ASP12      -0.1239
      2  CA       -16.3150  -48.5740    2.3870 C.3    12  ASP12       0.1674
      3  C        -17.8180  -48.5730    2.6000 C.2    12  ASP12       0.2266
      4  O        -18.5780  -48.6700    1.6330 O.2    12  ASP12      -0.2867
      5  CB       -15.8430  -47.6520    1.2560 C.3    12  ASP12       0.1410
      6  CG       -16.1940  -46.1890    1.4730 C.2    12  ASP12       0.3668
      7  OD1      -16.5200  -45.7720    2.6140 O.co2  12  ASP12      -0.2456
      8  OD2      -16.1160  -45.4300    0.4830 O.co2  12  ASP12      -0.2456
      9  N        -21.1400  -46.9410    3.5250 N.3    14  GLY14      -0.1225
     10  CA       -21.8810  -45.6950    3.6410 C.3    14  GLY14       0.1811
     11  C        -23.2080  -45.9310    4.3470 C.2    14  GLY14       0.2280
     12  O        -23.5370  -47.0610    4.7210 O.2    14  GLY14      -0.2866
     13  N        -19.3310  -49.4890   -0.9820 N.3    19  LYS19      -0.1245
     14  CA       -18.4150  -49.6010   -2.1290 C.3    19  LYS19       0.1561
     15  C        -17.4250  -50.7060   -1.7870 C.2    19  LYS19       0.2260
     16  O        -16.8040  -50.6650   -0.7330 O.2    19  LYS19      -0.2867
     17  CB       -17.6590  -48.2820   -2.3340 C.3    19  LYS19       0.0271
     18  CG       -18.4730  -47.1330   -2.9810 C.3    19  LYS19       0.0035
     19  CD       -19.5990  -46.6500   -2.0550 C.3    19  LYS19       0.0206
     20  CE       -19.0560  -45.8880   -0.8050 C.3    19  LYS19       0.1093
     21  NZ       -20.1330  -45.6520    0.2720 N.3    19  LYS19      -0.1314
     22  N        -13.9400  -49.0010    6.1100 N.3   101  THR101     -0.1203
     23  CA       -14.0640  -47.5650    6.3310 C.3   101  THR101      0.1994
     24  C        -15.5110  -47.1120    6.0950 C.2   101  THR101      0.2618
     25  O        -16.3930  -47.9680    5.9210 O.2   101  THR101     -0.2717
     26  CB       -13.0520  -46.7430    5.5090 C.3   101  THR101      0.1784
     27  OG1      -13.1220  -45.3780    5.9310 O.3   101  THR101     -0.2211
     28  CG2      -13.3170  -46.8280    4.0030 C.3   101  THR101      0.0376
     29  N        -15.7620  -45.7970    6.1670 N.am  102  GLY102     -0.1942
     30  CA       -17.0580  -45.2490    5.7510 C.3   102  GLY102      0.2014
     31  C        -17.9570  -44.8170    6.9020 C.2   102  GLY102      0.2639
     32  O        -17.8470  -45.3180    8.0260 O.2   102  GLY102     -0.2714
     33  N        -18.8680  -43.9050    6.5980 N.am  103  GLY103     -0.1954
     34  CA       -19.7760  -43.3270    7.6040 C.3   103  GLY103      0.1869
     35  C        -20.8110  -44.2730    8.1840 C.2   103  GLY103      0.2309
     36  O        -21.4160  -43.9850    9.2230 O.2   103  GLY103     -0.2863
     37  N        -19.6480  -48.0880   11.7950 N.3   106  TYR106     -0.1241
     38  CA       -19.9800  -48.2860   13.2240 C.3   106  TYR106      0.1605
     39  C        -21.4440  -48.6820   13.4170 C.2   106  TYR106      0.2264
     40  O        -21.7550  -49.6160   14.1420 O.2   106  TYR106     -0.2867
     41  CB       -19.7060  -47.0210   14.0380 C.3   106  TYR106      0.0534
     42  CG       -18.2600  -46.7470   14.3980 C.ar  106  TYR106     -0.0201
     43  CD1      -17.7350  -45.4590   14.2680 C.ar  106  TYR106     -0.0009
     44  CD2      -17.4230  -47.7550   14.8900 C.ar  106  TYR106     -0.0009
     45  CE1      -16.4130  -45.1740   14.6030 C.ar  106  TYR106      0.0417
     46  CE2      -16.0880  -47.4820   15.2330 C.ar  106  TYR106      0.0417
     47  CZ       -15.5970  -46.1850   15.0830 C.ar  106  TYR106      0.1957
     48  OH       -14.2940  -45.8780   15.4250 O.3   106  TYR106     -0.2866
     49  N        -12.2540  -50.4110   12.3550 N.3   119  LYS119     -0.1231
     50  CA       -12.6580  -49.2220   11.6160 C.3   119  LYS119      0.1693
     51  C        -11.4290  -48.4860   11.1000 C.2   119  LYS119      0.2592
     52  O        -10.5090  -48.1930   11.8570 O.2   119  LYS119     -0.2718
     53  CB       -13.5100  -48.3230   12.5120 C.3   119  LYS119      0.0285
     54  CG       -13.8770  -46.9790   11.9110 C.3   119  LYS119      0.0035
     55  CD       -14.9950  -47.1010   10.8950 C.3   119  LYS119      0.0206
     56  CE       -15.2400  -45.7720   10.2180 C.3   119  LYS119      0.1093
     57  NZ       -15.5450  -44.7050   11.2300 N.3   119  LYS119     -0.1314
     58  N        -11.4220  -48.1920    9.8040 N.am  120  LEU120     -0.1966
     59  CA       -10.3410  -47.4180    9.2090 C.3   120  LEU120      0.1728
     60  C        -10.7580  -45.9800    8.8530 C.2   120  LEU120      0.2616
     61  O        -11.9360  -45.7040    8.5810 O.2   120  LEU120     -0.2715
     62  CB        -9.7700  -48.1510    7.9930 C.3   120  LEU120      0.0311
     63  CG        -9.3650  -49.5980    8.2290 C.3   120  LEU120      0.0022
     64  CD1       -9.2110  -50.3310    6.9160 C.3   120  LEU120      0.0001
     65  CD2       -8.0950  -49.6600    9.0630 C.3   120  LEU120      0.0001
     66  N         -9.7890  -45.0590    8.8670 N.am  121  ASP121     -0.1957
     67  CA       -10.0950  -43.6420    8.6310 C.3   121  ASP121      0.1840
     68  C        -10.3220  -43.3940    7.1490 C.2   121  ASP121      0.2622
     69  O         -9.5150  -43.8320    6.3340 O.2   121  ASP121     -0.2715
     70  CB        -8.9720  -42.7300    9.1410 C.3   121  ASP121      0.1450
     71  CG        -9.2770  -41.2700    8.8840 C.2   121  ASP121      0.3671
     72  OD1       -9.0760  -40.8000    7.7430 O.co2 121  ASP121     -0.2456
     73  OD2       -9.7870  -40.6070    9.8100 O.co2 121  ASP121     -0.2456
     74  N        -11.4060  -42.6940    6.8050 N.am  122  GLU122     -0.1963
     75  CA       -11.7800  -42.4700    5.3990 C.3   122  GLU122      0.1733
     76  C        -10.7440  -41.6540    4.6070 C.2   122  GLU122      0.2616
     77  O        -10.4420  -41.9650    3.4480 O.2   122  GLU122     -0.2715
     78  CB       -13.1820  -41.8450    5.2700 C.3   122  GLU122      0.0429
     79  CG       -13.6300  -41.6230    3.8170 C.3   122  GLU122      0.1163
     80  CD       -13.9680  -42.9380    3.1040 C.2   122  GLU122      0.3649
     81  OE1      -15.0880  -43.4580    3.3280 O.co2 122  GLU122     -0.2457
     82  OE2      -13.1170  -43.4350    2.3140 O.co2 122  GLU122     -0.2457
     83  N        -10.1910  -40.6240    5.2300 N.am  123  LEU123     -0.1977
     84  CA        -9.1990  -39.7790    4.5350 C.3   123  LEU123      0.1596
     85  C         -7.8610  -40.5020    4.3210 C.2   123  LEU123      0.2287
     86  O         -7.2540  -40.3650    3.2720 O.2   123  LEU123     -0.2864
     87  CB        -8.9960  -38.4440    5.2700 C.3   123  LEU123      0.0297
     88  CG       -10.1520  -37.4410    5.1970 C.3   123  LEU123      0.0022
     89  CD1       -9.7340  -36.1110    5.8480 C.3   123  LEU123      0.0001
     90  CD2      -10.5970  -37.1830    3.7680 C.3   123  LEU123      0.0001
     91  N        -11.2790  -32.6250   -1.4550 N.3   173  ASN173     -0.1240
     92  CA       -12.2980  -33.6180   -1.1790 C.3   173  ASN173      0.1653
     93  C        -13.6330  -32.9590   -0.8500 C.2   173  ASN173      0.2266
     94  O        -13.7790  -32.3250    0.2020 O.2   173  ASN173     -0.2867
     95  CB       -11.7890  -34.4850   -0.0280 C.3   173  ASN173      0.1155
     96  CG       -12.7050  -35.6230    0.3280 C.2   173  ASN173      0.2627
     97  OD1      -13.6540  -35.9840   -0.4010 O.2   173  ASN173     -0.2716
     98  ND2      -12.4050  -36.2370    1.4620 N.am  173  ASN173     -0.0877
     99  N        -17.3430  -33.4120    0.0430 N.3   175  GLY175     -0.1210
    100  CA       -18.5280  -34.1420    0.5270 C.3   175  GLY175      0.1956
    101  C        -19.5570  -33.1680    1.0070 C.2   175  GLY175      0.2613
    102  O        -19.8840  -32.2360    0.2870 O.2   175  GLY175     -0.2717
    103  N        -20.0930  -33.3710    2.2140 N.am  176  SER176     -0.1938
    104  CA       -20.9660  -32.3580    2.8070 C.3   176  SER176      0.2055
    105  C        -20.2000  -31.0180    2.9510 C.2   176  SER176      0.2644
    106  O        -20.7530  -29.9250    2.7090 O.2   176  SER176     -0.2714
    107  CB       -21.5720  -32.8400    4.1540 C.3   176  SER176      0.2130
    108  OG       -20.5720  -32.9450    5.1900 O.3   176  SER176     -0.2179
    109  N        -18.9470  -31.1350    3.3700 N.am  177  GLY177     -0.1939
    110  CA       -18.0150  -30.0290    3.4390 C.3   177  GLY177      0.2014
    111  C        -16.8060  -30.3430    2.5760 C.2   177  GLY177      0.2639
    112  O        -16.8060  -31.3090    1.8060 O.2   177  GLY177     -0.2714
    113  N        -15.7710  -29.5230    2.6840 N.am  178  VAL178     -0.1963
    114  CA       -14.5940  -29.6560    1.8320 C.3   178  VAL178      0.1727
    115  C        -13.3170  -29.7510    2.6770 C.2   178  VAL178      0.2616
    116  O        -13.0740  -28.8920    3.5390 O.2   178  VAL178     -0.2715
    117  CB       -14.4640  -28.4560    0.8860 C.3   178  VAL178      0.0290
    118  CG1      -13.1870  -28.6080    0.0210 C.3   178  VAL178      0.0023
    119  CG2      -15.7490  -28.3120   -0.0200 C.3   178  VAL178      0.0023
    120  N        -12.5050  -30.7870    2.4320 N.am  179  SER179     -0.1950
    121  CA       -11.1880  -30.9090    3.0570 C.3   179  SER179      0.1924
    122  C        -10.1420  -30.8430    1.9790 C.2   179  SER179      0.2314
    123  O        -10.2950  -31.4520    0.9140 O.2   179  SER179     -0.2863
    124  CB       -11.0200  -32.2400    3.7950 C.3   179  SER179      0.2116
    125  OG       -11.6180  -32.2160    5.0580 O.3   179  SER179     -0.2180
    126  N         -4.1060  -32.5040    6.1070 N.3   191  ARG191     -0.1245
    127  CA        -5.2040  -31.6190    5.7760 C.3   191  ARG191      0.1563
    128  C         -4.7300  -30.2010    6.0510 C.2   191  ARG191      0.2260
    129  O         -4.4670  -29.8150    7.1980 O.2   191  ARG191     -0.2867
    130  CB        -6.4320  -31.9540    6.6160 C.3   191  ARG191      0.0307
    131  CG        -7.6350  -31.0870    6.3070 C.3   191  ARG191      0.0489
    132  CD        -8.7340  -31.3680    7.3100 C.3   191  ARG191      0.2205
    133  NE        -9.9840  -30.6980    6.9450 N.pl3 191  ARG191     -0.0865
    134  CZ       -10.2350  -29.4140    7.2080 C.cat 191  ARG191      0.5346
    135  NH1       -9.3150  -28.6640    7.8280 N.pl3 191  ARG191      0.1354
    136  NH2      -11.3920  -28.8850    6.8430 N.pl3 191  ARG191      0.1354
    137  N         -9.7570  -26.3060    4.6680 N.3   194  GLY194     -0.1210
    138  CA       -11.0090  -26.7530    4.1170 C.3   194  GLY194      0.1956
    139  C        -11.9870  -25.5850    4.0460 C.2   194  GLY194      0.2613
    140  O        -11.6070  -24.4160    4.2540 O.2   194  GLY194     -0.2717
    141  N        -13.2280  -25.8980    3.7450 N.am  195  THR195     -0.1938
    142  CA       -14.3060  -24.9110    3.7450 C.3   195  THR195      0.2028
    143  C        -15.5710  -25.6430    4.1280 C.2   195  THR195      0.2642
    144  O        -15.7730  -26.7810    3.7480 O.2   195  THR195     -0.2714
    145  CB       -14.4450  -24.0910    2.3850 C.3   195  THR195      0.1808
    146  OG1      -15.7190  -23.4220    2.3290 O.3   195  THR195     -0.2208
    147  CG2      -14.3590  -24.9200    1.2060 C.3   195  THR195      0.0379
    148  N        -16.4370  -25.0000    4.8930 N.am  196  SER196     -0.1949
    149  CA       -17.6940  -25.6590    5.2420 C.3   196  SER196      0.1924
    150  C        -18.7270  -25.4690    4.1300 C.2   196  SER196      0.2314
    151  O        -19.8760  -25.9300    4.2640 O.2   196  SER196     -0.2863
    152  CB       -18.2340  -25.1390    6.5660 C.3   196  SER196      0.2116
    153  OG       -18.3710  -23.7460    6.5130 O.3   196  SER196     -0.2180
    154  N        -14.7430  -36.7910   -4.2560 N.3   305  GLY305     -0.1210
    155  CA       -15.8420  -36.6860   -3.2510 C.3   305  GLY305      0.1956
    156  C        -17.2110  -36.9390   -3.8640 C.2   305  GLY305      0.2611
    157  O        -17.3840  -36.8210   -5.0880 O.2   305  GLY305     -0.2717
    158  N        -18.2200  -37.1950   -3.0230 N.am  306  ASN306     -0.1974
    159  CA       -19.5640  -37.5280   -3.5240 C.3   306  ASN306      0.1688
    160  C        -20.2700  -36.4090   -4.2810 C.2   306  ASN306      0.2292
    161  O        -21.2160  -36.6630   -5.0370 O.2   306  ASN306     -0.2864
    162  CB       -20.4460  -38.0480   -2.3760 C.3   306  ASN306      0.1181
    163  CG       -20.5290  -37.0770   -1.2180 C.2   306  ASN306      0.2629
    164  OD1      -20.6700  -35.8670   -1.4150 O.2   306  ASN306     -0.2716
    165  ND2      -20.4750  -37.6000    0.0080 N.am  306  ASN306     -0.0877
    166  N        -20.2760  -37.1640   -8.0680 N.3   309  ARG309     -0.1245
    167  CA       -20.6340  -38.5040   -8.5150 C.3   309  ARG309      0.1563
    168  C        -21.8990  -38.5890   -9.3530 C.2   309  ARG309      0.2260
    169  O        -22.1770  -39.6410   -9.9290 O.2   309  ARG309     -0.2867
    170  CB       -20.6870  -39.4450   -7.3190 C.3   309  ARG309      0.0307
    171  CG       -19.3110  -39.7350   -6.7980 C.3   309  ARG309      0.0489
    172  CD       -19.2660  -40.7630   -5.6450 C.3   309  ARG309      0.2205
    173  NE       -18.0340  -40.5220   -4.8990 N.pl3 309  ARG309     -0.0865
    174  CZ       -17.8900  -40.6870   -3.5900 C.cat 309  ARG309      0.5346
    175  NH1      -18.9180  -41.0840   -2.8500 N.pl3 309  ARG309      0.1354
    176  NH2      -16.7160  -40.4220   -3.0110 N.pl3 309  ARG309      0.1354
    177  N        -14.7190  -42.4900   -6.1050 N.3   339  GLY339     -0.1225
    178  CA       -15.7920  -43.2090   -5.4470 C.3   339  GLY339      0.1811
    179  C        -15.3380  -44.5310   -4.8710 C.2   339  GLY339      0.2280
    180  O        -15.9990  -45.0330   -3.9900 O.2   339  GLY339     -0.2866
    181  N        -11.5340  -45.1290   -1.1340 N.3   342  GLY342     -0.1225
    182  CA       -11.7140  -45.6520    0.2350 C.3   342  GLY342      0.1811
    183  C        -11.6990  -47.1840    0.3120 C.2   342  GLY342      0.2280
    184  O        -10.9810  -47.7610    1.1390 O.2   342  GLY342     -0.2866
@<TRIPOS>BOND
     1   169   168    2
     2   168   167    1
     3   167   166    1
     4   167   170    1
     5   170   171    1
     6   171   172    1
     7   177   178    1
     8   172   173    1
     9   178   179    1
    10   157   156    2
    11   161   160    2
    12   173   174    2
    13   179   180    2
    14   160   159    1
    15   154   155    1
    16   156   155    1
    17   156   158   am
    18   174   176    1
    19   174   175    1
    20   159   158    1
    21   159   162    1
    22    18    17    1
    23    18    19    1
    24   162   163    1
    25    17    14    1
    26    14    15    1
    27    14    13    1
    28    19    20    1
    29    15    16    2
    30    91    92    1
    31   164   163    2
    32   163   165   am
    33    92    93    1
    34    92    95    1
    35   181   182    1
    36    93    94    2
    37    20    21    1
    38    97    96    2
    39    95    96    1
    40   119   117    1
    41   118   117    1
    42    99   100    1
    43   182   183    1
    44   102   101    2
    45   183   184    2
    46    96    98   am
    47     8     6   ar
    48   100   101    1
    49   117   114    1
    50   123   122    2
    51   101   103   am
    52   147   145    1
    53     5     6    1
    54     5     2    1
    55     6     7   ar
    56     4     3    2
    57   112   111    2
    58   114   115    1
    59   114   113    1
    60     1     2    1
    61   122   121    1
    62   103   104    1
    63    82    80   ar
    64   146   145    1
    65   145   142    1
    66     2     3    1
    67   120   115   am
    68   120   121    1
    69   111   113   am
    70   111   110    1
    71   115   116    2
    72   106   105    2
    73   104   105    1
    74   104   107    1
    75   105   109   am
    76   121   124    1
    77    80    81   ar
    78    80    79    1
    79    86    85    2
    80   109   110    1
    81    77    76    2
    82     9    10    1
    83    10    11    1
    84   142   141    1
    85   142   143    1
    86   141   139   am
    87   144   143    2
    88    90    88    1
    89   124   125    1
    90    79    78    1
    91    28    26    1
    92   139   138    1
    93   139   140    2
    94   138   137    1
    95   143   148   am
    96   150   151    2
    97   150   149    1
    98   107   108    1
    99    85    84    1
   100    11    12    2
   101    84    83    1
   102    84    87    1
   103    76    83   am
   104    76    75    1
   105   148   149    1
   106    88    87    1
   107    88    89    1
   108   149   152    1
   109    78    75    1
   110    75    74    1
   111    26    27    1
   112    26    23    1
   113    30    29    1
   114    30    31    1
   115   127   128    1
   116   127   126    1
   117   127   130    1
   118    25    24    2
   119   128   129    2
   120    24    29   am
   121    24    23    1
   122    22    23    1
   123   131   130    1
   124   131   132    1
   125    69    68    2
   126   153   152    1
   127    33    31   am
   128    33    34    1
   129    74    68   am
   130   136   134    1
   131    31    32    2
   132    64    63    1
   133   133   134    2
   134   133   132    1
   135    68    67    1
   136   134   135    1
   137    34    35    1
   138    72    71   ar
   139    62    63    1
   140    62    59    1
   141    35    36    2
   142    63    65    1
   143    61    60    2
   144    67    66    1
   145    67    70    1
   146    60    66   am
   147    60    59    1
   148    71    70    1
   149    71    73   ar
   150    59    58    1
   151    58    51   am
   152    56    55    1
   153    56    57    1
   154    55    54    1
   155    51    50    1
   156    51    52    2
   157    50    49    1
   158    50    53    1
   159    37    38    1
   160    54    53    1
   161    38    39    1
   162    38    41    1
   163    39    40    2
   164    41    42    1
   165    43    42   ar
   166    43    45   ar
   167    42    44   ar
   168    45    47   ar
   169    44    46   ar
   170    47    46   ar
   171    47    48    1
