@<TRIPOS>MOLECULE
tmp/3mk7K01.pdb
 223 220 0 0 0
SMALL
GASTEIGER

@<TRIPOS>ATOM
      1  N         47.9710  122.7500  123.1610 N.3    55  TYR55      -0.1241
      2  CA        47.4930  121.6880  124.0500 C.3    55  TYR55       0.1605
      3  C         46.4610  120.7740  123.3620 C.2    55  TYR55       0.2264
      4  O         46.3630  119.5580  123.6150 O.2    55  TYR55      -0.2867
      5  CB        46.8740  122.3640  125.2490 C.3    55  TYR55       0.0534
      6  CG        46.3990  121.4830  126.3590 C.ar   55  TYR55      -0.0201
      7  CD1       47.1630  121.3080  127.5030 C.ar   55  TYR55      -0.0009
      8  CD2       45.1450  120.8930  126.3050 C.ar   55  TYR55      -0.0009
      9  CE1       46.7040  120.5340  128.5530 C.ar   55  TYR55       0.0417
     10  CE2       44.6760  120.1130  127.3370 C.ar   55  TYR55       0.0417
     11  CZ        45.4470  119.9350  128.4540 C.ar   55  TYR55       0.1957
     12  OH        44.9110  119.1510  129.4480 O.3    55  TYR55      -0.2866
     13  N         48.4670  118.6610  120.4440 N.3    58  GLU58      -0.1231
     14  CA        49.3720  117.6600  120.9750 C.3    58  GLU58       0.1699
     15  C         48.6830  116.4660  121.6390 C.2    58  GLU58       0.2593
     16  O         49.3030  115.4060  121.8470 O.2    58  GLU58      -0.2718
     17  CB        50.3750  118.2910  121.9170 C.3    58  GLU58       0.0402
     18  CG        51.4080  119.1730  121.2130 C.3    58  GLU58       0.1161
     19  CD        52.0770  118.5410  119.9780 C.2    58  GLU58       0.3649
     20  OE1       52.0490  117.2950  119.7750 O.co2  58  GLU58      -0.2457
     21  OE2       52.6680  119.3160  119.2060 O.co2  58  GLU58      -0.2457
     22  N         47.4030  116.6350  121.9580 N.am   59  GLY59      -0.1942
     23  CA        46.6020  115.5640  122.5150 C.3    59  GLY59       0.2014
     24  C         46.7120  115.4700  124.0110 C.2    59  GLY59       0.2639
     25  O         46.4080  114.4380  124.5950 O.2    59  GLY59      -0.2714
     26  N         47.1280  116.5600  124.6350 N.am   60  CYS60      -0.1967
     27  CA        47.3880  116.5800  126.0700 C.3    60  CYS60       0.1712
     28  C         46.1840  116.0700  126.8340 C.2    60  CYS60       0.2296
     29  O         46.3200  115.3690  127.8340 O.2    60  CYS60      -0.2864
     30  CB        47.7240  118.0020  126.5290 C.3    60  CYS60       0.0983
     31  SG        49.1720  118.7600  125.7280 S.3    60  CYS60      -0.0798
     32  N         44.2430  113.7160  126.2460 N.3    62  GLY62      -0.1210
     33  CA        44.1830  112.2590  126.3440 C.3    62  GLY62       0.1956
     34  C         44.8590  111.6400  127.5630 C.2    62  GLY62       0.2612
     35  O         44.6930  110.4440  127.8470 O.2    62  GLY62      -0.2717
     36  N         45.6560  112.4340  128.2680 N.am   63  CYS63      -0.1956
     37  CA        46.2460  111.9830  129.5270 C.3    63  CYS63       0.1843
     38  C         45.8320  112.8760  130.7100 C.2    63  CYS63       0.2625
     39  O         45.9730  112.4710  131.8650 O.2    63  CYS63      -0.2714
     40  CB        47.7690  111.9500  129.4420 C.3    63  CYS63       0.0997
     41  SG        48.5350  110.6480  128.4940 S.3    63  CYS63      -0.0797
     42  N         45.3300  114.0790  130.4240 N.am   64  HIS64      -0.1973
     43  CA        45.1310  115.0940  131.4510 C.3    64  HIS64       0.1656
     44  C         43.6870  115.6580  131.4940 C.2    64  HIS64       0.2291
     45  O         43.2060  116.2830  130.5310 O.2    64  HIS64      -0.2864
     46  CB        46.1250  116.2630  131.2720 C.3    64  HIS64       0.0771
     47  CG        47.5680  115.9540  131.6020 C.ar   64  HIS64       0.0820
     48  ND1       48.0050  115.6670  132.8780 N.ar   64  HIS64      -0.2267
     49  CD2       48.6840  115.9730  130.8270 C.ar   64  HIS64       0.1154
     50  CE1       49.3150  115.4750  132.8670 C.ar   64  HIS64       0.1986
     51  NE2       49.7560  115.6660  131.6370 N.ar   64  HIS64      -0.2212
     52  N         44.2550  118.7990  144.3890 N.3    78  TYR78      -0.1241
     53  CA        44.3480  119.7270  143.2680 C.3    78  TYR78       0.1605
     54  C         43.9120  121.1390  143.5520 C.2    78  TYR78       0.2264
     55  O         44.3540  122.0680  142.8770 O.2    78  TYR78      -0.2867
     56  CB        43.5580  119.2250  142.0700 C.3    78  TYR78       0.0534
     57  CG        44.0360  117.9240  141.4960 C.ar   78  TYR78      -0.0201
     58  CD1       43.2360  116.8010  141.5610 C.ar   78  TYR78      -0.0009
     59  CD2       45.2860  117.8100  140.8700 C.ar   78  TYR78      -0.0009
     60  CE1       43.6540  115.5990  141.0250 C.ar   78  TYR78       0.0417
     61  CE2       45.7130  116.6030  140.3290 C.ar   78  TYR78       0.0417
     62  CZ        44.8830  115.5090  140.4110 C.ar   78  TYR78       0.1957
     63  OH        45.2500  114.3000  139.8980 O.3    78  TYR78      -0.2866
     64  N         45.9150  109.8350  132.9260 N.3   100  THR100     -0.1203
     65  CA        47.1690  109.1080  132.8680 C.3   100  THR100      0.1994
     66  C         48.1930  109.9470  133.6440 C.2   100  THR100      0.2618
     67  O         48.9580  109.4180  134.4560 O.2   100  THR100     -0.2717
     68  CB        47.6080  108.8380  131.4290 C.3   100  THR100      0.1784
     69  OG1       46.6880  107.9280  130.8010 O.3   100  THR100     -0.2211
     70  CG2       48.9830  108.2250  131.4290 C.3   100  THR100      0.0376
     71  N         48.1790  111.2560  133.4020 N.am  101  GLY101     -0.1942
     72  CA        48.8700  112.2190  134.2580 C.3   101  GLY101      0.1998
     73  C         47.8510  112.9260  135.1400 C.2   101  GLY101      0.2481
     74  O         46.6500  112.6750  135.0090 O.2   101  GLY101     -0.2729
     75  N         48.3040  113.8200  136.0390 N.am  102  PRO102     -0.2715
     76  CA        47.4030  114.4550  136.9730 C.3   102  PRO102      0.1536
     77  C         46.4490  115.4200  136.2940 C.2   102  PRO102      0.2599
     78  O         46.5830  115.7200  135.0980 O.2   102  PRO102     -0.2715
     79  CB        48.3380  115.2430  137.8890 C.3   102  PRO102      0.0310
     80  CG        49.6330  114.7290  137.6360 C.3   102  PRO102      0.0237
     81  CD        49.6580  114.3210  136.2160 C.3   102  PRO102      0.0939
     82  N         45.4790  115.8890  137.0750 N.am  103  ASP103     -0.1958
     83  CA        44.5480  116.9000  136.6280 C.3   103  ASP103      0.1840
     84  C         45.2820  118.2250  136.4890 C.2   103  ASP103      0.2621
     85  O         46.1250  118.5500  137.3190 O.2   103  ASP103     -0.2715
     86  CB        43.3960  117.0100  137.6150 C.3   103  ASP103      0.1450
     87  CG        42.3110  117.9180  137.1180 C.2   103  ASP103      0.3671
     88  OD1       42.5350  119.1360  137.1530 O.co2 103  ASP103     -0.2456
     89  OD2       41.2470  117.4290  136.6840 O.co2 103  ASP103     -0.2456
     90  N         44.9870  118.9750  135.4310 N.am  104  LEU104     -0.1977
     91  CA        45.6350  120.2660  135.2020 C.3   104  LEU104      0.1596
     92  C         44.7050  121.4630  135.3860 C.2   104  LEU104      0.2287
     93  O         45.0610  122.5820  135.0240 O.2   104  LEU104     -0.2864
     94  CB        46.2320  120.3050  133.8050 C.3   104  LEU104      0.0297
     95  CG        47.2070  119.2030  133.3990 C.3   104  LEU104      0.0022
     96  CD1       47.5960  119.4030  131.9490 C.3   104  LEU104      0.0001
     97  CD2       48.4680  119.1680  134.2800 C.3   104  LEU104      0.0001
     98  N         46.7830  123.8390  137.5780 N.3   107  VAL107     -0.1245
     99  CA        48.2440  123.9960  137.5360 C.3   107  VAL107      0.1561
    100  C         48.6500  125.4550  137.6170 C.2   107  VAL107      0.2260
    101  O         49.8340  125.7690  137.7830 O.2   107  VAL107     -0.2867
    102  CB        48.9290  123.3360  136.3530 C.3   107  VAL107      0.0252
    103  CG1       49.2310  121.9070  136.7050 C.3   107  VAL107      0.0019
    104  CG2       48.1190  123.4890  135.0710 C.3   107  VAL107      0.0019
    105  N         53.6860  125.7560  139.5470 N.3   111  TYR111     -0.1241
    106  CA        55.0670  125.5360  139.1410 C.3   111  TYR111      0.1605
    107  C         55.5440  126.7290  138.3530 C.2   111  TYR111      0.2264
    108  O         54.7430  127.4360  137.7560 O.2   111  TYR111     -0.2867
    109  CB        55.2280  124.2860  138.2880 C.3   111  TYR111      0.0534
    110  CG        54.4810  123.0810  138.7720 C.ar  111  TYR111     -0.0201
    111  CD1       53.1330  122.9010  138.4640 C.ar  111  TYR111     -0.0009
    112  CD2       55.1260  122.0970  139.4960 C.ar  111  TYR111     -0.0009
    113  CE1       52.4420  121.7790  138.8920 C.ar  111  TYR111      0.0417
    114  CE2       54.4560  120.9550  139.9120 C.ar  111  TYR111      0.0417
    115  CZ        53.1170  120.8070  139.6130 C.ar  111  TYR111      0.1957
    116  OH        52.4650  119.6780  140.0420 O.3   111  TYR111     -0.2866
    117  N         60.2310  125.4090  135.2950 N.3   115  TRP115     -0.1227
    118  CA        59.9590  124.0130  135.5040 C.3   115  TRP115      0.1737
    119  C         59.1460  123.5130  134.3000 C.2   115  TRP115      0.2595
    120  O         59.4820  122.4660  133.7170 O.2   115  TRP115     -0.2718
    121  CB        59.2210  123.7730  136.8150 C.3   115  TRP115      0.0564
    122  CG        59.0150  122.3430  137.0730 C.ar  115  TRP115      0.0003
    123  CD1       59.8230  121.5520  137.7690 C.ar  115  TRP115      0.0946
    124  CD2       57.9390  121.5090  136.6050 C.ar  115  TRP115      0.0152
    125  NE1       59.3450  120.2630  137.7960 N.ar  115  TRP115     -0.2442
    126  CE2       58.1840  120.2130  137.0870 C.ar  115  TRP115      0.0810
    127  CE3       56.7810  121.7410  135.8500 C.ar  115  TRP115      0.0012
    128  CZ2       57.3320  119.1480  136.8460 C.ar  115  TRP115      0.0191
    129  CZ3       55.9520  120.6780  135.5860 C.ar  115  TRP115      0.0001
    130  CH2       56.2310  119.3900  136.0870 C.ar  115  TRP115      0.0015
    131  N         58.1030  124.2700  133.9170 N.am  116  HIS116     -0.1975
    132  CA        57.1950  123.8270  132.8470 C.3   116  HIS116      0.1656
    133  C         57.9170  123.5990  131.5400 C.2   116  HIS116      0.2291
    134  O         57.5290  122.7030  130.7770 O.2   116  HIS116     -0.2864
    135  CB        56.0220  124.7770  132.6090 C.3   116  HIS116      0.0771
    136  CG        54.8880  124.5770  133.5540 C.ar  116  HIS116      0.0820
    137  ND1       54.1610  123.4090  133.6000 N.ar  116  HIS116     -0.2267
    138  CD2       54.3460  125.3980  134.4830 C.ar  116  HIS116      0.1154
    139  CE1       53.2320  123.5130  134.5340 C.ar  116  HIS116      0.1986
    140  NE2       53.3220  124.7110  135.0850 N.ar  116  HIS116     -0.2212
    141  N         60.1010  120.4610  131.8770 N.3   119  HIS119     -0.1226
    142  CA        59.3260  119.2610  132.0320 C.3   119  HIS119      0.1752
    143  C         58.6760  118.8600  130.7030 C.2   119  HIS119      0.2595
    144  O         58.6620  117.6610  130.3390 O.2   119  HIS119     -0.2718
    145  CB        58.3150  119.4520  133.1510 C.3   119  HIS119      0.0759
    146  CG        57.2570  118.4100  133.1770 C.ar  119  HIS119      0.0818
    147  ND1       55.9940  118.6340  132.6880 N.ar  119  HIS119     -0.2268
    148  CD2       57.2810  117.1300  133.6100 C.ar  119  HIS119      0.1154
    149  CE1       55.2800  117.5290  132.8240 C.ar  119  HIS119      0.1986
    150  NE2       56.0350  116.6050  133.3890 N.ar  119  HIS119     -0.2212
    151  N         58.1610  119.8640  129.9780 N.am  120  LEU120     -0.1980
    152  CA        57.6920  119.6550  128.6130 C.3   120  LEU120      0.1596
    153  C         58.8060  119.1920  127.6770 C.2   120  LEU120      0.2287
    154  O         58.5820  118.3420  126.8260 O.2   120  LEU120     -0.2864
    155  CB        56.9910  120.8780  128.0620 C.3   120  LEU120      0.0297
    156  CG        55.5170  120.9330  128.4620 C.3   120  LEU120      0.0022
    157  CD1       54.9250  122.2890  128.1720 C.3   120  LEU120      0.0001
    158  CD2       54.7220  119.8750  127.7200 C.3   120  LEU120      0.0001
    159  N         60.9470  114.3780  136.2670 N.3   127  VAL127     -0.1245
    160  CA        60.1400  113.4420  137.0000 C.3   127  VAL127      0.1561
    161  C         60.4950  112.0950  136.3950 C.2   127  VAL127      0.2260
    162  O         59.8750  111.6280  135.4360 O.2   127  VAL127     -0.2867
    163  CB        58.6460  113.7710  136.8480 C.3   127  VAL127      0.0252
    164  CG1       57.7650  112.7680  137.5880 C.3   127  VAL127      0.0019
    165  CG2       58.3830  115.1350  137.3410 C.3   127  VAL127      0.0019
    166  N         58.0810  109.4380  134.9300 N.3   130  SER130     -0.1202
    167  CA        56.9590  109.9570  134.1440 C.3   130  SER130      0.2020
    168  C         56.7000  109.0950  132.9240 C.2   130  SER130      0.2619
    169  O         57.6130  108.4360  132.4240 O.2   130  SER130     -0.2717
    170  CB        57.2350  111.3810  133.7050 C.3   130  SER130      0.2103
    171  OG        56.1730  111.8610  132.9180 O.3   130  SER130     -0.2182
    172  N         55.4600  109.0790  132.4570 N.am  131  LYS131     -0.1965
    173  CA        55.1490  108.3300  131.2490 C.3   131  LYS131      0.1728
    174  C         54.7250  109.2730  130.1370 C.2   131  LYS131      0.2616
    175  O         54.3970  108.8350  129.0180 O.2   131  LYS131     -0.2715
    176  CB        54.0760  107.2650  131.4940 C.3   131  LYS131      0.0311
    177  CG        54.4770  106.1190  132.4240 C.3   131  LYS131      0.0038
    178  CD        55.8260  105.4810  132.0640 C.3   131  LYS131      0.0206
    179  CE        55.7690  103.9440  132.1860 C.3   131  LYS131      0.1093
    180  NZ        54.6800  103.3520  133.0740 N.3   131  LYS131     -0.1314
    181  N         54.7550  110.5630  130.4470 N.am  132  MET132     -0.1964
    182  CA        54.4640  111.6180  129.4910 C.3   132  MET132      0.1722
    183  C         55.4820  111.6460  128.3790 C.2   132  MET132      0.2458
    184  O         56.6820  111.4270  128.6120 O.2   132  MET132     -0.2730
    185  CB        54.4870  112.9590  130.2060 C.3   132  MET132      0.0427
    186  CG        54.1070  114.1390  129.3540 C.3   132  MET132      0.0599
    187  SD        53.6440  115.5430  130.3580 S.3   132  MET132     -0.1393
    188  CE        54.1500  116.8630  129.2820 C.3   132  MET132      0.0692
    189  N         55.0280  111.8850  127.1520 N.am  133  PRO133     -0.2727
    190  CA        55.9460  112.0530  126.0340 C.3   133  PRO133      0.1402
    191  C         56.7800  113.3130  126.1770 C.2   133  PRO133      0.2269
    192  O         56.3370  114.2680  126.8240 O.2   133  PRO133     -0.2865
    193  CB        55.0090  112.1920  124.8260 C.3   133  PRO133      0.0296
    194  CG        53.7930  111.5280  125.2050 C.3   133  PRO133      0.0237
    195  CD        53.6490  111.7070  126.6950 C.3   133  PRO133      0.0939
    196  N         58.2090  116.7010  124.5580 N.3   135  TYR135     -0.1241
    197  CA        57.6550  117.6500  123.6030 C.3   135  TYR135      0.1605
    198  C         58.6810  118.6980  123.1840 C.2   135  TYR135      0.2264
    199  O         58.3560  119.8860  123.1630 O.2   135  TYR135     -0.2867
    200  CB        56.4090  118.3150  124.2070 C.3   135  TYR135      0.0534
    201  CG        55.2500  117.3630  124.2230 C.ar  135  TYR135     -0.0201
    202  CD1       55.0070  116.5480  125.3170 C.ar  135  TYR135     -0.0009
    203  CD2       54.4270  117.2290  123.1020 C.ar  135  TYR135     -0.0009
    204  CE1       53.9490  115.6400  125.3020 C.ar  135  TYR135      0.0417
    205  CE2       53.3850  116.3320  123.0700 C.ar  135  TYR135      0.0417
    206  CZ        53.1450  115.5340  124.1680 C.ar  135  TYR135      0.1957
    207  OH        52.1120  114.6150  124.1330 O.3   135  TYR135     -0.2866
    208  N         52.5670  127.3870  125.2070 N.3   183  MET183     -0.1245
    209  CA        52.0470  126.2920  125.9930 C.3   183  MET183      0.1570
    210  C         52.1240  126.7020  127.4600 C.2   183  MET183      0.2261
    211  O         51.1490  126.5680  128.2210 O.2   183  MET183     -0.2867
    212  CB        52.8190  125.0090  125.7220 C.3   183  MET183      0.0387
    213  CG        52.2660  123.8170  126.4470 C.3   183  MET183      0.0595
    214  SD        50.8150  123.1160  125.6640 S.3   183  MET183     -0.1393
    215  CE        51.4790  122.1880  124.2710 C.3   183  MET183      0.0692
    216  N         49.1820  126.9720  130.3510 N.3   187  LEU187     -0.1245
    217  CA        49.1640  126.2000  131.5840 C.3   187  LEU187      0.1561
    218  C         49.1550  127.1020  132.8090 C.2   187  LEU187      0.2260
    219  O         48.6270  126.7410  133.8600 O.2   187  LEU187     -0.2867
    220  CB        50.3640  125.2790  131.6390 C.3   187  LEU187      0.0270
    221  CG        50.4120  124.1830  130.5790 C.3   187  LEU187      0.0019
    222  CD1       51.8310  123.6950  130.4130 C.3   187  LEU187      0.0001
    223  CD2       49.4480  123.0300  130.9420 C.3   187  LEU187      0.0001
@<TRIPOS>BOND
     1    21    19   ar
     2    20    19   ar
     3    19    18    1
     4    13    14    1
     5    14    15    1
     6    14    17    1
     7    18    17    1
     8    15    16    2
     9    15    22   am
    10    22    23    1
    11    23    24    1
    12   205   203   ar
    13   205   206   ar
    14   203   201   ar
    15     1     2    1
    16   199   198    2
    17   198   197    1
    18     3     4    2
    19     3     2    1
    20   197   200    1
    21   197   196    1
    22    24    25    2
    23    24    26   am
    24     2     5    1
    25   207   206    1
    26   206   204   ar
    27   200   201    1
    28   201   202   ar
    29   215   214    1
    30    26    27    1
    31   193   194    1
    32   193   190    1
    33   194   195    1
    34   208   209    1
    35     5     6    1
    36   204   202   ar
    37   214   213    1
    38   212   209    1
    39   212   213    1
    40    31    30    1
    41   209   210    1
    42   190   191    1
    43   190   189    1
    44    27    30    1
    45    27    28    1
    46   191   192    2
    47    32    33    1
    48     8     6   ar
    49     8    10   ar
    50    33    34    1
    51     6     7   ar
    52   195   189    1
    53   154   153    2
    54    28    29    2
    55   189   183   am
    56    10    11   ar
    57   210   211    2
    58     7     9   ar
    59    34    35    2
    60    34    36   am
    61   153   152    1
    62   158   156    1
    63   155   156    1
    64   155   152    1
    65   157   156    1
    66    36    37    1
    67   183   184    2
    68   183   182    1
    69    11     9   ar
    70    11    12    1
    71    41    40    1
    72   152   151    1
    73   175   174    2
    74   188   187    1
    75   186   185    1
    76   186   187    1
    77    40    37    1
    78   182   185    1
    79   182   181    1
    80    37    38    1
    81   151   143   am
    82   174   181   am
    83   174   173    1
    84   144   143    2
    85   216   217    1
    86   222   221    1
    87    42    38   am
    88    42    43    1
    89    45    44    2
    90   221   223    1
    91   221   220    1
    92   143   142    1
    93    38    39    2
    94   134   133    2
    95    69    68    1
    96    49    47   ar
    97    49    51   ar
    98   173   176    1
    99   173   172    1
   100    46    43    1
   101    46    47    1
   102    70    68    1
   103    68    65    1
   104    43    44    1
   105   176   177    1
   106   133   132    1
   107   217   220    1
   108   217   218    1
   109    47    48   ar
   110    51    50   ar
   111   141   142    1
   112    96    95    1
   113   142   145    1
   114   178   179    1
   115   178   177    1
   116   179   180    1
   117   169   168    2
   118   172   168   am
   119   135   132    1
   120   135   136    1
   121   147   149   ar
   122   147   146   ar
   123   218   219    2
   124   149   150   ar
   125   132   131    1
   126    50    48   ar
   127    65    64    1
   128    65    66    1
   129   171   170    1
   130   168   167    1
   131   145   146    1
   132   146   148   ar
   133   150   148   ar
   134    95    94    1
   135    95    97    1
   136    71    66   am
   137    71    72    1
   138   136   137   ar
   139   136   138   ar
   140   137   139   ar
   141    66    67    2
   142   170   167    1
   143   120   119    2
   144    94    91    1
   145   131   119   am
   146   167   166    1
   147    72    73    1
   148   119   118    1
   149   138   140   ar
   150   139   140   ar
   151    74    73    2
   152    93    92    2
   153   104   102    1
   154    78    77    2
   155    73    75   am
   156    91    92    1
   157    91    90    1
   158   117   118    1
   159    90    84   am
   160   162   161    2
   161   118   121    1
   162   129   127   ar
   163   129   130   ar
   164   127   124   ar
   165    75    81    1
   166    75    76    1
   167   130   128   ar
   168    81    80    1
   169   159   160    1
   170    77    76    1
   171    77    82   am
   172   102   103    1
   173   102    99    1
   174   161   160    1
   175    84    83    1
   176    84    85    2
   177   124   122   ar
   178   124   126   ar
   179    83    82    1
   180    83    86    1
   181    89    87   ar
   182   121   122    1
   183   128   126   ar
   184   163   160    1
   185   163   165    1
   186   163   164    1
   187    76    79    1
   188   122   123   ar
   189   126   125   ar
   190    87    88   ar
   191    87    86    1
   192    99    98    1
   193    99   100    1
   194   100   101    2
   195    80    79    1
   196   108   107    2
   197   123   125   ar
   198   109   110    1
   199   109   106    1
   200   107   106    1
   201   111   110   ar
   202   111   113   ar
   203   110   112   ar
   204   113   115   ar
   205   106   105    1
   206   112   114   ar
   207   115   114   ar
   208   115   116    1
   209    63    62    1
   210    61    62   ar
   211    61    59   ar
   212    62    60   ar
   213    59    57   ar
   214    60    58   ar
   215    57    58   ar
   216    57    56    1
   217    56    53    1
   218    55    54    2
   219    53    54    1
   220    53    52    1
