@<TRIPOS>MOLECULE
tmp/3mkbB00.pdb
 207 196 0 0 0
SMALL
GASTEIGER

@<TRIPOS>ATOM
      1  N          6.0130   -6.6910   -8.1730 N.3    28  LEU28      -0.1245
      2  CA         5.3240   -6.1840   -7.0100 C.3    28  LEU28       0.1561
      3  C          5.6300   -4.6900   -6.7920 C.2    28  LEU28       0.2260
      4  O          4.6990   -3.8670   -6.5530 O.2    28  LEU28      -0.2867
      5  CB         5.7580   -7.0280   -5.7890 C.3    28  LEU28       0.0270
      6  CG         4.8320   -7.5700   -4.7170 C.3    28  LEU28       0.0019
      7  CD1        5.0870   -6.8720   -3.3510 C.3    28  LEU28       0.0001
      8  CD2        3.3140   -7.6430   -5.0490 C.3    28  LEU28       0.0001
      9  N          4.0680   -2.6220   -9.4470 N.3    31  MET31      -0.1245
     10  CA         2.6110   -2.5360   -9.2700 C.3    31  MET31       0.1570
     11  C          2.2940   -1.4710   -8.2130 C.2    31  MET31       0.2261
     12  O          1.3750   -0.6990   -8.3790 O.2    31  MET31      -0.2867
     13  CB         2.0440   -3.8820   -8.8520 C.3    31  MET31       0.0387
     14  CG         0.5110   -3.8840   -8.6280 C.3    31  MET31       0.0595
     15  SD         0.0140   -5.3730   -7.7380 S.3    31  MET31      -0.1393
     16  CE         0.8720   -5.1460   -6.1690 C.3    31  MET31       0.0692
     17  N         -2.9010   -0.4990   -4.7010 N.3    38  THR38      -0.1218
     18  CA        -2.5840   -1.9160   -4.4120 C.3    38  THR38       0.1862
     19  C         -1.6440   -2.1120   -3.2180 C.2    38  THR38       0.2287
     20  O         -1.5210   -3.2230   -2.7150 O.2    38  THR38      -0.2866
     21  CB        -1.9220   -2.6060   -5.5880 C.3    38  THR38       0.1770
     22  OG1       -0.6880   -1.9370   -5.8920 O.3    38  THR38      -0.2211
     23  CG2       -2.8410   -2.5720   -6.7940 C.3    38  THR38       0.0375
     24  N         -2.8480   -3.3650    0.9750 N.3    41  TYR41      -0.1227
     25  CA        -2.8670   -4.6620    1.6490 C.3    41  TYR41       0.1736
     26  C         -1.5810   -4.8930    2.4180 C.2    41  TYR41       0.2595
     27  O         -1.5060   -5.7890    3.2640 O.2    41  TYR41      -0.2718
     28  CB        -3.0660   -5.7730    0.6380 C.3    41  TYR41       0.0548
     29  CG        -4.3060   -5.5700   -0.1890 C.ar   41  TYR41      -0.0200
     30  CD1       -5.5630   -5.9190    0.3210 C.ar   41  TYR41      -0.0009
     31  CD2       -4.2380   -5.0170   -1.4610 C.ar   41  TYR41      -0.0009
     32  CE1       -6.7190   -5.7380   -0.4210 C.ar   41  TYR41       0.0417
     33  CE2       -5.4300   -4.8160   -2.2240 C.ar   41  TYR41       0.0417
     34  CZ        -6.6500   -5.2110   -1.6820 C.ar   41  TYR41       0.1957
     35  OH        -7.8290   -5.0430   -2.3470 O.3    41  TYR41      -0.2866
     36  N         -0.5760   -4.0740    2.1270 N.am   42  PHE42      -0.1976
     37  CA         0.7250   -4.3110    2.7210 C.3    42  PHE42       0.1639
     38  C          1.0970   -3.3240    3.8330 C.2    42  PHE42       0.2290
     39  O          2.1520   -3.4720    4.4580 O.2    42  PHE42      -0.2864
     40  CB         1.7720   -4.5000    1.6160 C.3    42  PHE42       0.0560
     41  CG         1.3590   -5.5440    0.5850 C.ar   42  PHE42      -0.0200
     42  CD1        1.5640   -6.9000    0.8180 C.ar   42  PHE42      -0.0042
     43  CD2        0.7030   -5.1640   -0.6030 C.ar   42  PHE42      -0.0042
     44  CE1        1.1710   -7.8790   -0.1290 C.ar   42  PHE42      -0.0003
     45  CE2        0.2790   -6.1390   -1.5510 C.ar   42  PHE42      -0.0003
     46  CZ         0.5340   -7.5030   -1.2970 C.ar   42  PHE42      -0.0000
     47  N         -0.8100   -3.4140    6.3990 N.3    44  LYS44      -0.1245
     48  CA        -1.4400   -4.2320    7.4240 C.3    44  LYS44       0.1561
     49  C         -0.4640   -5.1980    8.0870 C.2    44  LYS44       0.2260
     50  O          0.0820   -4.8980    9.1600 O.2    44  LYS44      -0.2867
     51  CB        -2.6340   -4.9760    6.7810 C.3    44  LYS44       0.0271
     52  CG        -3.2230   -4.1860    5.5650 C.3    44  LYS44       0.0035
     53  CD        -4.7510   -4.2750    5.3990 C.3    44  LYS44       0.0206
     54  CE        -5.1530   -5.2840    4.3120 C.3    44  LYS44       0.1093
     55  NZ        -6.4900   -4.9770    3.7060 N.3    44  LYS44      -0.1314
     56  N          7.4360  -11.0840   -0.2270 N.3    50  HIS50      -0.1241
     57  CA         6.1250  -11.3700   -0.7460 C.3    50  HIS50       0.1621
     58  C          6.2010  -12.0590   -2.1010 C.2    50  HIS50       0.2264
     59  O          5.4110  -12.9600   -2.3960 O.2    50  HIS50      -0.2867
     60  CB         5.2430  -10.1430   -0.7960 C.3    50  HIS50       0.0745
     61  CG         3.8450  -10.4830   -1.1950 C.ar   50  HIS50       0.0817
     62  ND1        2.8930  -10.8780   -0.2800 N.ar   50  HIS50      -0.2268
     63  CD2        3.2700  -10.5850   -2.4150 C.ar   50  HIS50       0.1154
     64  CE1        1.7760  -11.1750   -0.9230 C.ar   50  HIS50       0.1986
     65  NE2        1.9790  -11.0040   -2.2190 N.ar   50  HIS50      -0.2212
     66  N          6.4750  -15.7850   -1.9610 N.3    53  ILE53      -0.1231
     67  CA         5.1790  -16.4400   -1.7890 C.3    53  ILE53       0.1692
     68  C          4.4910  -16.6250   -3.1580 C.2    53  ILE53       0.2591
     69  O          4.1500  -17.7500   -3.5520 O.2    53  ILE53      -0.2718
     70  CB         4.2560  -15.6460   -0.8400 C.3    53  ILE53       0.0266
     71  CG1        5.0770  -14.9830    0.2750 C.3    53  ILE53       0.0019
     72  CG2        3.1900  -16.5760   -0.2700 C.3    53  ILE53       0.0020
     73  CD1        4.3320  -14.6530    1.6230 C.3    53  ILE53       0.0001
     74  N          4.3210  -15.5090   -3.8790 N.am   54  VAL54      -0.1980
     75  CA         3.6110  -15.4980   -5.1700 C.3    54  VAL54       0.1595
     76  C          4.2600  -16.4790   -6.1400 C.2    54  VAL54       0.2287
     77  O          3.5870  -17.3060   -6.7610 O.2    54  VAL54      -0.2864
     78  CB         3.5850  -14.0760   -5.7890 C.3    54  VAL54       0.0276
     79  CG1        2.8880  -14.0760   -7.1250 C.3    54  VAL54       0.0022
     80  CG2        2.9050  -13.1110   -4.8600 C.3    54  VAL54       0.0022
     81  N          3.5690  -20.0820   -5.6140 N.3    57  ALA57      -0.1231
     82  CA         2.2490  -20.4180   -6.2050 C.3    57  ALA57       0.1694
     83  C          2.2520  -20.5040   -7.7510 C.2    57  ALA57       0.2591
     84  O          1.6600  -21.4010   -8.3200 O.2    57  ALA57      -0.2718
     85  CB         1.1430  -19.4900   -5.6740 C.3    57  ALA57       0.0304
     86  N          2.9680  -19.5920   -8.4080 N.am   58  LEU58      -0.1980
     87  CA         3.0900  -19.6140   -9.8690 C.3    58  LEU58       0.1596
     88  C          3.7610  -20.9180  -10.3040 C.2    58  LEU58       0.2287
     89  O          3.2710  -21.6310  -11.1930 O.2    58  LEU58      -0.2864
     90  CB         3.8550  -18.3790  -10.3440 C.3    58  LEU58       0.0297
     91  CG         3.0980  -17.0850  -10.1000 C.3    58  LEU58       0.0022
     92  CD1        3.8960  -15.9410  -10.6330 C.3    58  LEU58       0.0001
     93  CD2        1.6750  -17.1310  -10.7130 C.3    58  LEU58       0.0001
     94  N         -5.4690  -24.2780   -6.5050 N.3    72  PHE72      -0.1241
     95  CA        -5.5220  -22.9470   -5.9510 C.3    72  PHE72       0.1605
     96  C         -6.6870  -22.7360   -4.9620 C.2    72  PHE72       0.2264
     97  O         -6.8850  -21.6260   -4.4530 O.2    72  PHE72      -0.2867
     98  CB        -5.5120  -21.9120   -7.1140 C.3    72  PHE72       0.0534
     99  CG        -4.1400  -21.4000   -7.4740 C.ar   72  PHE72      -0.0203
    100  CD1       -3.8370  -20.0410   -7.3340 C.ar   72  PHE72      -0.0042
    101  CD2       -3.1390  -22.2610   -7.9520 C.ar   72  PHE72      -0.0042
    102  CE1       -2.5710  -19.5250   -7.6430 C.ar   72  PHE72      -0.0003
    103  CE2       -1.8660  -21.7560   -8.2680 C.ar   72  PHE72      -0.0003
    104  CZ        -1.5830  -20.3780   -8.1210 C.ar   72  PHE72      -0.0000
    105  N         -5.5620  -21.3640   -1.6710 N.3    75  ILE75      -0.1245
    106  CA        -4.9410  -20.0510   -1.9220 C.3    75  ILE75       0.1561
    107  C         -6.0540  -19.0340   -2.1360 C.2    75  ILE75       0.2260
    108  O         -6.0560  -17.9480   -1.5780 O.2    75  ILE75      -0.2867
    109  CB        -3.9450  -20.0810   -3.1310 C.3    75  ILE75       0.0252
    110  CG1       -2.6440  -20.7960   -2.7500 C.3    75  ILE75       0.0019
    111  CG2       -3.5780  -18.6320   -3.5970 C.3    75  ILE75       0.0019
    112  CD1       -2.0190  -21.6170   -3.8700 C.3    75  ILE75       0.0001
    113  N         -8.1790  -17.9830    0.9570 N.3    78  ALA78      -0.1231
    114  CA        -7.3600  -17.1540    1.8210 C.3    78  ALA78       0.1694
    115  C         -7.4380  -15.6940    1.3470 C.2    78  ALA78       0.2592
    116  O         -7.5720  -14.7260    2.1460 O.2    78  ALA78      -0.2718
    117  CB        -5.9090  -17.6640    1.7970 C.3    78  ALA78       0.0304
    118  N         -7.3610  -15.5340    0.0290 N.am   79  HIS79      -0.1976
    119  CA        -7.4270  -14.1870   -0.5510 C.3    79  HIS79       0.1656
    120  C         -8.8310  -13.5710   -0.4500 C.2    79  HIS79       0.2291
    121  O         -8.9730  -12.3370   -0.2040 O.2    79  HIS79      -0.2864
    122  CB        -6.9150  -14.2030   -1.9970 C.3    79  HIS79       0.0771
    123  CG        -5.4300  -14.3410   -2.1030 C.ar   79  HIS79       0.0820
    124  ND1       -4.7770  -15.5390   -1.9000 N.ar   79  HIS79      -0.2267
    125  CD2       -4.4710  -13.4420   -2.4290 C.ar   79  HIS79       0.1154
    126  CE1       -3.4830  -15.3650   -2.0580 C.ar   79  HIS79       0.1986
    127  NE2       -3.2690  -14.1100   -2.3950 N.ar   79  HIS79      -0.2212
    128  N         -9.9950  -14.3400    4.1410 N.3    82  LYS82      -0.1231
    129  CA        -9.1480  -13.9190    5.2450 C.3    82  LYS82       0.1693
    130  C         -8.4350  -12.5990    4.9680 C.2    82  LYS82       0.2591
    131  O         -8.3140  -11.7440    5.8610 O.2    82  LYS82      -0.2718
    132  CB        -8.1160  -14.9980    5.5090 C.3    82  LYS82       0.0285
    133  CG        -7.3990  -14.8670    6.8080 C.3    82  LYS82       0.0035
    134  CD        -6.1580  -15.7590    6.8520 C.3    82  LYS82       0.0206
    135  CE        -4.9160  -14.9430    6.4710 C.3    82  LYS82       0.1093
    136  NZ        -4.8010  -13.5970    7.2050 N.3    82  LYS82      -0.1314
    137  N         -7.9490  -12.4440    3.7460 N.am   83  LEU83      -0.1980
    138  CA        -7.0920  -11.3160    3.3790 C.3    83  LEU83       0.1596
    139  C         -7.8550  -10.1540    2.7130 C.2    83  LEU83       0.2287
    140  O         -7.3780   -9.0170    2.6900 O.2    83  LEU83      -0.2864
    141  CB        -6.0040  -11.7820    2.4270 C.3    83  LEU83       0.0297
    142  CG        -4.9810  -12.8210    2.9200 C.3    83  LEU83       0.0022
    143  CD1       -4.2740  -13.5150    1.7360 C.3    83  LEU83       0.0001
    144  CD2       -3.9930  -12.1850    3.9390 C.3    83  LEU83       0.0001
    145  N         -8.6140   -9.3790   -0.4290 N.3    85  ILE85      -0.1245
    146  CA        -8.0400   -8.8230   -1.6360 C.3    85  ILE85       0.1561
    147  C         -9.0960   -8.6760   -2.7160 C.2    85  ILE85       0.2260
    148  O         -9.8010   -9.6230   -3.0550 O.2    85  ILE85      -0.2867
    149  CB        -6.9060   -9.7180   -2.2300 C.3    85  ILE85       0.0252
    150  CG1       -5.8930  -10.1800   -1.1310 C.3    85  ILE85       0.0019
    151  CG2       -6.3010   -9.0360   -3.4600 C.3    85  ILE85       0.0019
    152  CD1       -5.2460   -9.0980   -0.3230 C.3    85  ILE85       0.0001
    153  N         -8.0160   -6.5430   -8.7810 N.3    89  SER89      -0.1202
    154  CA        -6.6410   -6.1000   -8.6800 C.3    89  SER89       0.2020
    155  C         -5.5970   -7.2240   -8.9770 C.2    89  SER89       0.2618
    156  O         -4.4130   -6.9670   -9.1860 O.2    89  SER89      -0.2717
    157  CB        -6.3980   -5.4620   -7.3060 C.3    89  SER89       0.2103
    158  OG        -7.2600   -4.3120   -7.1080 O.3    89  SER89      -0.2182
    159  N         -6.0250   -8.4760   -9.0030 N.am   90  PHE90      -0.1975
    160  CA        -5.0850   -9.5480   -9.3880 C.3    90  PHE90       0.1639
    161  C         -4.2930   -9.3110  -10.7050 C.2    90  PHE90       0.2290
    162  O         -3.0910   -9.5290  -10.7470 O.2    90  PHE90      -0.2864
    163  CB        -5.8280  -10.8850   -9.4920 C.3    90  PHE90       0.0560
    164  CG        -6.2290  -11.4980   -8.1340 C.ar   90  PHE90      -0.0200
    165  CD1       -5.3710  -11.4170   -7.0430 C.ar   90  PHE90      -0.0042
    166  CD2       -7.4530  -12.1500   -7.9780 C.ar   90  PHE90      -0.0042
    167  CE1       -5.6930  -11.9380   -5.8320 C.ar   90  PHE90      -0.0003
    168  CE2       -7.7900  -12.7290   -6.7640 C.ar   90  PHE90      -0.0003
    169  CZ        -6.9120  -12.6090   -5.6650 C.ar   90  PHE90      -0.0000
    170  N         -1.1080   -7.1400  -10.6930 N.3    93  LEU93      -0.1231
    171  CA         0.0850   -7.8960  -10.3870 C.3    93  LEU93       0.1693
    172  C          0.6090   -8.6470  -11.5890 C.2    93  LEU93       0.2592
    173  O          1.7340   -8.5100  -11.9330 O.2    93  LEU93      -0.2718
    174  CB        -0.1430   -8.8680   -9.2400 C.3    93  LEU93       0.0284
    175  CG         1.1080   -9.6430   -8.8490 C.3    93  LEU93       0.0019
    176  CD1        2.2490   -8.7000   -8.5510 C.3    93  LEU93       0.0001
    177  CD2        0.8490  -10.5550   -7.6630 C.3    93  LEU93       0.0001
    178  N         -0.2310   -9.4540  -12.2170 N.am   94  THR94      -0.1953
    179  CA         0.2290  -10.2710  -13.3440 C.3    94  THR94       0.1897
    180  C          0.6340   -9.3940  -14.5290 C.2    94  THR94       0.2313
    181  O          1.5700   -9.6940  -15.1830 O.2    94  THR94      -0.2863
    182  CB        -0.7860  -11.3200  -13.7530 C.3    94  THR94       0.1794
    183  OG1       -1.9890  -10.6750  -14.2060 O.3    94  THR94      -0.2208
    184  CG2       -1.0860  -12.3090  -12.5760 C.3    94  THR94       0.0378
    185  N         -4.2510  -18.3900  -14.2210 N.3   124  VAL124     -0.1231
    186  CA        -3.9300  -18.0960  -12.8170 C.3   124  VAL124      0.1692
    187  C         -4.9560  -17.1310  -12.1890 C.2   124  VAL124      0.2591
    188  O         -5.4320  -17.3740  -11.0770 O.2   124  VAL124     -0.2718
    189  CB        -2.4830  -17.5710  -12.6510 C.3   124  VAL124      0.0266
    190  CG1       -2.1780  -17.0980  -11.1930 C.3   124  VAL124      0.0020
    191  CG2       -1.4930  -18.6410  -13.1120 C.3   124  VAL124      0.0020
    192  N         -5.3260  -16.0600  -12.8830 N.am  125  ILE125     -0.1980
    193  CA        -6.3210  -15.1280  -12.2960 C.3   125  ILE125      0.1595
    194  C         -7.6400  -15.8850  -12.0530 C.2   125  ILE125      0.2287
    195  O         -8.2560  -15.7710  -10.9790 O.2   125  ILE125     -0.2864
    196  CB        -6.5820  -13.8690  -13.1730 C.3   125  ILE125      0.0276
    197  CG1       -5.3210  -12.9770  -13.2380 C.3   125  ILE125      0.0022
    198  CG2       -7.8040  -13.0490  -12.6160 C.3   125  ILE125      0.0022
    199  CD1       -5.3110  -11.9720  -14.4580 C.3   125  ILE125      0.0001
    200  N         -7.2300  -18.2430   -8.8240 N.3   128  ILE128     -0.1245
    201  CA        -7.1880  -17.5370   -7.5640 C.3   128  ILE128      0.1561
    202  C         -8.4790  -16.7000   -7.2870 C.2   128  ILE128      0.2260
    203  O         -8.7770  -16.3610   -6.1200 O.2   128  ILE128     -0.2867
    204  CB        -5.8900  -16.6990   -7.4220 C.3   128  ILE128      0.0252
    205  CG1       -5.5940  -16.4030   -5.9440 C.3   128  ILE128      0.0019
    206  CG2       -5.8950  -15.4700   -8.4320 C.3   128  ILE128      0.0019
    207  CD1       -4.2650  -15.6720   -5.6930 C.3   128  ILE128      0.0001
@<TRIPOS>BOND
     1   181   180    2
     2   180   179    1
     3   199   197    1
     4   185   186    1
     5   183   182    1
     6   182   179    1
     7   182   184    1
     8   179   178    1
     9   197   196    1
    10   196   198    1
    11   196   193    1
    12   191   189    1
    13   192   193    1
    14   192   187   am
    15   186   189    1
    16   186   187    1
    17   189   190    1
    18   193   194    1
    19   178   172   am
    20   187   188    2
    21   194   195    2
    22   173   172    2
    23   172   171    1
    24    89    88    2
    25   162   161    2
    26    93    91    1
    27   161   160    1
    28   170   171    1
    29    92    91    1
    30   171   174    1
    31    90    91    1
    32    90    87    1
    33    88    87    1
    34    87    86    1
    35   163   160    1
    36   163   164    1
    37     9    10    1
    38   160   159    1
    39    10    13    1
    40    10    11    1
    41   174   175    1
    42   156   155    2
    43   159   155   am
    44   155   154    1
    45    13    14    1
    46   175   176    1
    47   175   177    1
    48   200   201    1
    49   153   154    1
    50   154   157    1
    51    14    15    1
    52   206   204    1
    53    86    83   am
    54    12    11    2
    55    84    83    2
    56   103   104   ar
    57   103   101   ar
    58     1     2    1
    59   164   166   ar
    60   164   165   ar
    61   104   102   ar
    62   166   168   ar
    63   101    99   ar
    64    83    82    1
    65    15    16    1
    66   102   100   ar
    67   201   204    1
    68   201   202    1
    69    99   100   ar
    70    99    98    1
    71   204   205    1
    72   157   158    1
    73   202   203    2
    74    79    78    1
    75    98    95    1
    76   165   167   ar
    77     2     3    1
    78     2     5    1
    79    23    21    1
    80     3     4    2
    81   168   169   ar
    82    77    76    2
    83    94    95    1
    84    82    85    1
    85    82    81    1
    86    76    75    1
    87    95    96    1
    88   205   207    1
    89    22    21    1
    90   167   169   ar
    91    78    75    1
    92    78    80    1
    93     5     6    1
    94    21    18    1
    95    75    74    1
    96     8     6    1
    97    96    97    2
    98     6     7    1
    99    17    18    1
   100    18    19    1
   101    74    68   am
   102   112   110    1
   103   111   109    1
   104    69    68    2
   105   151   149    1
   106    19    20    2
   107    68    67    1
   108   109   110    1
   109   109   106    1
   110   148   147    2
   111   147   146    1
   112   125   127   ar
   113   125   123   ar
   114    63    65   ar
   115    63    61   ar
   116    59    58    2
   117   127   126   ar
   118    35    34    1
   119   149   146    1
   120   149   150    1
   121    33    34   ar
   122    33    31   ar
   123    65    64   ar
   124   107   106    1
   125   107   108    2
   126   123   122    1
   127   123   124   ar
   128    58    57    1
   129   126   124   ar
   130   122   119    1
   131    66    67    1
   132   106   105    1
   133    67    70    1
   134    34    32   ar
   135   146   145    1
   136    45    46   ar
   137    45    43   ar
   138    31    29   ar
   139    46    44   ar
   140    61    60    1
   141    61    62   ar
   142   150   152    1
   143    64    62   ar
   144    70    72    1
   145    70    71    1
   146    60    57    1
   147    57    56    1
   148    43    41   ar
   149   119   120    1
   150   119   118    1
   151   120   121    2
   152    32    30   ar
   153    29    30   ar
   154    29    28    1
   155    44    42   ar
   156   118   115   am
   157    71    73    1
   158    41    42   ar
   159    41    40    1
   160    28    25    1
   161   113   114    1
   162    24    25    1
   163   115   114    1
   164   115   116    2
   165    40    37    1
   166    25    26    1
   167   143   142    1
   168   117   114    1
   169    36    26   am
   170    36    37    1
   171    26    27    2
   172   141   142    1
   173   141   138    1
   174   140   139    2
   175   139   138    1
   176    37    38    1
   177   142   144    1
   178   138   137    1
   179    55    54    1
   180   137   130   am
   181    38    39    2
   182   128   129    1
   183    54    53    1
   184   130   129    1
   185   130   131    2
   186   129   132    1
   187    53    52    1
   188   132   133    1
   189    52    51    1
   190    47    48    1
   191   135   134    1
   192   135   136    1
   193    51    48    1
   194   133   134    1
   195    48    49    1
   196    49    50    2
