@<TRIPOS>MOLECULE
tmp/3mkeA02.pdb
 115 106 0 0 0
SMALL
GASTEIGER

@<TRIPOS>ATOM
      1  N         33.4650   61.4180    8.4180 N.3    45  SER45      -0.1217
      2  CA        32.9990   60.2950    7.6100 C.3    45  SER45       0.1889
      3  C         33.5570   58.9550    8.0530 C.2    45  SER45       0.2288
      4  O         33.1090   57.9250    7.5400 O.2    45  SER45      -0.2866
      5  CB        33.3140   60.5060    6.1270 C.3    45  SER45       0.2089
      6  OG        32.4030   61.4530    5.5590 O.3    45  SER45      -0.2183
      7  N         24.1520   67.0960    0.5730 N.3    79  ASP79      -0.1225
      8  CA        25.3920   67.3920   -0.1250 C.3    79  ASP79       0.1805
      9  C         26.3070   66.1630   -0.2230 C.2    79  ASP79       0.2597
     10  O         26.4960   65.4610    0.7670 O.2    79  ASP79      -0.2718
     11  CB        26.1190   68.5180    0.6060 C.3    79  ASP79       0.1424
     12  CG        27.4360   68.8700   -0.0370 C.2    79  ASP79       0.3668
     13  OD1       28.4870   68.6180    0.5920 O.co2  79  ASP79      -0.2456
     14  OD2       27.4170   69.3840   -1.1730 O.co2  79  ASP79      -0.2456
     15  N         26.8770   65.9530   -1.4090 N.am   80  TYR80      -0.1976
     16  CA        27.8560   64.9060   -1.7270 C.3    80  TYR80       0.1639
     17  C         27.2610   63.5000   -1.7160 C.2    80  TYR80       0.2290
     18  O         27.3690   62.7530   -0.7310 O.2    80  TYR80      -0.2864
     19  CB        29.1530   64.9950   -0.8860 C.3    80  TYR80       0.0560
     20  CG        30.1940   64.0370   -1.4250 C.ar   80  TYR80      -0.0198
     21  CD1       30.8430   64.2810   -2.6510 C.ar   80  TYR80      -0.0009
     22  CD2       30.4750   62.8420   -0.7490 C.ar   80  TYR80      -0.0009
     23  CE1       31.7610   63.3480   -3.1750 C.ar   80  TYR80       0.0417
     24  CE2       31.3850   61.9290   -1.2440 C.ar   80  TYR80       0.0417
     25  CZ        32.0230   62.1740   -2.4450 C.ar   80  TYR80       0.1957
     26  OH        32.9010   61.2200   -2.9090 O.3    80  TYR80      -0.2866
     27  N         32.0810   57.4910    0.2880 N.3   105  SER105     -0.1217
     28  CA        31.7470   58.4860    1.3180 C.3   105  SER105      0.1889
     29  C         30.4010   59.1910    1.0290 C.2   105  SER105      0.2288
     30  O         30.1530   60.3110    1.4680 O.2   105  SER105     -0.2866
     31  CB        32.9050   59.4960    1.5250 C.3   105  SER105      0.2089
     32  OG        32.9890   59.8490    2.9020 O.3   105  SER105     -0.2183
     33  N         27.0350   60.6790    1.2710 N.3   107  ASN107     -0.1240
     34  CA        26.3420   61.2050    2.4540 C.3   107  ASN107      0.1653
     35  C         24.8790   60.8240    2.5650 C.2   107  ASN107      0.2266
     36  O         24.3890   60.5100    3.6640 O.2   107  ASN107     -0.2867
     37  CB        26.5010   62.7230    2.5430 C.3   107  ASN107      0.1155
     38  CG        27.8700   63.1110    3.0310 C.2   107  ASN107      0.2627
     39  OD1       28.4650   62.3880    3.8330 O.2   107  ASN107     -0.2716
     40  ND2       28.4070   64.2040    2.5080 N.am  107  ASN107     -0.0877
     41  N         24.4670   63.5220    8.3140 N.3   141  GLU141     -0.1231
     42  CA        25.2620   64.2460    7.3130 C.3   141  GLU141      0.1699
     43  C         24.4380   65.4400    6.7860 C.2   141  GLU141      0.2592
     44  O         23.2410   65.3000    6.5630 O.2   141  GLU141     -0.2718
     45  CB        25.6930   63.3280    6.1650 C.3   141  GLU141      0.0402
     46  CG        26.7010   62.2510    6.5980 C.3   141  GLU141      0.1161
     47  CD        28.1170   62.7870    6.7800 C.2   141  GLU141      0.3649
     48  OE1       29.0240   61.9650    7.0510 O.co2 141  GLU141     -0.2457
     49  OE2       28.3460   64.0110    6.6020 O.co2 141  GLU141     -0.2457
     50  N         25.0460   66.6130    6.6140 N.am  142  THR142     -0.1953
     51  CA        26.4760   66.8700    6.7910 C.3   142  THR142      0.1897
     52  C         26.8160   67.6660    8.0530 C.2   142  THR142      0.2313
     53  O         27.9860   68.0140    8.2820 O.2   142  THR142     -0.2863
     54  CB        27.0250   67.6440    5.5960 C.3   142  THR142      0.1794
     55  OG1       26.2530   68.8370    5.4340 O.3   142  THR142     -0.2208
     56  CG2       26.9430   66.7930    4.3100 C.3   142  THR142      0.0378
     57  N         29.8080   67.0850   10.7270 N.3   145  ASN145     -0.1240
     58  CA        31.1920   67.5260   10.4410 C.3   145  ASN145      0.1653
     59  C         31.5720   68.9160   10.9560 C.2   145  ASN145      0.2266
     60  O         32.6480   69.4610   10.5980 O.2   145  ASN145     -0.2867
     61  CB        31.4130   67.5000    8.9280 C.3   145  ASN145      0.1155
     62  CG        31.1270   66.1490    8.3420 C.2   145  ASN145      0.2627
     63  OD1       31.8430   65.1690    8.6110 O.2   145  ASN145     -0.2716
     64  ND2       30.0810   66.0770    7.5310 N.am  145  ASN145     -0.0877
     65  N         37.8990   56.3790   -2.3470 N.3   191  VAL191     -0.1245
     66  CA        38.3330   57.7520   -2.1010 C.3   191  VAL191      0.1561
     67  C         39.8660   57.8580   -1.9640 C.2   191  VAL191      0.2260
     68  O         40.5120   58.6260   -2.7000 O.2   191  VAL191     -0.2867
     69  CB        37.5910   58.3660   -0.8870 C.3   191  VAL191      0.0252
     70  CG1       38.1840   59.7200   -0.5400 C.3   191  VAL191      0.0019
     71  CG2       36.0630   58.4690   -1.1890 C.3   191  VAL191      0.0019
     72  N         38.8930   53.9700    5.7560 N.3   209  LYS209     -0.1231
     73  CA        37.8500   54.9560    5.5700 C.3   209  LYS209      0.1693
     74  C         38.3990   56.3000    6.0410 C.2   209  LYS209      0.2593
     75  O         38.8630   56.4090    7.1820 O.2   209  LYS209     -0.2718
     76  CB        36.6120   54.6260    6.4040 C.3   209  LYS209      0.0285
     77  CG        35.4660   55.6680    6.2230 C.3   209  LYS209      0.0035
     78  CD        34.8620   55.5410    4.8340 C.3   209  LYS209      0.0206
     79  CE        34.0360   56.7960    4.4070 C.3   209  LYS209      0.1093
     80  NZ        34.8730   57.9200    3.8160 N.3   209  LYS209     -0.1314
     81  N         38.2960   57.3110    5.1780 N.am  210  THR210     -0.1939
     82  CA        38.7230   58.6730    5.5030 C.3   210  THR210      0.2028
     83  C         37.5460   59.5350    5.9440 C.2   210  THR210      0.2643
     84  O         36.3690   59.1370    5.8190 O.2   210  THR210     -0.2714
     85  CB        39.3930   59.3480    4.2970 C.3   210  THR210      0.1808
     86  OG1       38.4610   59.3900    3.2050 O.3   210  THR210     -0.2208
     87  CG2       40.6670   58.5760    3.8940 C.3   210  THR210      0.0379
     88  N         37.8620   60.7310    6.4370 N.am  211  GLY211     -0.1939
     89  CA        36.8280   61.6900    6.8120 C.3   211  GLY211      0.2014
     90  C         37.3930   63.0960    6.7580 C.2   211  GLY211      0.2638
     91  O         38.5950   63.2960    6.9140 O.2   211  GLY211     -0.2714
     92  N         36.5240   64.0760    6.5630 N.am  212  ALA212     -0.1977
     93  CA        36.9660   65.4620    6.5740 C.3   212  ALA212      0.1597
     94  C         35.8590   66.3020    7.1960 C.2   212  ALA212      0.2287
     95  O         34.6640   65.9480    7.1020 O.2   212  ALA212     -0.2864
     96  CB        37.2820   65.9350    5.1630 C.3   212  ALA212      0.0319
     97  N         40.2510   66.2720    9.8370 N.3   218  ARG218     -0.1245
     98  CA        40.6280   65.3240    8.8040 C.3   218  ARG218      0.1563
     99  C         41.0050   64.0640    9.5560 C.2   218  ARG218      0.2260
    100  O         41.5080   64.1380   10.6850 O.2   218  ARG218     -0.2867
    101  CB        41.8230   65.8640    7.9970 C.3   218  ARG218      0.0307
    102  CG        42.1360   65.1230    6.6960 C.3   218  ARG218      0.0489
    103  CD        41.0600   65.3350    5.6860 C.3   218  ARG218      0.2205
    104  NE        41.4030   64.8120    4.3650 N.pl3 218  ARG218     -0.0865
    105  CZ        40.7050   63.8890    3.7090 C.cat 218  ARG218      0.5346
    106  NH1       41.1010   63.5250    2.4910 N.pl3 218  ARG218      0.1354
    107  NH2       39.6260   63.3210    4.2430 N.pl3 218  ARG218      0.1354
    108  N         44.0180   71.8070    2.8550 N.3   245  MET245     -0.1245
    109  CA        43.7110   70.3820    2.7380 C.3   245  MET245      0.1570
    110  C         44.9660   69.6160    2.3240 C.2   245  MET245      0.2261
    111  O         45.2450   68.5350    2.8680 O.2   245  MET245     -0.2867
    112  CB        42.5590   70.1470    1.7500 C.3   245  MET245      0.0387
    113  CG        42.2820   68.6790    1.4670 C.3   245  MET245      0.0595
    114  SD        41.6100   67.8190    2.9130 S.3   245  MET245     -0.1393
    115  CE        39.8900   68.3690    2.8740 C.3   245  MET245      0.0692
@<TRIPOS>BOND
     1    23    21   ar
     2    23    25   ar
     3    26    25    1
     4    68    67    2
     5    21    20   ar
     6    25    24   ar
     7    65    66    1
     8    66    67    1
     9    66    69    1
    10    16    17    1
    11    16    15    1
    12    16    19    1
    13    17    18    2
    14    20    19    1
    15    20    22   ar
    16    15     9   am
    17    24    22   ar
    18    71    69    1
    19    14    12   ar
    20    69    70    1
    21     9     8    1
    22     9    10    2
    23     8     7    1
    24     8    11    1
    25    12    13   ar
    26    12    11    1
    27    27    28    1
    28    29    28    1
    29    29    30    2
    30    33    34    1
    31    28    31    1
    32   113   112    1
    33   113   114    1
    34    31    32    1
    35   112   109    1
    36   110   109    1
    37   110   111    2
    38    34    37    1
    39    34    35    1
    40   106   105    1
    41    40    38   am
    42    37    38    1
    43    35    36    2
    44   109   108    1
    45   115   114    1
    46    38    39    2
    47    86    85    1
    48   105   107    1
    49   105   104    2
    50    80    79    1
    51    87    85    1
    52    85    82    1
    53    56    54    1
    54   104   103    1
    55    79    78    1
    56    78    77    1
    57    96    93    1
    58    81    82    1
    59    81    74   am
    60    55    54    1
    61    82    83    1
    62     6     5    1
    63    73    72    1
    64    73    74    1
    65    73    76    1
    66    54    51    1
    67   103   102    1
    68    84    83    2
    69    83    88   am
    70    74    75    2
    71     5     2    1
    72    45    46    1
    73    45    42    1
    74    77    76    1
    75    88    89    1
    76    44    43    2
    77    92    93    1
    78    92    90   am
    79    93    94    1
    80    46    47    1
    81    49    47   ar
    82    50    43   am
    83    50    51    1
    84   102   101    1
    85    90    89    1
    86    90    91    2
    87    47    48   ar
    88    43    42    1
    89    51    52    1
    90    95    94    2
    91    42    41    1
    92    64    62   am
    93     4     3    2
    94     2     3    1
    95     2     1    1
    96   101    98    1
    97    52    53    2
    98    62    63    2
    99    62    61    1
   100    98    99    1
   101    98    97    1
   102    61    58    1
   103    99   100    2
   104    58    57    1
   105    58    59    1
   106    60    59    2
