@<TRIPOS>MOLECULE
tmp/3mkfA00.pdb
 121 113 0 0 0
SMALL
GASTEIGER

@<TRIPOS>ATOM
      1  N         33.1010   60.9500    8.4410 N.3    45  SER45      -0.1217
      2  CA        32.5780   59.7910    7.7230 C.3    45  SER45       0.1889
      3  C         33.1330   58.4630    8.2090 C.2    45  SER45       0.2288
      4  O         32.6880   57.4030    7.7660 O.2    45  SER45      -0.2866
      5  CB        32.8000   59.9320    6.2210 C.3    45  SER45       0.2089
      6  OG        31.9630   60.9340    5.6780 O.3    45  SER45      -0.2183
      7  N         30.6960   55.7980    9.2980 N.3    48  LYS48      -0.1245
      8  CA        29.9590   54.9520    8.3500 C.3    48  LYS48       0.1561
      9  C         30.2920   53.4590    8.4740 C.2    48  LYS48       0.2260
     10  O         29.4450   52.6080    8.1740 O.2    48  LYS48      -0.2867
     11  CB        30.1150   55.4780    6.9190 C.3    48  LYS48       0.0271
     12  CG        29.3730   56.8000    6.7250 C.3    48  LYS48       0.0035
     13  CD        29.8880   57.6090    5.5340 C.3    48  LYS48       0.0206
     14  CE        29.1200   58.9250    5.3830 C.3    48  LYS48       0.1093
     15  NZ        29.7590   59.8840    4.4350 N.3    48  LYS48      -0.1314
     16  N         24.1060   66.5500    0.2450 N.3    79  ASP79      -0.1225
     17  CA        25.2230   66.7270   -0.6740 C.3    79  ASP79       0.1805
     18  C         26.2450   65.5920   -0.5270 C.2    79  ASP79       0.2597
     19  O         26.2600   64.8880    0.4950 O.2    79  ASP79      -0.2718
     20  CB        25.8830   68.0900   -0.4230 C.3    79  ASP79       0.1424
     21  CG        26.5330   68.6860   -1.6750 C.2    79  ASP79       0.3668
     22  OD1       26.8610   69.8990   -1.6320 O.co2  79  ASP79      -0.2456
     23  OD2       26.7120   67.9900   -2.6960 O.co2  79  ASP79      -0.2456
     24  N         27.0840   65.4180   -1.5480 N.am   80  TYR80      -0.1976
     25  CA        28.1590   64.4000   -1.5750 C.3    80  TYR80       0.1639
     26  C         27.5760   62.9980   -1.5290 C.2    80  TYR80       0.2290
     27  O         27.9520   62.1620   -0.6930 O.2    80  TYR80      -0.2864
     28  CB        29.2460   64.6560   -0.5060 C.3    80  TYR80       0.0560
     29  CG        29.6260   66.1200   -0.4490 C.ar   80  TYR80      -0.0198
     30  CD1       30.4120   66.6950   -1.4440 C.ar   80  TYR80      -0.0009
     31  CD2       29.1460   66.9430    0.5700 C.ar   80  TYR80      -0.0009
     32  CE1       30.7220   68.0610   -1.4130 C.ar   80  TYR80       0.0417
     33  CE2       29.4490   68.3020    0.6050 C.ar   80  TYR80       0.0417
     34  CZ        30.2380   68.8450   -0.3860 C.ar   80  TYR80       0.1957
     35  OH        30.5450   70.1940   -0.3480 O.3    80  TYR80      -0.2866
     36  N         31.8900   57.1580    0.3990 N.3   105  SER105     -0.1217
     37  CA        31.4960   58.1070    1.4430 C.3   105  SER105      0.1889
     38  C         30.1360   58.7600    1.1620 C.2   105  SER105      0.2288
     39  O         29.8900   59.9060    1.5500 O.2   105  SER105     -0.2866
     40  CB        32.5800   59.1670    1.6730 C.3   105  SER105      0.2089
     41  OG        32.6690   59.4370    3.0500 O.3   105  SER105     -0.2183
     42  N         26.7750   60.2490    1.3480 N.3   107  ASN107     -0.1240
     43  CA        26.1020   60.8010    2.5170 C.3   107  ASN107      0.1653
     44  C         24.6290   60.4290    2.6300 C.2   107  ASN107      0.2266
     45  O         24.1440   60.1290    3.7270 O.2   107  ASN107     -0.2867
     46  CB        26.2560   62.3240    2.5600 C.3   107  ASN107      0.1155
     47  CG        27.5920   62.7630    3.1260 C.2   107  ASN107      0.2627
     48  OD1       28.1910   62.0710    3.9450 O.2   107  ASN107     -0.2716
     49  ND2       28.0630   63.9220    2.6940 N.am  107  ASN107     -0.0877
     50  N         24.2050   63.2730    8.3870 N.3   141  GLU141     -0.1231
     51  CA        24.9900   63.9700    7.3700 C.3   141  GLU141      0.1699
     52  C         24.1630   65.1340    6.8100 C.2   141  GLU141      0.2593
     53  O         22.9640   64.9680    6.5860 O.2   141  GLU141     -0.2718
     54  CB        25.3940   63.0100    6.2440 C.3   141  GLU141      0.0402
     55  CG        26.4460   61.9610    6.6400 C.3   141  GLU141      0.1161
     56  CD        27.8490   62.5300    6.7850 C.2   141  GLU141      0.3649
     57  OE1       28.7890   61.7360    7.0470 O.co2 141  GLU141     -0.2457
     58  OE2       28.0300   63.7610    6.6280 O.co2 141  GLU141     -0.2457
     59  N         24.7650   66.3060    6.5780 N.am  142  THR142     -0.1939
     60  CA        26.1980   66.5720    6.7330 C.3   142  THR142      0.2028
     61  C         26.5550   67.3820    7.9830 C.2   142  THR142      0.2642
     62  O         27.7220   67.6990    8.1990 O.2   142  THR142     -0.2714
     63  CB        26.7420   67.3520    5.5200 C.3   142  THR142      0.1808
     64  OG1       26.0950   68.6350    5.4540 O.3   142  THR142     -0.2208
     65  CG2       26.5010   66.5830    4.2220 C.3   142  THR142      0.0379
     66  N         25.5570   67.7070    8.8000 N.am  143  GLU143     -0.1976
     67  CA        25.7820   68.5250    9.9890 C.3   143  GLU143      0.1602
     68  C         26.7420   67.8840   10.9880 C.2   143  GLU143      0.2287
     69  O         27.4240   68.5910   11.7350 O.2   143  GLU143     -0.2864
     70  CB        24.4580   68.8600   10.6820 C.3   143  GLU143      0.0415
     71  CG        23.5510   69.8040    9.8910 C.3   143  GLU143      0.1163
     72  CD        22.6700   69.0840    8.8610 C.2   143  GLU143      0.3649
     73  OE1       22.6740   67.8280    8.7950 O.co2 143  GLU143     -0.2457
     74  OE2       21.9520   69.7890    8.1150 O.co2 143  GLU143     -0.2457
     75  N         29.4850   66.8380   10.6070 N.3   145  ASN145     -0.1225
     76  CA        30.8570   67.2560   10.2890 C.3   145  ASN145      0.1785
     77  C         31.2660   68.6320   10.8150 C.2   145  ASN145      0.2597
     78  O         32.3820   69.0950   10.5410 O.2   145  ASN145     -0.2718
     79  CB        31.0640   67.2380    8.7700 C.3   145  ASN145      0.1169
     80  CG        30.8600   65.8650    8.1720 C.2   145  ASN145      0.2627
     81  OD1       31.6220   64.9340    8.4530 O.2   145  ASN145     -0.2716
     82  ND2       29.8240   65.7240    7.3490 N.am  145  ASN145     -0.0877
     83  N         30.3790   69.2790   11.5730 N.am  146  GLU146     -0.1979
     84  CA        30.5800   70.6860   11.9440 C.3   146  GLU146      0.1602
     85  C         31.8560   70.9190   12.7540 C.2   146  GLU146      0.2287
     86  O         32.4980   71.9690   12.6240 O.2   146  GLU146     -0.2864
     87  CB        29.3630   71.2350   12.6980 C.3   146  GLU146      0.0415
     88  CG        29.3780   72.7590   12.8220 C.3   146  GLU146      0.1163
     89  CD        28.2640   73.3080   13.6910 C.2   146  GLU146      0.3649
     90  OE1       27.9280   74.5040   13.5130 O.co2 146  GLU146     -0.2457
     91  OE2       27.7360   72.5650   14.5480 O.co2 146  GLU146     -0.2457
     92  N         37.5060   60.3780    6.5250 N.3   211  GLY211     -0.1210
     93  CA        36.5360   61.3970    6.8730 C.3   211  GLY211      0.1956
     94  C         37.1360   62.7790    6.7540 C.2   211  GLY211      0.2612
     95  O         38.3480   62.9580    6.9140 O.2   211  GLY211     -0.2717
     96  N         36.2700   63.7650    6.5150 N.am  212  ALA212     -0.1965
     97  CA        36.6870   65.1600    6.4300 C.3   212  ALA212      0.1728
     98  C         35.5460   66.0180    6.9530 C.2   212  ALA212      0.2617
     99  O         34.3760   65.7030    6.7390 O.2   212  ALA212     -0.2715
    100  CB        37.0280   65.5400    5.0000 C.3   212  ALA212      0.0334
    101  N         35.8880   67.0800    7.6680 N.am  213  GLY213     -0.1940
    102  CA        34.8780   68.0030    8.1860 C.3   213  GLY213      0.2014
    103  C         35.4120   69.4220    8.2520 C.2   213  GLY213      0.2638
    104  O         36.3740   69.7750    7.5590 O.2   213  GLY213     -0.2714
    105  N         34.7790   70.2280    9.1010 N.am  214  GLU214     -0.1977
    106  CA        35.1260   71.6450    9.2330 C.3   214  GLU214      0.1602
    107  C         36.2840   71.8850   10.2020 C.2   214  GLU214      0.2287
    108  O         36.6800   70.9980   10.9540 O.2   214  GLU214     -0.2864
    109  CB        33.9030   72.4510    9.6810 C.3   214  GLU214      0.0415
    110  CG        32.6920   72.3610    8.7570 C.3   214  GLU214      0.1163
    111  CD        31.5590   73.2760    9.2010 C.2   214  GLU214      0.3649
    112  OE1       30.3990   72.8470    9.1460 O.co2 214  GLU214     -0.2457
    113  OE2       31.8300   74.4200    9.6250 O.co2 214  GLU214     -0.2457
    114  N         43.6860   71.2270    2.9320 N.3   245  MET245     -0.1245
    115  CA        43.4050   69.8100    2.7750 C.3   245  MET245      0.1570
    116  C         44.6640   69.0600    2.3650 C.2   245  MET245      0.2261
    117  O         44.9600   68.0050    2.9150 O.2   245  MET245     -0.2867
    118  CB        42.3040   69.6000    1.7330 C.3   245  MET245      0.0387
    119  CG        41.9460   68.1280    1.4960 C.3   245  MET245      0.0595
    120  SD        41.2640   67.2980    2.9490 S.3   245  MET245     -0.1393
    121  CE        39.5780   67.9100    2.9030 C.3   245  MET245      0.0692
@<TRIPOS>BOND
     1    23    21   ar
     2    21    22   ar
     3    21    20    1
     4    25    24    1
     5    25    26    1
     6    25    28    1
     7    24    18   am
     8    26    27    2
     9    30    32   ar
    10    30    29   ar
    11    32    34   ar
    12    17    18    1
    13    17    20    1
    14    17    16    1
    15    18    19    2
    16    28    29    1
    17    29    31   ar
    18    34    35    1
    19    34    33   ar
    20    36    37    1
    21    31    33   ar
    22    38    37    1
    23    38    39    2
    24    42    43    1
    25    37    40    1
    26   119   118    1
    27   119   120    1
    28    40    41    1
    29   118   115    1
    30   116   115    1
    31   116   117    2
    32    43    46    1
    33    43    44    1
    34    46    47    1
    35    44    45    2
    36    49    47   am
    37   115   114    1
    38   121   120    1
    39    47    48    2
    40    65    63    1
    41    15    14    1
    42   100    97    1
    43    14    13    1
    44    64    63    1
    45    63    60    1
    46    13    12    1
    47     6     5    1
    48     5     2    1
    49    54    55    1
    50    54    51    1
    51    97    96    1
    52    97    98    1
    53    96    94   am
    54    92    93    1
    55    59    60    1
    56    59    52   am
    57    53    52    2
    58    58    56   ar
    59    55    56    1
    60    12    11    1
    61    60    61    1
    62    99    98    2
    63    94    93    1
    64    94    95    2
    65    56    57   ar
    66    52    51    1
    67    11     8    1
    68    98   101   am
    69    82    80   am
    70    51    50    1
    71   104   103    2
    72   101   102    1
    73     2     3    1
    74     2     1    1
    75     4     3    2
    76    61    62    2
    77    61    66   am
    78    74    72   ar
    79    80    81    2
    80    80    79    1
    81    10     9    2
    82   102   103    1
    83   103   105   am
    84     8     9    1
    85     8     7    1
    86   110   111    1
    87   110   109    1
    88    79    76    1
    89    73    72   ar
    90    66    67    1
    91    72    71    1
    92   105   106    1
    93   112   111   ar
    94   111   113   ar
    95   106   109    1
    96   106   107    1
    97    71    70    1
    98    67    70    1
    99    67    68    1
   100   107   108    2
   101    76    75    1
   102    76    77    1
   103    78    77    2
   104    77    83   am
   105    68    69    2
   106    83    84    1
   107    84    87    1
   108    84    85    1
   109    86    85    2
   110    87    88    1
   111    88    89    1
   112    90    89   ar
   113    89    91   ar
