@<TRIPOS>MOLECULE
tmp/3mkhC00.pdb
 212 202 0 0 0
SMALL
GASTEIGER

@<TRIPOS>ATOM
      1  N         88.8970   -3.7550   77.0170 N.3    93  LEU93      -0.1245
      2  CA        89.7970   -2.7500   77.5910 C.3    93  LEU93       0.1561
      3  C         91.0170   -3.3470   78.2790 C.2    93  LEU93       0.2260
      4  O         92.1200   -2.7890   78.1980 O.2    93  LEU93      -0.2867
      5  CB        89.0510   -1.8070   78.5520 C.3    93  LEU93       0.0270
      6  CG        89.8720   -0.6710   79.1720 C.3    93  LEU93       0.0019
      7  CD1       90.5770    0.1300   78.0880 C.3    93  LEU93       0.0001
      8  CD2       88.9980    0.2430   80.0200 C.3    93  LEU93       0.0001
      9  N         94.5980   -2.1580   77.3090 N.3    97  ALA97      -0.1245
     10  CA        95.4620   -1.5390   78.3240 C.3    97  ALA97       0.1562
     11  C         96.8960   -2.0560   78.2890 C.2    97  ALA97       0.2260
     12  O         97.8500   -1.3150   78.5540 O.2    97  ALA97      -0.2867
     13  CB        94.8730   -1.7010   79.7260 C.3    97  ALA97       0.0290
     14  N         98.4690   -0.1650   75.7020 N.3   100  LEU100     -0.1245
     15  CA        98.9030    1.1320   76.2150 C.3   100  LEU100      0.1561
     16  C        100.1670    0.9730   77.0480 C.2   100  LEU100      0.2260
     17  O        101.0990    1.7850   76.9590 O.2   100  LEU100     -0.2867
     18  CB        97.7950    1.8030   77.0360 C.3   100  LEU100      0.0270
     19  CG        98.1360    3.1700   77.6520 C.3   100  LEU100      0.0019
     20  CD1       98.6040    4.1670   76.5850 C.3   100  LEU100      0.0001
     21  CD2       96.9570    3.7440   78.4360 C.3   100  LEU100      0.0001
     22  N        100.5000    0.9400   81.6750 N.3   131  LEU131     -0.1245
     23  CA       101.0710    2.2740   81.7680 C.3   131  LEU131      0.1561
     24  C        100.6100    2.8590   83.1030 C.2   131  LEU131      0.2260
     25  O         99.4240    3.1530   83.3010 O.2   131  LEU131     -0.2867
     26  CB       100.6650    3.1410   80.5690 C.3   131  LEU131      0.0270
     27  CG       101.1260    4.6050   80.5560 C.3   131  LEU131      0.0019
     28  CD1      102.6040    4.7300   80.7800 C.3   131  LEU131      0.0001
     29  CD2      100.7450    5.2600   79.2370 C.3   131  LEU131      0.0001
     30  N        100.4640    5.6420   85.5220 N.3   133  PHE133     -0.1227
     31  CA       100.6010    7.0880   85.4990 C.3   133  PHE133      0.1736
     32  C         99.7920    7.7270   86.6310 C.2   133  PHE133      0.2596
     33  O        100.3370    8.4490   87.4610 O.2   133  PHE133     -0.2718
     34  CB       100.1370    7.5940   84.1280 C.3   133  PHE133      0.0547
     35  CG       100.2280    9.0810   83.9470 C.ar  133  PHE133     -0.0202
     36  CD1       99.1720    9.9020   84.3110 C.ar  133  PHE133     -0.0042
     37  CD2      101.3470    9.6540   83.3680 C.ar  133  PHE133     -0.0042
     38  CE1       99.2430   11.2730   84.1190 C.ar  133  PHE133     -0.0003
     39  CE2      101.4210   11.0250   83.1720 C.ar  133  PHE133     -0.0003
     40  CZ       100.3710   11.8340   83.5510 C.ar  133  PHE133     -0.0000
     41  N         98.4950    7.4380   86.6610 N.am  134  SER134     -0.1952
     42  CA        97.5660    8.0950   87.5820 C.3   134  SER134      0.1924
     43  C         97.8340    7.7970   89.0590 C.2   134  SER134      0.2314
     44  O         98.3600    6.7420   89.4160 O.2   134  SER134     -0.2863
     45  CB        96.1200    7.7350   87.2240 C.3   134  SER134      0.2116
     46  OG        95.8170    8.1410   85.8940 O.3   134  SER134     -0.2180
     47  N         95.2200   12.7230   92.0930 N.3   138  GLY138     -0.1210
     48  CA        95.0890   13.4110   90.8150 C.3   138  GLY138      0.1956
     49  C         96.4240   13.6150   90.1060 C.2   138  GLY138      0.2612
     50  O         97.4840   13.5980   90.7390 O.2   138  GLY138     -0.2717
     51  N         96.3840   13.8150   88.7880 N.am  139  VAL139     -0.1965
     52  CA        97.6080   14.0570   88.0190 C.3   139  VAL139      0.1727
     53  C         97.4720   15.1210   86.9130 C.2   139  VAL139      0.2616
     54  O         98.4060   15.3360   86.1390 O.2   139  VAL139     -0.2715
     55  CB        98.1350   12.7510   87.3880 C.3   139  VAL139      0.0290
     56  CG1       98.7170   11.8280   88.4700 C.3   139  VAL139      0.0023
     57  CG2       97.0220   12.0580   86.6260 C.3   139  VAL139      0.0023
     58  N         96.3180   15.7850   86.8300 N.am  140  ALA140     -0.1963
     59  CA        96.1350   16.8280   85.8160 C.3   140  ALA140      0.1728
     60  C         97.1820   17.9200   86.0180 C.2   140  ALA140      0.2616
     61  O         97.5850   18.5950   85.0780 O.2   140  ALA140     -0.2715
     62  CB        94.7180   17.4160   85.8850 C.3   140  ALA140      0.0334
     63  N         97.6290   18.0730   87.2580 N.am  141  ASN141     -0.1972
     64  CA        98.5580   19.1350   87.6220 C.3   141  ASN141      0.1688
     65  C         99.9520   18.6340   87.9890 C.2   141  ASN141      0.2292
     66  O        100.7100   19.3270   88.6740 O.2   141  ASN141     -0.2864
     67  CB        97.9640   19.9300   88.7750 C.3   141  ASN141      0.1181
     68  CG        96.5640   20.3970   88.4700 C.2   141  ASN141      0.2629
     69  OD1       95.5920   19.9570   89.0890 O.2   141  ASN141     -0.2716
     70  ND2       96.4460   21.2630   87.4720 N.am  141  ASN141     -0.0877
     71  N        102.5990   21.0320   86.9070 N.3   144  GLU144     -0.1245
     72  CA       102.3300   22.4320   87.2090 C.3   144  GLU144      0.1567
     73  C        103.3730   23.0520   88.1340 C.2   144  GLU144      0.2260
     74  O        103.6320   22.5350   89.2140 O.2   144  GLU144     -0.2867
     75  CB       100.9320   22.5820   87.8250 C.3   144  GLU144      0.0388
     76  CG       100.5510   24.0210   88.1520 C.3   144  GLU144      0.1160
     77  CD        99.1100   24.1540   88.6250 C.2   144  GLU144      0.3649
     78  OE1       98.6850   23.3670   89.5000 O.co2 144  GLU144     -0.2457
     79  OE2       98.4010   25.0520   88.1240 O.co2 144  GLU144     -0.2457
     80  N         94.0440    3.6610   89.3980 N.3   169  TRP169     -0.1227
     81  CA        93.4010    3.6880   88.0820 C.3   169  TRP169      0.1737
     82  C         94.2420    3.0750   86.9710 C.2   169  TRP169      0.2595
     83  O         93.7730    2.9650   85.8370 O.2   169  TRP169     -0.2718
     84  CB        93.0120    5.1170   87.6740 C.3   169  TRP169      0.0564
     85  CG        92.0130    5.7660   88.5880 C.ar  169  TRP169      0.0003
     86  CD1       92.2260    6.8350   89.4110 C.ar  169  TRP169      0.0946
     87  CD2       90.6490    5.3810   88.7730 C.ar  169  TRP169      0.0152
     88  NE1       91.0700    7.1400   90.0920 N.ar  169  TRP169     -0.2442
     89  CE2       90.0910    6.2590   89.7210 C.ar  169  TRP169      0.0810
     90  CE3       89.8430    4.3790   88.2240 C.ar  169  TRP169      0.0012
     91  CZ2       88.7690    6.1640   90.1370 C.ar  169  TRP169      0.0191
     92  CZ3       88.5340    4.2850   88.6400 C.ar  169  TRP169      0.0001
     93  CH2       88.0080    5.1750   89.5870 C.ar  169  TRP169      0.0015
     94  N         95.4800    2.6960   87.2800 N.am  170  ALA170     -0.1966
     95  CA        96.3790    2.1620   86.2540 C.3   170  ALA170      0.1728
     96  C         95.9860    0.7420   85.8750 C.2   170  ALA170      0.2616
     97  O         96.3490   -0.2140   86.5550 O.2   170  ALA170     -0.2715
     98  CB        97.8320    2.2210   86.7250 C.3   170  ALA170      0.0334
     99  N         95.2440    0.6140   84.7820 N.am  171  THR171     -0.1951
    100  CA        94.7000   -0.6670   84.3590 C.3   171  THR171      0.1897
    101  C         95.7630   -1.7570   84.1940 C.2   171  THR171      0.2313
    102  O         96.8010   -1.5350   83.5670 O.2   171  THR171     -0.2863
    103  CB        93.9290   -0.4990   83.0520 C.3   171  THR171      0.1794
    104  OG1       92.9450    0.5280   83.2300 O.3   171  THR171     -0.2208
    105  CG2       93.2460   -1.7900   82.6600 C.3   171  THR171      0.0378
    106  N         83.4460   -0.0680   89.8290 N.3   231  THR231     -0.1218
    107  CA        83.0660    0.9150   88.8090 C.3   231  THR231      0.1862
    108  C         81.7220    0.5290   88.1930 C.2   231  THR231      0.2287
    109  O         81.3390   -0.6310   88.2530 O.2   231  THR231     -0.2866
    110  CB        84.1690    1.0340   87.7120 C.3   231  THR231      0.1770
    111  OG1       84.4910   -0.2680   87.2020 O.3   231  THR231     -0.2211
    112  CG2       85.4350    1.6350   88.2910 C.3   231  THR231      0.0375
    113  N         82.8260   -1.2720   82.7970 N.3   234  HIS234     -0.1241
    114  CA        84.1740   -1.8370   82.8080 C.3   234  HIS234      0.1621
    115  C         84.3980   -2.6330   84.1100 C.2   234  HIS234      0.2264
    116  O         85.4090   -2.4550   84.7970 O.2   234  HIS234     -0.2867
    117  CB        85.2270   -0.7290   82.6630 C.3   234  HIS234      0.0745
    118  CG        85.1170    0.0440   81.3790 C.ar  234  HIS234      0.0817
    119  ND1       84.5040    1.2760   81.3050 N.ar  234  HIS234     -0.2268
    120  CD2       85.5230   -0.2510   80.1160 C.ar  234  HIS234      0.1154
    121  CE1       84.5500    1.7160   80.0570 C.ar  234  HIS234      0.1986
    122  NE2       85.1580    0.8070   79.3140 N.ar  234  HIS234     -0.2212
    123  N         87.4770   -4.8340   84.5910 N.3   237  VAL237     -0.1245
    124  CA        88.7340   -4.1230   84.4380 C.3   237  VAL237      0.1561
    125  C         89.3070   -3.8000   85.8050 C.2   237  VAL237      0.2260
    126  O         88.5780   -3.3790   86.7040 O.2   237  VAL237     -0.2867
    127  CB        88.5380   -2.8210   83.6200 C.3   237  VAL237      0.0252
    128  CG1       89.7760   -1.9660   83.6810 C.3   237  VAL237      0.0019
    129  CG2       88.1730   -3.1660   82.1840 C.3   237  VAL237      0.0019
    130  N         99.7670    8.9790   75.1360 N.3   269  PHE269     -0.1241
    131  CA        98.4100    9.4820   75.3270 C.3   269  PHE269      0.1605
    132  C         97.7910   10.1130   74.0760 C.2   269  PHE269      0.2264
    133  O         96.5730   10.1160   73.9260 O.2   269  PHE269     -0.2867
    134  CB        98.3340   10.4120   76.5410 C.3   269  PHE269      0.0534
    135  CG        98.4630    9.6860   77.8580 C.ar  269  PHE269     -0.0203
    136  CD1       97.8070    8.4770   78.0620 C.ar  269  PHE269     -0.0042
    137  CD2       99.2340   10.2050   78.8880 C.ar  269  PHE269     -0.0042
    138  CE1       97.9180    7.7940   79.2760 C.ar  269  PHE269     -0.0003
    139  CE2       99.3520    9.5310   80.1060 C.ar  269  PHE269     -0.0003
    140  CZ        98.6940    8.3230   80.2980 C.ar  269  PHE269     -0.0000
    141  N         82.6390    6.9520   81.2120 N.3   393  VAL393     -0.1245
    142  CA        84.0730    6.9700   81.4990 C.3   393  VAL393      0.1561
    143  C         84.8980    7.6570   80.4060 C.2   393  VAL393      0.2260
    144  O         85.9760    8.1780   80.6780 O.2   393  VAL393     -0.2867
    145  CB        84.6320    5.5420   81.6880 C.3   393  VAL393      0.0252
    146  CG1       85.1210    4.9740   80.3550 C.3   393  VAL393      0.0019
    147  CG2       85.7580    5.5490   82.7070 C.3   393  VAL393      0.0019
    148  N         86.1820   11.2420   80.9920 N.3   396  ILE396     -0.1231
    149  CA        87.0050   11.4130   82.1980 C.3   396  ILE396      0.1692
    150  C         88.2960   10.5930   82.2610 C.2   396  ILE396      0.2592
    151  O         89.2410   10.9720   82.9580 O.2   396  ILE396     -0.2718
    152  CB        86.1810   11.1810   83.4950 C.3   396  ILE396      0.0266
    153  CG1       85.6010    9.7710   83.5090 C.3   396  ILE396      0.0019
    154  CG2       85.0610   12.2090   83.5890 C.3   396  ILE396      0.0020
    155  CD1       84.5980    9.5210   84.6230 C.3   396  ILE396      0.0001
    156  N         88.3620    9.4790   81.5430 N.am  397  PHE397     -0.1962
    157  CA        89.5750    8.6700   81.6300 C.3   397  PHE397      0.1771
    158  C         90.5470    8.9520   80.4980 C.2   397  PHE397      0.2620
    159  O         90.2750    9.7840   79.6240 O.2   397  PHE397     -0.2715
    160  CB        89.2700    7.1680   81.7810 C.3   397  PHE397      0.0574
    161  CG        89.0540    6.4330   80.4840 C.ar  397  PHE397     -0.0200
    162  CD1       88.6690    7.0980   79.3260 C.ar  397  PHE397     -0.0042
    163  CD2       89.2090    5.0540   80.4340 C.ar  397  PHE397     -0.0042
    164  CE1       88.4660    6.4070   78.1440 C.ar  397  PHE397     -0.0003
    165  CE2       88.9990    4.3580   79.2490 C.ar  397  PHE397     -0.0003
    166  CZ        88.6310    5.0410   78.1050 C.ar  397  PHE397     -0.0000
    167  N         91.6880    8.2750   80.5330 N.am  398  ASP398     -0.1957
    168  CA        92.7250    8.4760   79.5300 C.3   398  ASP398      0.1840
    169  C         93.0180    9.9660   79.3830 C.2   398  ASP398      0.2623
    170  O         93.1030   10.4870   78.2600 O.2   398  ASP398     -0.2715
    171  CB        92.2840    7.8940   78.1860 C.3   398  ASP398      0.1450
    172  CG        93.4570    7.6120   77.2700 C.2   398  ASP398      0.3671
    173  OD1       93.5380    8.2400   76.1970 O.co2 398  ASP398     -0.2456
    174  OD2       94.3130    6.7750   77.6400 O.co2 398  ASP398     -0.2456
    175  N         93.1590   10.6410   80.5200 N.am  399  GLY399     -0.1940
    176  CA        93.3530   12.0790   80.5460 C.3   399  GLY399      0.2014
    177  C         92.0150   12.7660   80.3200 C.2   399  GLY399      0.2639
    178  O         91.5370   12.8480   79.1870 O.2   399  GLY399     -0.2714
    179  N         91.4080   13.2480   81.4010 N.am  400  GLY400     -0.1954
    180  CA        90.0740   13.8140   81.3360 C.3   400  GLY400      0.1869
    181  C         89.9820   15.0600   80.4600 C.2   400  GLY400      0.2309
    182  O         90.9270   15.8540   80.3610 O.2   400  GLY400     -0.2863
    183  N         88.3090   17.8470   80.8120 N.3   402  VAL402     -0.1231
    184  CA        88.2290   19.1600   81.4500 C.3   402  VAL402      0.1692
    185  C         89.5640   19.6700   81.9800 C.2   402  VAL402      0.2593
    186  O         89.9280   20.8230   81.7550 O.2   402  VAL402     -0.2718
    187  CB        87.1770   19.1680   82.5910 C.3   402  VAL402      0.0266
    188  CG1       87.2010   20.4850   83.3230 C.3   402  VAL402      0.0020
    189  CG2       85.8000   18.8980   82.0280 C.3   402  VAL402      0.0020
    190  N         90.2920   18.8210   82.6980 N.am  403  GLY403     -0.1942
    191  CA        91.5280   19.2550   83.3210 C.3   403  GLY403      0.2014
    192  C         92.7800   18.8740   82.5370 C.2   403  GLY403      0.2638
    193  O         93.8610   19.3830   82.8140 O.2   403  GLY403     -0.2714
    194  N         92.6450   17.9810   81.5620 N.am  404  ILE404     -0.1977
    195  CA        93.8150   17.5550   80.7890 C.3   404  ILE404      0.1596
    196  C         93.7030   17.8070   79.2780 C.2   404  ILE404      0.2287
    197  O         94.4340   18.6380   78.7350 O.2   404  ILE404     -0.2864
    198  CB        94.1950   16.0740   81.0670 C.3   404  ILE404      0.0276
    199  CG1       94.5030   15.8710   82.5590 C.3   404  ILE404      0.0022
    200  CG2       95.3980   15.6510   80.1960 C.3   404  ILE404      0.0022
    201  CD1       94.7180   14.3890   82.9690 C.3   404  ILE404      0.0001
    202  N         93.2440   21.3680   78.2940 N.3   407  ARG407     -0.1245
    203  CA        94.3890   22.1840   78.6880 C.3   407  ARG407      0.1563
    204  C         95.5080   22.0410   77.6530 C.2   407  ARG407      0.2260
    205  O         96.2680   22.9820   77.4010 O.2   407  ARG407     -0.2867
    206  CB        94.9340   21.8160   80.0890 C.3   407  ARG407      0.0307
    207  CG        94.0040   22.1270   81.2590 C.3   407  ARG407      0.0489
    208  CD        93.2190   23.4090   81.0360 C.3   407  ARG407      0.2205
    209  NE        91.8010   23.0950   80.9660 N.pl3 407  ARG407     -0.0865
    210  CZ        90.8990   23.7460   80.2360 C.cat 407  ARG407      0.5346
    211  NH1       91.2460   24.7930   79.4850 N.pl3 407  ARG407      0.1354
    212  NH2       89.6340   23.3310   80.2660 N.pl3 407  ARG407      0.1354
@<TRIPOS>BOND
     1   133   132    2
     2   132   131    1
     3   130   131    1
     4   131   134    1
     5    14    15    1
     6   173   172   ar
     7    15    18    1
     8    15    16    1
     9   134   135    1
    10    20    19    1
    11    17    16    2
    12     1     2    1
    13    18    19    1
    14   172   174   ar
    15   172   171    1
    16     9    10    1
    17   205   204    2
    18     2     3    1
    19     2     5    1
    20    19    21    1
    21   204   203    1
    22   135   136   ar
    23   135   137   ar
    24   136   138   ar
    25     7     6    1
    26   166   164   ar
    27   166   165   ar
    28   164   162   ar
    29   171   168    1
    30     4     3    2
    31   170   169    2
    32    11    10    1
    33    11    12    2
    34   202   203    1
    35    10    13    1
    36     5     6    1
    37   203   206    1
    38   197   196    2
    39   137   139   ar
    40     6     8    1
    41   178   177    2
    42    29    27    1
    43   165   163   ar
    44   138   140   ar
    45   196   195    1
    46   122   121   ar
    47   122   120   ar
    48   162   161   ar
    49   169   168    1
    50   169   175   am
    51   211   210    1
    52   168   167    1
    53   159   158    2
    54   121   119   ar
    55   206   207    1
    56   139   140   ar
    57   120   118   ar
    58   200   198    1
    59   210   212    1
    60   210   209    2
    61   177   176    1
    62   177   179   am
    63   146   145    1
    64   182   181    2
    65   143   144    2
    66   143   142    1
    67   163   161   ar
    68   181   180    1
    69   161   160    1
    70   158   167   am
    71   158   157    1
    72   175   176    1
    73    27    26    1
    74    27    28    1
    75    26    23    1
    76   195   198    1
    77   195   194    1
    78   183   184    1
    79   209   208    1
    80   148   149    1
    81   208   207    1
    82   198   199    1
    83   141   142    1
    84   119   118   ar
    85   180   179    1
    86   118   117    1
    87   184   185    1
    88   184   187    1
    89   142   145    1
    90   156   157    1
    91   156   150   am
    92   194   192   am
    93   157   160    1
    94    22    23    1
    95   145   147    1
    96   186   185    2
    97    23    24    1
    98   185   190   am
    99   189   187    1
   100   129   127    1
   101   149   150    1
   102   149   152    1
   103   150   151    2
   104   192   193    2
   105   192   191    1
   106   199   201    1
   107   187   188    1
   108   105   103    1
   109   117   114    1
   110   190   191    1
   111   113   114    1
   112   114   115    1
   113   103   104    1
   114   103   100    1
   115    24    25    2
   116    39    37   ar
   117    39    40   ar
   118    37    35   ar
   119   152   153    1
   120   152   154    1
   121   153   155    1
   122    40    38   ar
   123   102   101    2
   124   127   128    1
   125   127   124    1
   126    35    34    1
   127    35    36   ar
   128   115   116    2
   129    38    36   ar
   130    34    31    1
   131   101   100    1
   132   100    99    1
   133   124   123    1
   134   124   125    1
   135    99    96   am
   136    61    60    2
   137    31    30    1
   138    31    32    1
   139   125   126    2
   140    59    62    1
   141    59    60    1
   142    59    58    1
   143    83    82    2
   144    96    95    1
   145    96    97    2
   146    46    45    1
   147    60    63   am
   148    54    53    2
   149    95    98    1
   150    95    94    1
   151    57    55    1
   152    32    41   am
   153    32    33    2
   154    41    42    1
   155    58    53   am
   156    71    72    1
   157    53    52    1
   158    82    94   am
   159    82    81    1
   160   111   110    1
   161    72    75    1
   162    72    73    1
   163    45    42    1
   164    63    64    1
   165    55    52    1
   166    55    56    1
   167    70    68   am
   168    42    43    1
   169    64    65    1
   170    64    67    1
   171    84    81    1
   172    84    85    1
   173   110   112    1
   174   110   107    1
   175    75    76    1
   176    65    66    2
   177    52    51    1
   178    81    80    1
   179    79    77   ar
   180    73    74    2
   181    76    77    1
   182   108   109    2
   183   108   107    1
   184    90    92   ar
   185    90    87   ar
   186    68    67    1
   187    68    69    2
   188    85    87   ar
   189    85    86   ar
   190    77    78   ar
   191    92    93   ar
   192    87    89   ar
   193    51    49   am
   194   107   106    1
   195    43    44    2
   196    86    88   ar
   197    93    91   ar
   198    89    88   ar
   199    89    91   ar
   200    49    50    2
   201    49    48    1
   202    48    47    1
