@<TRIPOS>MOLECULE
tmp/3mkhC01.pdb
 106 101 0 0 0
SMALL
GASTEIGER

@<TRIPOS>ATOM
      1  N         56.1720   -1.4180   68.1230 N.3   299  ASN299     -0.1225
      2  CA        55.5390   -0.1230   67.8480 C.3   299  ASN299      0.1785
      3  C         54.9100    0.5290   69.0950 C.2   299  ASN299      0.2597
      4  O         54.1670    1.5100   68.9900 O.2   299  ASN299     -0.2718
      5  CB        54.5400   -0.2080   66.6770 C.3   299  ASN299      0.1169
      6  CG        53.3190   -1.0620   66.9970 C.2   299  ASN299      0.2627
      7  OD1       52.3960   -1.1710   66.1820 O.2   299  ASN299     -0.2716
      8  ND2       53.3040   -1.6650   68.1850 N.am  299  ASN299     -0.0877
      9  N         55.2360   -0.0260   70.2630 N.am  300  ARG300     -0.1979
     10  CA        54.7640    0.4820   71.5510 C.3   300  ARG300      0.1597
     11  C         53.2460    0.4750   71.6250 C.2   300  ARG300      0.2287
     12  O         52.6410    1.3950   72.1750 O.2   300  ARG300     -0.2864
     13  CB        55.2940    1.8990   71.8110 C.3   300  ARG300      0.0334
     14  CG        56.8110    2.0110   71.8860 C.3   300  ARG300      0.0492
     15  CD        57.3420    1.4970   73.2050 C.3   300  ARG300      0.2205
     16  NE        57.0260    0.0870   73.3950 N.pl3 300  ARG300     -0.0865
     17  CZ        56.9270   -0.4990   74.5860 C.cat 300  ARG300      0.5346
     18  NH1       57.1120    0.2130   75.6930 N.pl3 300  ARG300      0.1354
     19  NH2       56.6350   -1.7940   74.6750 N.pl3 300  ARG300      0.1354
     20  N         56.8270    2.5890   64.9680 N.3   306  LEU306     -0.1245
     21  CA        57.4870    3.5490   65.8680 C.3   306  LEU306      0.1561
     22  C         58.2340    4.6650   65.1030 C.2   306  LEU306      0.2260
     23  O         58.0180    5.8620   65.3550 O.2   306  LEU306     -0.2867
     24  CB        58.4140    2.8230   66.8530 C.3   306  LEU306      0.0270
     25  CG        58.7970    3.5850   68.1290 C.3   306  LEU306      0.0019
     26  CD1       57.5800    4.2330   68.7960 C.3   306  LEU306      0.0001
     27  CD2       59.5260    2.6810   69.1120 C.3   306  LEU306      0.0001
     28  N         56.9620    8.2840   64.1590 N.3   309  ARG309     -0.1245
     29  CA        56.8280    9.4400   65.0310 C.3   309  ARG309      0.1563
     30  C         57.9910   10.3820   64.7540 C.2   309  ARG309      0.2260
     31  O         59.1490   10.0110   64.9590 O.2   309  ARG309     -0.2867
     32  CB        56.8470    9.0170   66.5010 C.3   309  ARG309      0.0307
     33  CG        55.9840    7.8100   66.8240 C.3   309  ARG309      0.0489
     34  CD        54.5110    8.1350   66.6840 C.3   309  ARG309      0.2205
     35  NE        53.6820    6.9540   66.9070 N.pl3 309  ARG309     -0.0865
     36  CZ        52.3530    6.9570   66.8680 C.cat 309  ARG309      0.5346
     37  NH1       51.7010    8.0890   66.6140 N.pl3 309  ARG309      0.1354
     38  NH2       51.6780    5.8280   67.0790 N.pl3 309  ARG309      0.1354
     39  N         59.1630   12.6640   66.4340 N.3   311  ALA311     -0.1231
     40  CA        59.9600   12.7620   67.6640 C.3   311  ALA311      0.1694
     41  C         60.9170   11.5880   67.9190 C.2   311  ALA311      0.2592
     42  O         62.0630   11.7960   68.3280 O.2   311  ALA311     -0.2718
     43  CB        59.0440   12.9860   68.8860 C.3   311  ALA311      0.0304
     44  N         60.4560   10.3630   67.7010 N.am  312  PHE312     -0.1976
     45  CA        61.3090    9.1980   67.9040 C.3   312  PHE312      0.1639
     46  C         62.3990    9.0240   66.8220 C.2   312  PHE312      0.2290
     47  O         63.5560    8.6880   67.1210 O.2   312  PHE312     -0.2864
     48  CB        60.4860    7.9180   67.9680 C.3   312  PHE312      0.0560
     49  CG        61.3270    6.6870   68.0760 C.ar  312  PHE312     -0.0200
     50  CD1       61.8420    6.0830   66.9430 C.ar  312  PHE312     -0.0042
     51  CD2       61.6470    6.1550   69.3170 C.ar  312  PHE312     -0.0042
     52  CE1       62.6480    4.9630   67.0420 C.ar  312  PHE312     -0.0003
     53  CE2       62.4540    5.0250   69.4190 C.ar  312  PHE312     -0.0003
     54  CZ        62.9500    4.4320   68.2780 C.ar  312  PHE312     -0.0000
     55  N         65.3590   11.5050   67.2280 N.3   315  LEU315     -0.1245
     56  CA        66.3620   11.1350   68.2260 C.3   315  LEU315      0.1561
     57  C         67.3430   10.1180   67.6340 C.2   315  LEU315      0.2260
     58  O         68.5450   10.2160   67.8280 O.2   315  LEU315     -0.2867
     59  CB        65.6870   10.5300   69.4610 C.3   315  LEU315      0.0270
     60  CG        65.6130   11.2810   70.7980 C.3   315  LEU315      0.0019
     61  CD1       66.3180   12.6430   70.8250 C.3   315  LEU315      0.0001
     62  CD2       64.1580   11.3950   71.2370 C.3   315  LEU315      0.0001
     63  N         66.0760    7.9570   76.1910 N.3   371  ASN371     -0.1225
     64  CA        64.8560    8.7530   76.0320 C.3   371  ASN371      0.1785
     65  C         63.9590    8.2450   74.9050 C.2   371  ASN371      0.2597
     66  O         62.7410    8.2150   75.0450 O.2   371  ASN371     -0.2718
     67  CB        65.1710   10.2390   75.8090 C.3   371  ASN371      0.1169
     68  CG        65.6600   10.9310   77.0690 C.2   371  ASN371      0.2627
     69  OD1       65.3400   10.5110   78.1820 O.2   371  ASN371     -0.2716
     70  ND2       66.4380   11.9980   76.9020 N.am  371  ASN371     -0.0877
     71  N         64.5610    7.8510   73.7850 N.am  372  ALA372     -0.1966
     72  CA        63.7800    7.4030   72.6370 C.3   372  ALA372      0.1728
     73  C         63.1130    6.0380   72.8750 C.2   372  ALA372      0.2616
     74  O         61.9390    5.8490   72.5570 O.2   372  ALA372     -0.2715
     75  CB        64.6380    7.3920   71.3590 C.3   372  ALA372      0.0334
     76  N         63.8610    5.0950   73.4360 N.am  373  VAL373     -0.1963
     77  CA        63.3300    3.7570   73.7080 C.3   373  VAL373      0.1727
     78  C         62.2820    3.8240   74.8240 C.2   373  VAL373      0.2617
     79  O         61.2920    3.0840   74.8220 O.2   373  VAL373     -0.2715
     80  CB        64.4580    2.7740   74.0560 C.3   373  VAL373      0.0290
     81  CG1       63.9080    1.5130   74.6910 C.3   373  VAL373      0.0023
     82  CG2       65.2590    2.4380   72.7950 C.3   373  VAL373      0.0023
     83  N         62.4990    4.7380   75.7620 N.am  374  GLY374     -0.1940
     84  CA        61.5100    5.0260   76.7830 C.3   374  GLY374      0.2014
     85  C         61.6960    4.1690   78.0150 C.2   374  GLY374      0.2638
     86  O         62.7670    3.5940   78.2270 O.2   374  GLY374     -0.2714
     87  N         60.6390    4.0710   78.8190 N.am  375  ILE375     -0.1977
     88  CA        60.7080    3.3520   80.0840 C.3   375  ILE375      0.1596
     89  C         61.3850    1.9830   79.9460 C.2   375  ILE375      0.2287
     90  O         62.1000    1.5610   80.8430 O.2   375  ILE375     -0.2864
     91  CB        59.3090    3.2260   80.7550 C.3   375  ILE375      0.0276
     92  CG1       59.4540    3.1770   82.2740 C.3   375  ILE375      0.0022
     93  CG2       58.5490    2.0200   80.2250 C.3   375  ILE375      0.0022
     94  CD1       60.2540    4.3340   82.8430 C.3   375  ILE375      0.0001
     95  N         65.1410    1.4650   81.0760 N.3   378  TYR378     -0.1241
     96  CA        65.5860    1.3770   82.4660 C.3   378  TYR378      0.1605
     97  C         65.7100   -0.1040   82.8530 C.2   378  TYR378      0.2264
     98  O         66.3090   -0.4380   83.8680 O.2   378  TYR378     -0.2867
     99  CB        64.5840    2.0990   83.3910 C.3   378  TYR378      0.0534
    100  CG        65.1490    2.6580   84.6950 C.ar  378  TYR378     -0.0201
    101  CD1       66.1500    3.6290   84.6860 C.ar  378  TYR378     -0.0009
    102  CD2       64.6500    2.2480   85.9320 C.ar  378  TYR378     -0.0009
    103  CE1       66.6560    4.1570   85.8710 C.ar  378  TYR378      0.0417
    104  CE2       65.1520    2.7710   87.1310 C.ar  378  TYR378      0.0417
    105  CZ        66.1530    3.7220   87.0920 C.ar  378  TYR378      0.1957
    106  OH        66.6640    4.2470   88.2570 O.3   378  TYR378     -0.2866
@<TRIPOS>BOND
     1    28    29    1
     2    30    31    2
     3    30    29    1
     4    20    21    1
     5    29    32    1
     6    22    23    2
     7    22    21    1
     8    21    24    1
     9     7     6    2
    10    39    40    1
    11    32    33    1
    12    37    36    1
    13     5     6    1
    14     5     2    1
    15    34    33    1
    16    34    35    1
    17    46    47    2
    18    46    45    1
    19    24    25    1
    20    36    35    2
    21    36    38    1
    22    50    52   ar
    23    50    49   ar
    24     6     8   am
    25    52    54   ar
    26    55    56    1
    27    57    58    2
    28    57    56    1
    29    40    41    1
    30    40    43    1
    31    44    45    1
    32    44    41   am
    33     2     1    1
    34     2     3    1
    35    45    48    1
    36    41    42    2
    37    48    49    1
    38    49    51   ar
    39    25    26    1
    40    25    27    1
    41    56    59    1
    42    54    53   ar
    43     4     3    2
    44     3     9   am
    45    51    53   ar
    46    59    60    1
    47     9    10    1
    48    60    61    1
    49    60    62    1
    50    75    72    1
    51    10    11    1
    52    10    13    1
    53    11    12    2
    54    13    14    1
    55    14    15    1
    56    74    73    2
    57    72    73    1
    58    72    71    1
    59    82    80    1
    60    73    76   am
    61    15    16    1
    62    16    17    2
    63    76    77    1
    64    77    80    1
    65    77    78    1
    66    71    65   am
    67    80    81    1
    68    17    19    1
    69    17    18    1
    70    79    78    2
    71    78    83   am
    72    65    66    2
    73    65    64    1
    74    83    84    1
    75    67    64    1
    76    67    68    1
    77    64    63    1
    78    84    85    1
    79    70    68   am
    80    68    69    2
    81    85    86    2
    82    85    87   am
    83    87    88    1
    84    89    88    1
    85    89    90    2
    86    88    91    1
    87    93    91    1
    88    91    92    1
    89    95    96    1
    90    92    94    1
    91    96    97    1
    92    96    99    1
    93    97    98    2
    94    99   100    1
    95   101   100   ar
    96   101   103   ar
    97   100   102   ar
    98   103   105   ar
    99   102   104   ar
   100   105   104   ar
   101   105   106    1
