@<TRIPOS>MOLECULE
tmp/3mkkA00.pdb
 133 132 0 0 0
SMALL
GASTEIGER

@<TRIPOS>ATOM
      1  N         -4.1570  -14.7230   21.0200 N.3   170  TRP170     -0.1241
      2  CA        -3.1000  -15.6720   20.8640 C.3   170  TRP170      0.1605
      3  C         -3.6850  -17.0290   21.3010 C.2   170  TRP170      0.2264
      4  O         -3.8670  -17.2840   22.5020 O.2   170  TRP170     -0.2867
      5  CB        -1.9120  -15.2210   21.7350 C.3   170  TRP170      0.0550
      6  CG        -0.7610  -16.1420   21.7600 C.ar  170  TRP170      0.0003
      7  CD1       -0.5680  -17.2600   20.9870 C.ar  170  TRP170      0.0946
      8  CD2        0.3990  -16.0170   22.5860 C.ar  170  TRP170      0.0152
      9  NE1        0.6350  -17.8400   21.3000 N.ar  170  TRP170     -0.2442
     10  CE2        1.2540  -17.0930   22.2740 C.ar  170  TRP170      0.0810
     11  CE3        0.7980  -15.0960   23.5660 C.ar  170  TRP170      0.0012
     12  CZ2        2.4910  -17.2860   22.9200 C.ar  170  TRP170      0.0191
     13  CZ3        2.0510  -15.2840   24.2060 C.ar  170  TRP170      0.0001
     14  CH2        2.8650  -16.3740   23.8790 C.ar  170  TRP170      0.0015
     15  N         -3.1840  -14.9170   14.8630 N.3   198  ASP198     -0.1225
     16  CA        -1.8860  -14.8680   15.5420 C.3   198  ASP198      0.1805
     17  C         -1.0910  -16.0870   15.0710 C.2   198  ASP198      0.2597
     18  O         -1.5880  -16.8790   14.2450 O.2   198  ASP198     -0.2718
     19  CB        -2.1140  -14.8370   17.0660 C.3   198  ASP198      0.1424
     20  CG        -0.9850  -14.1380   17.8380 C.2   198  ASP198      0.3668
     21  OD1       -1.2710  -13.5980   18.9250 O.co2 198  ASP198     -0.2456
     22  OD2        0.1850  -14.1590   17.3880 O.co2 198  ASP198     -0.2456
     23  N          0.1020  -16.2490   15.6390 N.am  199  ILE199     -0.1980
     24  CA         1.1890  -17.1170   15.1400 C.3   199  ILE199      0.1595
     25  C          0.8320  -18.5860   14.8700 C.2   199  ILE199      0.2287
     26  O          1.5650  -19.2750   14.1640 O.2   199  ILE199     -0.2864
     27  CB         2.4140  -17.0650   16.0860 C.3   199  ILE199      0.0276
     28  CG1        1.9760  -17.3250   17.5450 C.3   199  ILE199      0.0022
     29  CG2        3.1230  -15.7170   15.9730 C.3   199  ILE199      0.0022
     30  CD1        3.1170  -17.4950   18.5400 C.3   199  ILE199      0.0001
     31  N         -0.4570  -12.2640   11.2980 N.3   235  ILE235     -0.1245
     32  CA         0.7770  -11.7120   11.8630 C.3   235  ILE235      0.1561
     33  C          1.9880  -12.2390   11.0680 C.2   235  ILE235      0.2260
     34  O          1.9640  -13.3460   10.5310 O.2   235  ILE235     -0.2867
     35  CB         0.8830  -12.0630   13.3870 C.3   235  ILE235      0.0252
     36  CG1        1.9240  -11.2170   14.1310 C.3   235  ILE235      0.0019
     37  CG2        1.1750  -13.5620   13.6050 C.3   235  ILE235      0.0019
     38  CD1        1.9810  -11.5030   15.6600 C.3   235  ILE235      0.0001
     39  N          9.7410  -17.7910   18.4230 N.3   272  TRP272     -0.1241
     40  CA         8.7130  -18.8330   18.3290 C.3   272  TRP272      0.1605
     41  C          9.1050  -20.1550   17.6450 C.2   272  TRP272      0.2264
     42  O          8.8150  -21.2190   18.1830 O.2   272  TRP272     -0.2867
     43  CB         7.4210  -18.2830   17.6950 C.3   272  TRP272      0.0550
     44  CG         6.9330  -17.0510   18.3350 C.ar  272  TRP272      0.0003
     45  CD1        6.7400  -15.8490   17.7290 C.ar  272  TRP272      0.0946
     46  CD2        6.5780  -16.8650   19.7250 C.ar  272  TRP272      0.0152
     47  NE1        6.2740  -14.9270   18.6410 N.ar  272  TRP272     -0.2442
     48  CE2        6.1730  -15.5210   19.8710 C.ar  272  TRP272      0.0810
     49  CE3        6.5410  -17.7080   20.8490 C.ar  272  TRP272      0.0012
     50  CZ2        5.7190  -14.9980   21.0900 C.ar  272  TRP272      0.0191
     51  CZ3        6.1100  -17.1840   22.0760 C.ar  272  TRP272      0.0001
     52  CH2        5.7110  -15.8390   22.1820 C.ar  272  TRP272      0.0015
     53  N         -0.2020   -7.5600   10.5120 N.3   306  TRP306     -0.1241
     54  CA         0.4820   -6.9310   11.6370 C.3   306  TRP306      0.1605
     55  C          1.8490   -7.5970   11.8490 C.2   306  TRP306      0.2264
     56  O          2.0510   -8.7560   11.4670 O.2   306  TRP306     -0.2867
     57  CB        -0.4010   -6.8880   12.9070 C.3   306  TRP306      0.0550
     58  CG        -0.9920   -8.2220   13.4050 C.ar  306  TRP306      0.0003
     59  CD1       -1.6960   -9.1370   12.6800 C.ar  306  TRP306      0.0946
     60  CD2       -0.9420   -8.7340   14.7450 C.ar  306  TRP306      0.0152
     61  NE1       -2.0760  -10.1990   13.4710 N.ar  306  TRP306     -0.2442
     62  CE2       -1.6210   -9.9800   14.7440 C.ar  306  TRP306      0.0810
     63  CE3       -0.3960   -8.2600   15.9500 C.ar  306  TRP306      0.0012
     64  CZ2       -1.7680  -10.7620   15.9010 C.ar  306  TRP306      0.0191
     65  CZ3       -0.5100   -9.0600   17.0990 C.ar  306  TRP306      0.0001
     66  CH2       -1.2020  -10.2900   17.0630 C.ar  306  TRP306      0.0015
     67  N          5.1080   -8.3140   14.6070 N.3   308  ALA308     -0.1231
     68  CA         5.5220   -8.2980   16.0180 C.3   308  ALA308      0.1694
     69  C          6.9550   -8.7860   16.1390 C.2   308  ALA308      0.2591
     70  O          7.5500   -9.2020   15.1460 O.2   308  ALA308     -0.2718
     71  CB         4.5740   -9.1250   16.8880 C.3   308  ALA308      0.0304
     72  N          7.4930   -8.7300   17.3560 N.am  309  MET309     -0.1979
     73  CA         8.8570   -9.2220   17.6570 C.3   309  MET309      0.1605
     74  C          9.9110   -8.4890   16.8210 C.2   309  MET309      0.2287
     75  O         11.0370   -8.9970   16.6190 O.2   309  MET309     -0.2864
     76  CB         8.9870  -10.7480   17.4510 C.3   309  MET309      0.0413
     77  CG         7.7190  -11.6020   17.7900 C.3   309  MET309      0.0598
     78  SD         7.1170  -11.3640   19.5010 S.3   309  MET309     -0.1393
     79  CE         8.3580  -12.3110   20.3890 C.3   309  MET309      0.0692
     80  N          4.9340   -3.2960   16.0430 N.3   405  ARG405     -0.1245
     81  CA         5.1440   -3.1250   17.4890 C.3   405  ARG405      0.1563
     82  C          6.2270   -2.0840   17.7700 C.2   405  ARG405      0.2260
     83  O          5.9900   -1.0550   18.4080 O.2   405  ARG405     -0.2867
     84  CB         5.5400   -4.4600   18.1630 C.3   405  ARG405      0.0307
     85  CG         5.2930   -4.4440   19.6960 C.3   405  ARG405      0.0489
     86  CD         5.2060   -5.8440   20.2880 C.3   405  ARG405      0.2205
     87  NE         6.5180   -6.4760   20.3030 N.pl3 405  ARG405     -0.0865
     88  CZ         6.8060   -7.6130   20.9400 C.cat 405  ARG405      0.5346
     89  NH1        8.0420   -8.0940   20.8970 N.pl3 405  ARG405      0.1354
     90  NH2        5.8730   -8.2790   21.6180 N.pl3 405  ARG405      0.1354
     91  N          0.4310   -0.6650   17.2950 N.3   418  TRP418     -0.1241
     92  CA        -0.3950   -0.8500   18.4600 C.3   418  TRP418      0.1605
     93  C          0.5370   -0.7290   19.6480 C.2   418  TRP418      0.2264
     94  O          1.7770   -0.8600   19.4990 O.2   418  TRP418     -0.2867
     95  CB        -1.1780   -2.1610   18.3870 C.3   418  TRP418      0.0550
     96  CG        -0.5330   -3.4110   19.0080 C.ar  418  TRP418      0.0003
     97  CD1       -0.8410   -3.9750   20.2180 C.ar  418  TRP418      0.0946
     98  CD2        0.4460   -4.2600   18.4100 C.ar  418  TRP418      0.0152
     99  NE1       -0.0860   -5.1060   20.4280 N.ar  418  TRP418     -0.2442
    100  CE2        0.7000   -5.3190   19.3270 C.ar  418  TRP418      0.0810
    101  CE3        1.1220   -4.2470   17.1870 C.ar  418  TRP418      0.0012
    102  CZ2        1.6120   -6.3300   19.0650 C.ar  418  TRP418      0.0191
    103  CZ3        2.0190   -5.2640   16.9110 C.ar  418  TRP418      0.0001
    104  CH2        2.2700   -6.2880   17.8530 C.ar  418  TRP418      0.0015
    105  N          2.2900   -5.0700   24.4670 N.3   421  ASP421     -0.1239
    106  CA         1.7130   -6.0200   25.4290 C.3   421  ASP421      0.1674
    107  C          1.3450   -5.3070   26.7100 C.2   421  ASP421      0.2266
    108  O          2.1660   -5.2260   27.6370 O.2   421  ASP421     -0.2867
    109  CB         2.6790   -7.1780   25.7120 C.3   421  ASP421      0.1410
    110  CG         2.9630   -7.9950   24.4830 C.2   421  ASP421      0.3668
    111  OD1        2.1110   -7.9950   23.5750 O.co2 421  ASP421     -0.2456
    112  OD2        4.0410   -8.6210   24.4180 O.co2 421  ASP421     -0.2456
    113  N         -3.9930   -7.0990   27.2030 N.3   454  PHE454     -0.1241
    114  CA        -3.3970   -8.2710   26.5700 C.3   454  PHE454      0.1605
    115  C         -3.0850   -9.3380   27.6080 C.2   454  PHE454      0.2264
    116  O         -3.5660  -10.4580   27.5070 O.2   454  PHE454     -0.2867
    117  CB        -2.1350   -7.8550   25.8150 C.3   454  PHE454      0.0534
    118  CG        -1.2700   -9.0120   25.3280 C.ar  454  PHE454     -0.0203
    119  CD1       -0.0470   -9.2940   25.9410 C.ar  454  PHE454     -0.0042
    120  CD2       -1.6480   -9.7610   24.2170 C.ar  454  PHE454     -0.0042
    121  CE1        0.8000  -10.3260   25.4580 C.ar  454  PHE454     -0.0003
    122  CE2       -0.8740  -10.7940   23.7350 C.ar  454  PHE454     -0.0003
    123  CZ         0.4030  -11.0890   24.3490 C.ar  454  PHE454     -0.0000
    124  N         -7.6500   -7.7710   22.0090 N.3   479  HIS479     -0.1241
    125  CA        -6.6440   -8.8390   21.8320 C.3   479  HIS479      0.1621
    126  C         -6.1680   -9.3610   23.1910 C.2   479  HIS479      0.2264
    127  O         -6.1590   -8.6170   24.1800 O.2   479  HIS479     -0.2867
    128  CB        -5.4480   -8.3520   20.9820 C.3   479  HIS479      0.0745
    129  CG        -4.4280   -9.4150   20.6970 C.ar  479  HIS479      0.0817
    130  ND1       -4.7550  -10.6320   20.1380 N.ar  479  HIS479     -0.2268
    131  CD2       -3.0860   -9.4360   20.8930 C.ar  479  HIS479      0.1154
    132  CE1       -3.6610  -11.3680   20.0200 C.ar  479  HIS479      0.1986
    133  NE2       -2.6300  -10.6560   20.4500 N.ar  479  HIS479     -0.2212
@<TRIPOS>BOND
     1    53    54    1
     2    34    33    2
     3    33    32    1
     4    31    32    1
     5    56    55    2
     6    54    55    1
     7    54    57    1
     8    32    35    1
     9    59    58   ar
    10    59    61   ar
    11    57    58    1
    12    35    37    1
    13    35    36    1
    14    58    60   ar
    15    61    62   ar
    16    36    38    1
    17    26    25    2
    18    18    17    2
    19    67    68    1
    20    62    60   ar
    21    62    64   ar
    22    60    63   ar
    23    15    16    1
    24    25    24    1
    25    17    16    1
    26    17    23   am
    27    24    23    1
    28    24    27    1
    29    70    69    2
    30    16    19    1
    31    64    66   ar
    32    63    65   ar
    33    29    27    1
    34    68    69    1
    35    68    71    1
    36    80    81    1
    37    27    28    1
    38    69    72   am
    39    75    74    2
    40    74    73    1
    41   103   101   ar
    42   103   104   ar
    43    66    65   ar
    44    19    20    1
    45   101    98   ar
    46    91    92    1
    47    72    73    1
    48    22    20   ar
    49    76    73    1
    50    76    77    1
    51    81    82    1
    52    81    84    1
    53    28    30    1
    54    41    42    2
    55    41    40    1
    56    43    40    1
    57    43    44    1
    58    45    44   ar
    59    45    47   ar
    60    82    83    2
    61    77    78    1
    62    20    21   ar
    63   104   102   ar
    64    84    85    1
    65    40    39    1
    66    44    46   ar
    67    95    92    1
    68    95    96    1
    69    98    96   ar
    70    98   100   ar
    71    92    93    1
    72    47    48   ar
    73    96    97   ar
    74   102   100   ar
    75   100    99   ar
    76    94    93    2
    77    78    79    1
    78    85    86    1
    79    46    48   ar
    80    46    49   ar
    81    48    50   ar
    82   132   130   ar
    83   132   133   ar
    84   130   129   ar
    85    97    99   ar
    86    86    87    1
    87    87    88    2
    88   133   131   ar
    89   129   131   ar
    90   129   128    1
    91    49    51   ar
    92     2     1    1
    93     2     3    1
    94     2     5    1
    95    89    88    1
    96    88    90    1
    97   128   125    1
    98     7     9   ar
    99     7     6   ar
   100    50    52   ar
   101     9    10   ar
   102     3     4    2
   103     5     6    1
   104     6     8   ar
   105   125   124    1
   106   125   126    1
   107    51    52   ar
   108    10     8   ar
   109    10    12   ar
   110     8    11   ar
   111    12    14   ar
   112   126   127    2
   113    11    13   ar
   114   111   110   ar
   115   122   120   ar
   116   122   123   ar
   117    14    13   ar
   118   120   118   ar
   119   123   121   ar
   120   112   110   ar
   121   105   106    1
   122   110   109    1
   123   118   117    1
   124   118   119   ar
   125   106   109    1
   126   106   107    1
   127   121   119   ar
   128   117   114    1
   129   114   113    1
   130   114   115    1
   131   107   108    2
   132   116   115    2
