@<TRIPOS>MOLECULE
tmp/3mkkB00.pdb
 175 171 0 0 0
SMALL
GASTEIGER

@<TRIPOS>ATOM
      1  N          4.7100  -13.2280   50.2600 N.3    74  ASP74      -0.1239
      2  CA         5.7820  -12.2790   50.0420 C.3    74  ASP74       0.1674
      3  C          5.8260  -11.9570   48.5400 C.2    74  ASP74       0.2266
      4  O          6.4720  -12.6740   47.7700 O.2    74  ASP74      -0.2867
      5  CB         7.0980  -12.9120   50.5370 C.3    74  ASP74       0.1410
      6  CG         8.3420  -12.0280   50.2840 C.2    74  ASP74       0.3668
      7  OD1        9.4200  -12.3960   50.7550 O.co2  74  ASP74      -0.2456
      8  OD2        8.2300  -10.9680   49.6650 O.co2  74  ASP74      -0.2456
      9  N          6.7630   -8.6430   46.0910 N.3    76  PRO76      -0.2116
     10  CA         7.1330   -7.2230   46.1150 C.3    76  PRO76       0.1372
     11  C          6.6300   -6.3960   44.9120 C.2    76  PRO76       0.2244
     12  O          7.0640   -5.2530   44.7190 O.2    76  PRO76      -0.2868
     13  CB         8.6690   -7.2640   46.1070 C.3    76  PRO76       0.0268
     14  CG         8.9640   -8.4700   45.2670 C.3    76  PRO76       0.0207
     15  CD         7.8740   -9.4910   45.6200 C.3    76  PRO76       0.0892
     16  N         17.3680   -0.1710   53.6730 N.3   170  TRP170     -0.1241
     17  CA        18.0610   -1.4290   53.5690 C.3   170  TRP170      0.1605
     18  C         19.4400   -1.0510   53.0340 C.2   170  TRP170      0.2264
     19  O         19.5990   -0.7620   51.8530 O.2   170  TRP170     -0.2867
     20  CB        17.2860   -2.3450   52.6080 C.3   170  TRP170      0.0550
     21  CG        17.8850   -3.7080   52.3210 C.ar  170  TRP170      0.0003
     22  CD1       19.0180   -4.2980   52.8970 C.ar  170  TRP170      0.0946
     23  CD2       17.3750   -4.6510   51.3860 C.ar  170  TRP170      0.0152
     24  NE1       19.2060   -5.5570   52.3590 N.ar  170  TRP170     -0.2442
     25  CE2       18.2010   -5.7980   51.4420 C.ar  170  TRP170      0.0810
     26  CE3       16.2500   -4.6570   50.5260 C.ar  170  TRP170      0.0012
     27  CZ2       17.9700   -6.9270   50.6260 C.ar  170  TRP170      0.0191
     28  CZ3       16.0180   -5.7800   49.7250 C.ar  170  TRP170      0.0001
     29  CH2       16.8850   -6.8920   49.7710 C.ar  170  TRP170      0.0015
     30  N         17.8910   -1.8310   59.5430 N.3   198  ASP198     -0.1225
     31  CA        17.5720   -2.9560   58.7070 C.3   198  ASP198      0.1805
     32  C         18.6050   -4.0760   58.9100 C.2   198  ASP198      0.2597
     33  O         19.5450   -3.9360   59.7440 O.2   198  ASP198     -0.2718
     34  CB        17.4390   -2.5010   57.2380 C.3   198  ASP198      0.1424
     35  CG        16.4570   -3.3670   56.4600 C.2   198  ASP198      0.3668
     36  OD1       16.3040   -4.5610   56.8270 O.co2 198  ASP198     -0.2456
     37  OD2       15.8050   -2.8780   55.5180 O.co2 198  ASP198     -0.2456
     38  N         18.4660   -5.1610   58.1470 N.am  199  ILE199     -0.1980
     39  CA        19.1250   -6.4560   58.4980 C.3   199  ILE199      0.1595
     40  C         20.6140   -6.3970   58.6630 C.2   199  ILE199      0.2287
     41  O         21.2410   -7.3180   59.2450 O.2   199  ILE199     -0.2864
     42  CB        18.7570   -7.6020   57.5330 C.3   199  ILE199      0.0276
     43  CG1       18.9980   -7.2120   56.0720 C.3   199  ILE199      0.0022
     44  CG2       17.2490   -8.0030   57.7790 C.3   199  ILE199      0.0022
     45  CD1       18.4880   -8.2620   55.0110 C.3   199  ILE199      0.0001
     46  N         15.0400   -4.2930   63.1340 N.3   235  ILE235     -0.1245
     47  CA        14.2580   -5.3700   62.5390 C.3   235  ILE235      0.1561
     48  C         14.5870   -6.7240   63.1670 C.2   235  ILE235      0.2260
     49  O         15.7050   -6.9590   63.5930 O.2   235  ILE235     -0.2867
     50  CB        14.4870   -5.4060   60.9990 C.3   235  ILE235      0.0252
     51  CG1       13.4620   -6.2770   60.2780 C.3   235  ILE235      0.0019
     52  CG2       15.9110   -5.8280   60.6360 C.3   235  ILE235      0.0019
     53  CD1       13.7910   -6.3220   58.7710 C.3   235  ILE235      0.0001
     54  N         13.6650  -10.8430   61.9070 N.3   237  ASP237     -0.1239
     55  CA        13.0480  -11.7780   60.9410 C.3   237  ASP237      0.1674
     56  C         12.6280  -13.1320   61.5470 C.2   237  ASP237      0.2266
     57  O         13.1240  -13.5570   62.5920 O.2   237  ASP237     -0.2867
     58  CB        13.9990  -12.0410   59.7570 C.3   237  ASP237      0.1410
     59  CG        14.3920  -10.7760   59.0230 C.2   237  ASP237      0.3668
     60  OD1       13.5360   -9.8880   58.8370 O.co2 237  ASP237     -0.2456
     61  OD2       15.5930  -10.6760   58.6710 O.co2 237  ASP237     -0.2456
     62  N         17.7710  -14.6290   54.4590 N.3   272  TRP272     -0.1241
     63  CA        19.0230  -13.8310   54.4140 C.3   272  TRP272      0.1605
     64  C         20.2610  -14.5180   54.9800 C.2   272  TRP272      0.2264
     65  O         21.3160  -14.3660   54.3970 O.2   272  TRP272     -0.2867
     66  CB        18.8780  -12.4820   55.1190 C.3   272  TRP272      0.0550
     67  CG        17.7000  -11.7180   54.7580 C.ar  272  TRP272      0.0003
     68  CD1       16.6760  -11.3920   55.5930 C.ar  272  TRP272      0.0946
     69  CD2       17.3510  -11.1830   53.4630 C.ar  272  TRP272      0.0152
     70  NE1       15.7540  -10.6690   54.9300 N.ar  272  TRP272     -0.2442
     71  CE2       16.1190  -10.5280   53.6190 C.ar  272  TRP272      0.0810
     72  CE3       17.9730  -11.1720   52.2040 C.ar  272  TRP272      0.0012
     73  CZ2       15.4610   -9.8680   52.5560 C.ar  272  TRP272      0.0191
     74  CZ3       17.3100  -10.5120   51.1270 C.ar  272  TRP272      0.0001
     75  CH2       16.0730   -9.8840   51.3210 C.ar  272  TRP272      0.0015
     76  N         10.5370   -3.8080   64.4090 N.3   306  TRP306     -0.1241
     77  CA         9.6770   -4.2090   63.3140 C.3   306  TRP306      0.1605
     78  C         10.0520   -5.6430   62.8850 C.2   306  TRP306      0.2264
     79  O         11.1960   -6.0780   63.0740 O.2   306  TRP306     -0.2867
     80  CB         9.6790   -3.1830   62.1600 C.3   306  TRP306      0.0550
     81  CG        11.0660   -2.8380   61.5630 C.ar  306  TRP306      0.0003
     82  CD1       12.1760   -2.4050   62.2360 C.ar  306  TRP306      0.0946
     83  CD2       11.4150   -2.8380   60.1710 C.ar  306  TRP306      0.0152
     84  NE1       13.2360   -2.1640   61.3430 N.ar  306  TRP306     -0.2442
     85  CE2       12.7800   -2.4170   60.0680 C.ar  306  TRP306      0.0810
     86  CE3       10.7110   -3.1620   58.9920 C.ar  306  TRP306      0.0012
     87  CZ2       13.4400   -2.3160   58.8330 C.ar  306  TRP306      0.0191
     88  CZ3       11.3600   -3.0620   57.7670 C.ar  306  TRP306      0.0001
     89  CH2       12.7260   -2.6540   57.6920 C.ar  306  TRP306      0.0015
     90  N          9.9270   -8.5110   59.7450 N.3   308  ALA308     -0.1231
     91  CA         9.6400   -8.8570   58.3640 C.3   308  ALA308      0.1694
     92  C          9.7920  -10.3610   58.0840 C.2   308  ALA308      0.2591
     93  O         10.1550  -11.1460   58.9970 O.2   308  ALA308     -0.2718
     94  CB        10.4310   -7.9980   57.4070 C.3   308  ALA308      0.0304
     95  N          9.4660  -10.7490   56.8410 N.am  309  MET309     -0.1979
     96  CA         9.6970  -12.1190   56.3140 C.3   309  MET309      0.1605
     97  C          8.8480  -13.1320   57.0580 C.2   309  MET309      0.2287
     98  O          9.2040  -14.3120   57.1050 O.2   309  MET309     -0.2864
     99  CB        11.1900  -12.5290   56.4060 C.3   309  MET309      0.0413
    100  CG        12.1280  -11.4320   56.0140 C.3   309  MET309      0.0598
    101  SD        11.7970  -10.6970   54.3830 S.3   309  MET309     -0.1393
    102  CE        12.4640  -11.9870   53.3200 C.3   309  MET309      0.0692
    103  N         13.1700  -18.3440   50.5480 N.3   315  PHE315     -0.1241
    104  CA        13.9050  -18.1710   49.2960 C.3   315  PHE315      0.1605
    105  C         13.9710  -19.5030   48.5560 C.2   315  PHE315      0.2264
    106  O         13.8240  -19.5560   47.3370 O.2   315  PHE315     -0.2867
    107  CB        15.2930  -17.5880   49.5190 C.3   315  PHE315      0.0534
    108  CG        15.3020  -16.1750   50.0980 C.ar  315  PHE315     -0.0203
    109  CD1       14.1650  -15.4010   50.1740 C.ar  315  PHE315     -0.0042
    110  CD2       16.5090  -15.6160   50.5010 C.ar  315  PHE315     -0.0042
    111  CE1       14.2100  -14.0890   50.7160 C.ar  315  PHE315     -0.0003
    112  CE2       16.5710  -14.3380   51.0400 C.ar  315  PHE315     -0.0003
    113  CZ        15.4480  -13.5590   51.1370 C.ar  315  PHE315     -0.0000
    114  N          8.9600  -19.2550   47.8700 N.3   353  ASN353     -0.1240
    115  CA         7.6310  -19.1650   48.4770 C.3   353  ASN353      0.1653
    116  C          6.6720  -20.2400   47.9290 C.2   353  ASN353      0.2266
    117  O          5.5020  -19.9670   47.6400 O.2   353  ASN353     -0.2867
    118  CB         7.0470  -17.7470   48.2980 C.3   353  ASN353      0.1155
    119  CG         7.8810  -16.6650   48.9760 C.2   353  ASN353      0.2627
    120  OD1        8.3590  -16.8300   50.0940 O.2   353  ASN353     -0.2716
    121  ND2        8.0780  -15.5640   48.2850 N.am  353  ASN353     -0.0877
    122  N          4.8940   -7.2730   58.9110 N.3   405  ARG405     -0.1245
    123  CA         4.5180   -7.2800   57.4890 C.3   405  ARG405      0.1563
    124  C          3.2720   -8.1100   57.2910 C.2   405  ARG405      0.2260
    125  O          2.2130   -7.5710   56.8900 O.2   405  ARG405     -0.2867
    126  CB         5.7010   -7.8020   56.6300 C.3   405  ARG405      0.0307
    127  CG         5.5650   -7.5340   55.1070 C.3   405  ARG405      0.0489
    128  CD         6.8800   -7.7480   54.4280 C.3   405  ARG405      0.2205
    129  NE         7.1950   -9.1790   54.2520 N.pl3 405  ARG405     -0.0865
    130  CZ         8.1590   -9.6200   53.4640 C.cat 405  ARG405      0.5346
    131  NH1        8.3320  -10.9410   53.3150 N.pl3 405  ARG405      0.1354
    132  NH2        8.9470   -8.7390   52.8220 N.pl3 405  ARG405      0.1354
    133  N          2.9130   -2.2790   58.3990 N.3   418  TRP418     -0.1241
    134  CA         3.2010   -1.4020   57.2970 C.3   418  TRP418      0.1605
    135  C          2.8230   -2.1760   56.0600 C.2   418  TRP418      0.2264
    136  O          2.6500   -3.4130   56.1280 O.2   418  TRP418     -0.2867
    137  CB         4.6510   -0.9660   57.3180 C.3   418  TRP418      0.0550
    138  CG         5.6760   -1.7480   56.5080 C.ar  418  TRP418      0.0003
    139  CD1        6.1400   -1.4130   55.2590 C.ar  418  TRP418      0.0946
    140  CD2        6.4680   -2.8980   56.9350 C.ar  418  TRP418      0.0152
    141  NE1        7.1100   -2.2810   54.8810 N.ar  418  TRP418     -0.2442
    142  CE2        7.3370   -3.2090   55.8680 C.ar  418  TRP418      0.0810
    143  CE3        6.4930   -3.7060   58.0930 C.ar  418  TRP418      0.0012
    144  CZ2        8.2790   -4.2790   55.9240 C.ar  418  TRP418      0.0191
    145  CZ3        7.4220   -4.7780   58.1610 C.ar  418  TRP418      0.0001
    146  CH2        8.3010   -5.0560   57.0780 C.ar  418  TRP418      0.0015
    147  N          6.2990   -4.1640   50.6640 N.3   421  ASP421     -0.1239
    148  CA         7.2550   -3.7150   49.6380 C.3   421  ASP421      0.1674
    149  C          6.4770   -3.1040   48.4700 C.2   421  ASP421      0.2266
    150  O          6.0790   -3.8080   47.5240 O.2   421  ASP421     -0.2867
    151  CB         8.1110   -4.9020   49.1830 C.3   421  ASP421      0.1410
    152  CG         8.9990   -5.4330   50.2960 C.2   421  ASP421      0.3668
    153  OD1        9.5430   -6.5680   50.1530 O.co2 421  ASP421     -0.2456
    154  OD2        9.1690   -4.6980   51.3100 O.co2 421  ASP421     -0.2456
    155  N          9.1720    1.8110   48.2280 N.3   454  PHE454     -0.1241
    156  CA        10.2870    0.9520   48.6670 C.3   454  PHE454      0.1605
    157  C         11.2310    0.5580   47.5000 C.2   454  PHE454      0.2264
    158  O         12.4540    0.8130   47.5060 O.2   454  PHE454     -0.2867
    159  CB         9.6790   -0.3140   49.3030 C.3   454  PHE454      0.0534
    160  CG        10.7240   -1.3830   49.6570 C.ar  454  PHE454     -0.0203
    161  CD1       11.6410   -1.1460   50.6910 C.ar  454  PHE454     -0.0042
    162  CD2       10.7950   -2.5890   48.9430 C.ar  454  PHE454     -0.0042
    163  CE1       12.5990   -2.1050   51.0650 C.ar  454  PHE454     -0.0003
    164  CE2       11.7560   -3.5910   49.2990 C.ar  454  PHE454     -0.0003
    165  CZ        12.6530   -3.3450   50.3610 C.ar  454  PHE454     -0.0000
    166  N         11.1600    4.7140   53.6390 N.3   479  HIS479     -0.1241
    167  CA        11.9990    3.5170   53.6800 C.3   479  HIS479      0.1621
    168  C         12.2850    3.1270   52.2280 C.2   479  HIS479      0.2264
    169  O         11.4950    3.4770   51.3280 O.2   479  HIS479     -0.2867
    170  CB        11.2850    2.3690   54.4560 C.3   479  HIS479      0.0745
    171  CG        12.1010    1.1180   54.5420 C.ar  479  HIS479      0.0817
    172  ND1       13.4270    1.1280   54.9210 N.ar  479  HIS479     -0.2268
    173  CD2       11.8040   -0.1700   54.2370 C.ar  479  HIS479      0.1154
    174  CE1       13.9090   -0.1000   54.8710 C.ar  479  HIS479      0.1986
    175  NE2       12.9420   -0.9080   54.4650 N.ar  479  HIS479     -0.2212
@<TRIPOS>BOND
     1    12    11    2
     2    11    10    1
     3    14    15    1
     4    14    13    1
     5    15     9    1
     6     9    10    1
     7    13    10    1
     8   106   105    2
     9   157   158    2
    10   157   156    1
    11   150   149    2
    12   117   116    2
    13     4     3    2
    14   114   115    1
    15   116   115    1
    16   155   156    1
    17   121   119   am
    18   118   115    1
    19   118   119    1
    20   149   148    1
    21     3     2    1
    22   105   104    1
    23   156   159    1
    24   162   164   ar
    25   162   160   ar
    26   119   120    2
    27   151   148    1
    28   151   152    1
    29   104   107    1
    30   104   103    1
    31   164   165   ar
    32   159   160    1
    33   107   108    1
    34   148   147    1
    35   160   161   ar
    36     8     6   ar
    37    28    29   ar
    38    28    26   ar
    39    29    27   ar
    40     2     1    1
    41     2     5    1
    42   108   109   ar
    43   108   110   ar
    44   153   152   ar
    45   109   111   ar
    46     6     5    1
    47     6     7   ar
    48   152   154   ar
    49   165   163   ar
    50   110   112   ar
    51    26    23   ar
    52    27    25   ar
    53   161   163   ar
    54   111   113   ar
    55   112   113   ar
    56    74    75   ar
    57    74    72   ar
    58    75    73   ar
    59   169   168    2
    60    23    25   ar
    61    23    21   ar
    62    25    24   ar
    63    19    18    2
    64    72    69   ar
    65   168   167    1
    66    21    20    1
    67    21    22   ar
    68    24    22   ar
    69    73    71   ar
    70    20    17    1
    71   132   130    1
    72    18    17    1
    73   131   130    1
    74   102   101    1
    75    69    71   ar
    76    69    67   ar
    77   130   129    2
    78    17    16    1
    79    71    70   ar
    80   166   167    1
    81   167   170    1
    82   173   175   ar
    83   173   171   ar
    84   129   128    1
    85   101   100    1
    86    65    64    2
    87    63    62    1
    88    63    64    1
    89    63    66    1
    90   128   127    1
    91   170   171    1
    92   175   174   ar
    93   171   172   ar
    94    67    66    1
    95    67    68   ar
    96   174   172   ar
    97   141   139   ar
    98   141   142   ar
    99    70    68   ar
   100    45    43    1
   101   127   126    1
   102   139   138   ar
   103    37    35   ar
   104   142   144   ar
   105   142   140   ar
   106   144   146   ar
   107   100    99    1
   108   135   136    2
   109   135   134    1
   110    43    42    1
   111    96    99    1
   112    96    95    1
   113    96    97    1
   114    35    36   ar
   115    35    34    1
   116   138   140   ar
   117   138   137    1
   118   126   123    1
   119    95    92   am
   120   125   124    2
   121   140   143   ar
   122    97    98    2
   123   146   145   ar
   124    34    31    1
   125   124   123    1
   126   134   137    1
   127   134   133    1
   128    94    91    1
   129   123   122    1
   130    42    44    1
   131    42    39    1
   132    89    88   ar
   133    89    87   ar
   134    88    86   ar
   135    92    91    1
   136    92    93    2
   137   143   145   ar
   138    38    39    1
   139    38    32   am
   140    91    90    1
   141    39    40    1
   142    40    41    2
   143    61    59   ar
   144    31    32    1
   145    31    30    1
   146    53    51    1
   147    87    85   ar
   148    60    59   ar
   149    32    33    2
   150    86    83   ar
   151    59    58    1
   152    58    55    1
   153    85    83   ar
   154    85    84   ar
   155    83    81   ar
   156    51    50    1
   157    52    50    1
   158    55    56    1
   159    55    54    1
   160    50    47    1
   161    84    82   ar
   162    56    57    2
   163    81    80    1
   164    81    82   ar
   165    80    77    1
   166    47    46    1
   167    47    48    1
   168    78    79    2
   169    78    77    1
   170    48    49    2
   171    77    76    1
