@<TRIPOS>MOLECULE
tmp/3mknB00.pdb
 132 125 0 0 0
SMALL
GASTEIGER

@<TRIPOS>ATOM
      1  N         41.8370  -28.8630   15.4810 N.3     9  ASP9       -0.1239
      2  CA        41.7030  -29.5910   16.7600 C.3     9  ASP9        0.1674
      3  C         41.9710  -31.0890   16.5600 C.2     9  ASP9        0.2266
      4  O         41.0480  -31.9010   16.6700 O.2     9  ASP9       -0.2867
      5  CB        40.2850  -29.3560   17.3190 C.3     9  ASP9        0.1410
      6  CG        39.1740  -29.8940   16.3740 C.2     9  ASP9        0.3668
      7  OD1       39.3840  -29.9730   15.1270 O.co2   9  ASP9       -0.2456
      8  OD2       38.1040  -30.2400   16.8900 O.co2   9  ASP9       -0.2456
      9  N         40.9350  -36.3680   11.0300 N.3    13  ASP13      -0.1225
     10  CA        40.9700  -35.7040    9.7230 C.3    13  ASP13       0.1805
     11  C         41.7450  -34.4240    9.7300 C.2    13  ASP13       0.2597
     12  O         42.2130  -34.0420    8.6840 O.2    13  ASP13      -0.2718
     13  CB        39.6010  -35.5400    9.0200 C.3    13  ASP13       0.1424
     14  CG        38.6510  -34.8350    9.8570 C.2    13  ASP13       0.3668
     15  OD1       38.8420  -34.9700   11.0930 O.co2  13  ASP13      -0.2456
     16  OD2       37.7480  -34.1570    9.3010 O.co2  13  ASP13      -0.2456
     17  N         41.8930  -33.7600   10.8890 N.am   14  ASP14      -0.1974
     18  CA        42.7750  -32.6060   10.9780 C.3    14  ASP14       0.1709
     19  C         44.1880  -32.9810   10.5710 C.2    14  ASP14       0.2293
     20  O         44.8770  -32.1910    9.9380 O.2    14  ASP14      -0.2864
     21  CB        42.8430  -32.0320   12.3970 C.3    14  ASP14       0.1436
     22  CG        41.4910  -31.6450   12.9310 C.2    14  ASP14       0.3671
     23  OD1       41.1710  -30.4510   12.9390 O.co2  14  ASP14      -0.2456
     24  OD2       40.7160  -32.5290   13.3190 O.co2  14  ASP14      -0.2456
     25  N         37.5420  -31.6640   19.2320 N.3    38  ASN38      -0.1240
     26  CA        37.4840  -33.1220   19.2590 C.3    38  ASN38       0.1653
     27  C         37.8110  -33.6750   20.6440 C.2    38  ASN38       0.2266
     28  O         37.1310  -34.5740   21.1530 O.2    38  ASN38      -0.2867
     29  CB        38.4540  -33.7140   18.1960 C.3    38  ASN38       0.1155
     30  CG        37.8370  -33.7380   16.8040 C.2    38  ASN38       0.2627
     31  OD1       36.6660  -34.0680   16.6810 O.2    38  ASN38      -0.2716
     32  ND2       38.6070  -33.3760   15.7570 N.am   38  ASN38      -0.0877
     33  N         34.1820  -34.3830   21.2910 N.3    76  ALA76      -0.1245
     34  CA        33.7020  -35.4530   20.4170 C.3    76  ALA76       0.1562
     35  C         34.2730  -36.7950   20.8640 C.2    76  ALA76       0.2260
     36  O         35.1660  -37.3540   20.1950 O.2    76  ALA76      -0.2867
     37  CB        34.0820  -35.1800   18.9720 C.3    76  ALA76       0.0290
     38  N         39.4080  -25.6760   10.8550 N.3   115  VAL115     -0.1245
     39  CA        38.7710  -26.9630   10.6810 C.3   115  VAL115      0.1561
     40  C         38.4150  -27.5730   12.0370 C.2   115  VAL115      0.2260
     41  O         38.1200  -28.7450   12.1210 O.2   115  VAL115     -0.2867
     42  CB        39.6210  -27.9070    9.7890 C.3   115  VAL115      0.0252
     43  CG1       39.7680  -27.3390    8.3740 C.3   115  VAL115      0.0019
     44  CG2       40.9790  -28.2040   10.4030 C.3   115  VAL115      0.0019
     45  N         35.9710  -25.8030    7.6150 N.3   141  MET141     -0.1245
     46  CA        35.1760  -27.0190    7.6710 C.3   141  MET141      0.1570
     47  C         34.2410  -26.8800    8.8480 C.2   141  MET141      0.2261
     48  O         34.6930  -26.7060    9.9920 O.2   141  MET141     -0.2867
     49  CB        36.0500  -28.2870    7.7860 C.3   141  MET141      0.0387
     50  CG        35.2810  -29.5710    7.5210 C.3   141  MET141      0.0595
     51  SD        34.2460  -30.0960    8.9080 S.3   141  MET141     -0.1393
     52  CE        32.7110  -30.4670    8.0350 C.3   141  MET141      0.0692
     53  N         25.5200  -33.5250   12.3190 N.3   149  ASN149     -0.1225
     54  CA        25.9940  -34.7920   12.8400 C.3   149  ASN149      0.1785
     55  C         25.7650  -34.9450   14.3290 C.2   149  ASN149      0.2597
     56  O         25.0850  -35.8780   14.7550 O.2   149  ASN149     -0.2718
     57  CB        27.4330  -35.1620   12.3720 C.3   149  ASN149      0.1169
     58  CG        28.4830  -34.0840   12.6520 C.2   149  ASN149      0.2627
     59  OD1       28.2590  -33.1190   13.3880 O.2   149  ASN149     -0.2716
     60  ND2       29.6770  -34.2890   12.0870 N.am  149  ASN149     -0.0877
     61  N         26.2620  -33.9970   15.1070 N.am  150  PHE150     -0.1976
     62  CA        26.1430  -34.0360   16.5560 C.3   150  PHE150      0.1639
     63  C         24.6870  -33.8870   17.0240 C.2   150  PHE150      0.2290
     64  O         24.2720  -34.5460   17.9700 O.2   150  PHE150     -0.2864
     65  CB        27.0430  -32.9490   17.1810 C.3   150  PHE150      0.0560
     66  CG        27.5680  -33.3140   18.5180 C.ar  150  PHE150     -0.0200
     67  CD1       28.6880  -34.1190   18.6350 C.ar  150  PHE150     -0.0042
     68  CD2       26.9060  -32.8910   19.6750 C.ar  150  PHE150     -0.0042
     69  CE1       29.1880  -34.4690   19.8830 C.ar  150  PHE150     -0.0003
     70  CE2       27.3800  -33.2460   20.9470 C.ar  150  PHE150     -0.0003
     71  CZ        28.5340  -34.0440   21.0460 C.ar  150  PHE150     -0.0000
     72  N         26.3160  -29.2830   13.0020 N.3   155  GLU155     -0.1231
     73  CA        27.5900  -29.9600   12.7670 C.3   155  GLU155      0.1699
     74  C         28.5000  -29.6580   13.9790 C.2   155  GLU155      0.2592
     75  O         28.3990  -28.5700   14.5780 O.2   155  GLU155     -0.2718
     76  CB        28.1780  -29.4740   11.4320 C.3   155  GLU155      0.0402
     77  CG        29.5580  -30.0080   11.0680 C.3   155  GLU155      0.1161
     78  CD        30.6690  -29.3000   11.8180 C.2   155  GLU155      0.3649
     79  OE1       30.5060  -28.0870   12.0500 O.co2 155  GLU155     -0.2457
     80  OE2       31.6960  -29.9450   12.2080 O.co2 155  GLU155     -0.2457
     81  N         29.3580  -30.6200   14.3460 N.am  156  PHE156     -0.1962
     82  CA        30.1600  -30.5290   15.5750 C.3   156  PHE156      0.1771
     83  C         30.9240  -29.2060   15.7700 C.2   156  PHE156      0.2619
     84  O         30.8080  -28.5830   16.8140 O.2   156  PHE156     -0.2715
     85  CB        31.1640  -31.7230   15.7090 C.3   156  PHE156      0.0574
     86  CG        32.0120  -31.6350   16.9550 C.ar  156  PHE156     -0.0200
     87  CD1       31.4720  -31.9570   18.2080 C.ar  156  PHE156     -0.0042
     88  CD2       33.3300  -31.1420   16.8890 C.ar  156  PHE156     -0.0042
     89  CE1       32.2530  -31.8080   19.3750 C.ar  156  PHE156     -0.0003
     90  CE2       34.1100  -30.9920   18.0310 C.ar  156  PHE156     -0.0003
     91  CZ        33.5700  -31.3240   19.2800 C.ar  156  PHE156     -0.0000
     92  N         31.7460  -28.8160   14.7920 N.am  157  ASN157     -0.1972
     93  CA        32.5880  -27.6120   14.9260 C.3   157  ASN157      0.1688
     94  C         31.7480  -26.3980   15.3100 C.2   157  ASN157      0.2292
     95  O         32.1380  -25.6490   16.2060 O.2   157  ASN157     -0.2864
     96  CB        33.3680  -27.3250   13.6380 C.3   157  ASN157      0.1181
     97  CG        34.4850  -28.3350   13.3880 C.2   157  ASN157      0.2629
     98  OD1       34.8850  -29.0600   14.2980 O.2   157  ASN157     -0.2716
     99  ND2       35.0130  -28.3620   12.1530 N.am  157  ASN157     -0.0877
    100  N         28.9580  -30.4550    6.0670 N.3   180  LEU180     -0.1245
    101  CA        28.7820  -31.9080    5.9840 C.3   180  LEU180      0.1561
    102  C         28.1770  -32.3720    4.6610 C.2   180  LEU180      0.2260
    103  O         28.4610  -33.4600    4.1910 O.2   180  LEU180     -0.2867
    104  CB        27.8940  -32.4090    7.1340 C.3   180  LEU180      0.0270
    105  CG        28.4790  -32.3070    8.5450 C.3   180  LEU180      0.0019
    106  CD1       27.4340  -32.7980    9.5420 C.3   180  LEU180      0.0001
    107  CD2       29.7900  -33.1320    8.6910 C.3   180  LEU180      0.0001
    108  N         34.0070  -40.5840    5.7130 N.3   228  PRO228     -0.2116
    109  CA        34.3830  -39.2860    5.1310 C.3   228  PRO228      0.1372
    110  C         35.7010  -38.7550    5.6500 C.2   228  PRO228      0.2244
    111  O         36.0930  -39.0530    6.7800 O.2   228  PRO228     -0.2868
    112  CB        33.2410  -38.3460    5.5810 C.3   228  PRO228      0.0268
    113  CG        32.1240  -39.2360    5.9470 C.3   228  PRO228      0.0207
    114  CD        32.7810  -40.4590    6.5300 C.3   228  PRO228      0.0892
    115  N         36.8880  -34.9760    6.1990 N.3   230  HIS230     -0.1226
    116  CA        36.2100  -33.6820    6.1880 C.3   230  HIS230      0.1752
    117  C         37.1880  -32.5490    5.9860 C.2   230  HIS230      0.2596
    118  O         37.1220  -31.8380    4.9610 O.2   230  HIS230     -0.2718
    119  CB        35.4460  -33.4750    7.4900 C.3   230  HIS230      0.0759
    120  CG        34.4880  -34.5730    7.8040 C.ar  230  HIS230      0.0818
    121  ND1       33.1940  -34.6000    7.3270 N.ar  230  HIS230     -0.2268
    122  CD2       34.6370  -35.6870    8.5560 C.ar  230  HIS230      0.1154
    123  CE1       32.5800  -35.6740    7.7890 C.ar  230  HIS230      0.1986
    124  NE2       33.4350  -36.3540    8.5310 N.ar  230  HIS230     -0.2212
    125  N         38.0850  -32.3780    6.9680 N.am  231  ASP231     -0.1974
    126  CA        38.9520  -31.1710    7.0770 C.3   231  ASP231      0.1709
    127  C         39.8370  -30.9540    5.8750 C.2   231  ASP231      0.2293
    128  O         40.0340  -29.8090    5.4410 O.2   231  ASP231     -0.2864
    129  CB        39.7810  -31.2260    8.3580 C.3   231  ASP231      0.1436
    130  CG        38.9190  -31.2560    9.5850 C.2   231  ASP231      0.3671
    131  OD1       37.6800  -31.1200    9.4320 O.co2 231  ASP231     -0.2456
    132  OD2       39.4340  -31.4330   10.7110 O.co2 231  ASP231     -0.2456
@<TRIPOS>BOND
     1   103   102    2
     2   102   101    1
     3   118   117    2
     4   109   112    1
     5   109   110    1
     6   109   108    1
     7   128   127    2
     8   112   113    1
     9   110   111    2
    10   108   114    1
    11   127   126    1
    12   113   114    1
    13   101   100    1
    14   101   104    1
    15   117   116    1
    16   117   125   am
    17   116   115    1
    18   116   119    1
    19   125   126    1
    20   126   129    1
    21   104   105    1
    22   121   123   ar
    23   121   120   ar
    24   119   120    1
    25    50    49    1
    26    50    51    1
    27    45    46    1
    28    46    49    1
    29    46    47    1
    30   123   124   ar
    31   120   122   ar
    32    52    51    1
    33   129   130    1
    34    43    42    1
    35   124   122   ar
    36   105   107    1
    37   105   106    1
    38    12    11    2
    39    47    48    2
    40    13    10    1
    41    13    14    1
    42    16    14   ar
    43   131   130   ar
    44   130   132   ar
    45    10    11    1
    46    10     9    1
    47    11    17   am
    48    42    44    1
    49    42    39    1
    50    14    15   ar
    51    20    19    2
    52    19    18    1
    53    39    38    1
    54    39    40    1
    55    17    18    1
    56    18    21    1
    57    77    76    1
    58    77    78    1
    59    76    73    1
    60    78    79   ar
    61    78    80   ar
    62    40    41    2
    63    60    58   am
    64    99    97   am
    65    53    54    1
    66    57    58    1
    67    57    54    1
    68    21    22    1
    69    58    59    2
    70    73    72    1
    71    73    74    1
    72    54    55    1
    73    22    23   ar
    74    22    24   ar
    75    97    96    1
    76    97    98    2
    77    96    93    1
    78    74    81   am
    79    74    75    2
    80    55    56    2
    81    55    61   am
    82    81    82    1
    83    92    93    1
    84    92    83   am
    85    93    94    1
    86    61    62    1
    87     7     6   ar
    88    94    95    2
    89     1     2    1
    90    82    85    1
    91    82    83    1
    92    85    86    1
    93    32    30   am
    94    83    84    2
    95     6     8   ar
    96     6     5    1
    97    62    63    1
    98    62    65    1
    99     3     4    2
   100     3     2    1
   101    31    30    2
   102     2     5    1
   103    30    29    1
   104    88    86   ar
   105    88    90   ar
   106    86    87   ar
   107    63    64    2
   108    65    66    1
   109    90    91   ar
   110    29    26    1
   111    87    89   ar
   112    66    67   ar
   113    66    68   ar
   114    67    69   ar
   115    37    34    1
   116    25    26    1
   117    26    27    1
   118    91    89   ar
   119    68    70   ar
   120    69    71   ar
   121    36    35    2
   122    34    35    1
   123    34    33    1
   124    27    28    2
   125    70    71   ar
