@<TRIPOS>MOLECULE
tmp/3mkoA01.pdb
 79 77 0 0 0
SMALL
GASTEIGER

@<TRIPOS>ATOM
      1  N        -44.0110   19.3640  -24.5390 N.3    60  TYR60      -0.1227
      2  CA       -44.3200   19.0330  -23.1490 C.3    60  TYR60       0.1736
      3  C        -43.6070   20.1010  -22.3220 C.2    60  TYR60       0.2596
      4  O        -42.3780   20.1880  -22.3590 O.2    60  TYR60      -0.2718
      5  CB       -43.7900   17.6500  -22.7280 C.3    60  TYR60       0.0548
      6  CG       -44.2150   16.4490  -23.5490 C.ar   60  TYR60      -0.0200
      7  CD1      -45.4400   16.4280  -24.2150 C.ar   60  TYR60      -0.0009
      8  CD2      -43.4430   15.2900  -23.5700 C.ar   60  TYR60      -0.0009
      9  CE1      -45.8610   15.3000  -24.9240 C.ar   60  TYR60       0.0417
     10  CE2      -43.8430   14.1630  -24.2860 C.ar   60  TYR60       0.0417
     11  CZ       -45.0590   14.1700  -24.9550 C.ar   60  TYR60       0.1957
     12  OH       -45.4640   13.0610  -25.6530 O.3    60  TYR60      -0.2866
     13  N        -44.3640   20.8950  -21.5610 N.am   61  SER61      -0.1938
     14  CA       -43.7730   21.9430  -20.7360 C.3    61  SER61       0.2055
     15  C        -43.1390   21.3710  -19.4940 C.2    61  SER61       0.2642
     16  O        -43.6100   20.3810  -18.9530 O.2    61  SER61      -0.2714
     17  CB       -44.8130   22.9990  -20.3880 C.3    61  SER61       0.2130
     18  OG       -45.3130   23.5860  -21.5780 O.3    61  SER61      -0.2179
     19  N        -42.0690   22.0280  -19.0400 N.am   62  LYS62      -0.1977
     20  CA       -41.2000   21.6450  -17.9320 C.3    62  LYS62       0.1596
     21  C        -41.9050   21.0840  -16.7060 C.2    62  LYS62       0.2287
     22  O        -41.6390   19.9590  -16.3200 O.2    62  LYS62      -0.2864
     23  CB       -40.3460   22.8680  -17.5350 C.3    62  LYS62       0.0298
     24  CG       -39.4160   22.6700  -16.3670 C.3    62  LYS62       0.0038
     25  CD       -38.5690   23.9210  -16.2590 C.3    62  LYS62       0.0206
     26  CE       -37.9510   24.0650  -14.9200 C.3    62  LYS62       0.1093
     27  NZ       -36.7810   24.9900  -14.9940 N.3    62  LYS62      -0.1314
     28  N        -44.2100   18.0230  -17.1820 N.3    65  TYR65      -0.1227
     29  CA       -43.3570   16.8750  -17.5310 C.3    65  TYR65       0.1736
     30  C        -42.6090   16.3220  -16.3170 C.2    65  TYR65       0.2595
     31  O        -42.5990   15.1090  -16.1000 O.2    65  TYR65      -0.2718
     32  CB       -42.4140   17.2530  -18.6750 C.3    65  TYR65       0.0548
     33  CG       -41.6890   16.0640  -19.2600 C.ar   65  TYR65      -0.0200
     34  CD1      -42.3210   15.2110  -20.1600 C.ar   65  TYR65      -0.0009
     35  CD2      -40.3780   15.7700  -18.8910 C.ar   65  TYR65      -0.0009
     36  CE1      -41.6630   14.0990  -20.6870 C.ar   65  TYR65       0.0417
     37  CE2      -39.6920   14.6890  -19.4530 C.ar   65  TYR65       0.0417
     38  CZ       -40.3450   13.8500  -20.3400 C.ar   65  TYR65       0.1957
     39  OH       -39.6930   12.7610  -20.8550 O.3    65  TYR65      -0.2866
     40  N        -42.0420   17.2010  -15.4900 N.am   66  LEU66      -0.1980
     41  CA       -41.3640   16.7660  -14.2600 C.3    66  LEU66       0.1596
     42  C        -42.2900   15.9490  -13.3540 C.2    66  LEU66       0.2287
     43  O        -41.8510   14.9860  -12.7200 O.2    66  LEU66      -0.2864
     44  CB       -40.8380   17.9810  -13.4930 C.3    66  LEU66       0.0297
     45  CG       -39.5390   18.5830  -14.0220 C.3    66  LEU66       0.0022
     46  CD1      -39.2970   19.9860  -13.4300 C.3    66  LEU66       0.0001
     47  CD2      -38.3300   17.6460  -13.7120 C.3    66  LEU66       0.0001
     48  N        -37.6840   16.4480  -26.8860 N.3    74  LEU74      -0.1231
     49  CA       -38.0030   16.7780  -25.5040 C.3    74  LEU74       0.1693
     50  C        -37.2360   18.0280  -25.0410 C.2    74  LEU74       0.2592
     51  O        -37.7880   18.8530  -24.2930 O.2    74  LEU74      -0.2718
     52  CB       -37.6550   15.5880  -24.6020 C.3    74  LEU74       0.0284
     53  CG       -38.5930   14.3570  -24.6860 C.3    74  LEU74       0.0019
     54  CD1      -38.0140   13.1950  -23.9140 C.3    74  LEU74       0.0001
     55  CD2      -40.0010   14.6840  -24.1110 C.3    74  LEU74       0.0001
     56  N        -35.9740   18.1650  -25.4790 N.am   75  VAL75      -0.1966
     57  CA       -35.0930   19.2790  -25.0590 C.3    75  VAL75       0.1727
     58  C        -35.3890   20.5480  -25.8470 C.2    75  VAL75       0.2616
     59  O        -35.4040   20.5240  -27.0780 O.2    75  VAL75      -0.2715
     60  CB       -33.5930   18.8950  -25.1760 C.3    75  VAL75       0.0290
     61  CG1      -32.6840   20.0360  -24.6950 C.3    75  VAL75       0.0023
     62  CG2      -33.2930   17.6040  -24.4060 C.3    75  VAL75       0.0023
     63  N        -35.5960   21.6600  -25.1400 N.am   76  THR76      -0.1951
     64  CA       -35.8150   22.9750  -25.7660 C.3    76  THR76       0.1897
     65  C        -34.9850   24.0120  -24.9910 C.2    76  THR76       0.2313
     66  O        -34.3580   23.6680  -23.9820 O.2    76  THR76      -0.2863
     67  CB       -37.3100   23.3700  -25.7130 C.3    76  THR76       0.1794
     68  OG1      -37.6920   23.5140  -24.3390 O.3    76  THR76      -0.2208
     69  CG2      -38.2350   22.3620  -26.4350 C.3    76  THR76       0.0378
     70  N        -36.1020   25.8860  -22.9890 N.3    78  GLY78      -0.1210
     71  CA       -36.7550   25.8750  -21.6800 C.3    78  GLY78       0.1956
     72  C        -36.2300   24.7760  -20.7610 C.2    78  GLY78       0.2612
     73  O        -36.6590   24.6620  -19.6100 O.2    78  GLY78      -0.2717
     74  N        -35.2810   23.9380  -21.2590 N.am   79  SER79      -0.1952
     75  CA       -34.7420   22.7840  -20.5140 C.3    79  SER79       0.1924
     76  C        -33.5480   23.0970  -19.6140 C.2    79  SER79       0.2314
     77  O        -33.1380   22.2330  -18.8310 O.2    79  SER79      -0.2863
     78  CB       -34.3440   21.6560  -21.4680 C.3    79  SER79       0.2116
     79  OG       -35.4310   21.1950  -22.2540 O.3    79  SER79      -0.2180
@<TRIPOS>BOND
     1    59    58    2
     2    48    49    1
     3    69    67    1
     4    58    63   am
     5    58    57    1
     6    64    67    1
     7    64    63    1
     8    64    65    1
     9    67    68    1
    10    12    11    1
    11    49    50    1
    12    49    52    1
    13    56    57    1
    14    56    50   am
    15    60    57    1
    16    60    61    1
    17    60    62    1
    18    50    51    2
    19    65    66    2
    20    11     9   ar
    21    11    10   ar
    22     9     7   ar
    23    53    52    1
    24    53    55    1
    25    53    54    1
    26     1     2    1
    27    10     8   ar
    28     7     6   ar
    29     8     6   ar
    30     6     5    1
    31     2     5    1
    32     2     3    1
    33    70    71    1
    34     4     3    2
    35     3    13   am
    36    79    78    1
    37    71    72    1
    38    18    17    1
    39    13    14    1
    40    78    75    1
    41    74    72   am
    42    74    75    1
    43    39    38    1
    44    72    73    2
    45    14    17    1
    46    14    15    1
    47    36    38   ar
    48    36    34   ar
    49    75    76    1
    50    38    37   ar
    51    34    33   ar
    52    76    77    2
    53    15    19   am
    54    15    16    2
    55    37    35   ar
    56    33    35   ar
    57    33    32    1
    58    19    20    1
    59    32    29    1
    60    20    23    1
    61    20    21    1
    62    23    24    1
    63    29    28    1
    64    29    30    1
    65    21    22    2
    66    24    25    1
    67    30    31    2
    68    30    40   am
    69    25    26    1
    70    40    41    1
    71    27    26    1
    72    41    44    1
    73    41    42    1
    74    45    47    1
    75    45    44    1
    76    45    46    1
    77    42    43    2
