@<TRIPOS>MOLECULE
tmp/3mkpB00.pdb
 110 108 0 0 0
SMALL
GASTEIGER

@<TRIPOS>ATOM
      1  N        -27.1920   30.9400    3.8520 N.3   125  HIS125     -0.1241
      2  CA       -26.7700   32.3040    4.1940 C.3   125  HIS125      0.1621
      3  C        -26.4350   33.1470    2.9700 C.2   125  HIS125      0.2264
      4  O        -26.3120   32.6170    1.8800 O.2   125  HIS125     -0.2867
      5  CB       -25.5310   32.2520    5.0880 C.3   125  HIS125      0.0745
      6  CG       -24.2940   31.8340    4.3580 C.ar  125  HIS125      0.0817
      7  ND1      -23.9700   30.5100    4.1400 N.ar  125  HIS125     -0.2268
      8  CD2      -23.3130   32.5650    3.7800 C.ar  125  HIS125      0.1154
      9  CE1      -22.8420   30.4420    3.4600 C.ar  125  HIS125      0.1986
     10  NE2      -22.4210   31.6760    3.2290 N.ar  125  HIS125     -0.2212
     11  N        -23.6110   35.3220    2.9990 N.3   127  PHE127     -0.1241
     12  CA       -22.2380   35.7850    3.1740 C.3   127  PHE127      0.1605
     13  C        -21.3050   35.1700    2.1380 C.2   127  PHE127      0.2264
     14  O        -20.4790   34.3050    2.4550 O.2   127  PHE127     -0.2867
     15  CB       -21.7520   35.4960    4.5960 C.3   127  PHE127      0.0534
     16  CG       -22.3880   36.3660    5.6310 C.ar  127  PHE127     -0.0203
     17  CD1      -21.8470   37.6040    5.9390 C.ar  127  PHE127     -0.0042
     18  CD2      -23.5420   35.9520    6.2950 C.ar  127  PHE127     -0.0042
     19  CE1      -22.4490   38.4120    6.8880 C.ar  127  PHE127     -0.0003
     20  CE2      -24.1460   36.7490    7.2370 C.ar  127  PHE127     -0.0003
     21  CZ       -23.6000   37.9790    7.5400 C.ar  127  PHE127     -0.0000
     22  N        -14.8510   38.1090    9.8370 N.3   144  ASN144     -0.1240
     23  CA       -15.7880   39.0720   10.3860 C.3   144  ASN144      0.1653
     24  C        -16.0160   40.1560    9.3380 C.2   144  ASN144      0.2266
     25  O        -15.5540   41.2870    9.4930 O.2   144  ASN144     -0.2867
     26  CB       -15.2460   39.6530   11.6910 C.3   144  ASN144      0.1155
     27  CG       -16.2140   40.6300   12.3490 C.2   144  ASN144      0.2627
     28  OD1      -17.3030   40.9050   11.8250 O.2   144  ASN144     -0.2716
     29  ND2      -15.8190   41.1590   13.5090 N.am  144  ASN144     -0.0877
     30  N        -18.3190   43.3820   12.7790 N.3   148  GLU148     -0.1231
     31  CA       -19.2160   43.4080   13.9410 C.3   148  GLU148      0.1699
     32  C        -18.4390   43.0820   15.1900 C.2   148  GLU148      0.2592
     33  O        -17.3150   42.5980   15.1120 O.2   148  GLU148     -0.2718
     34  CB       -20.3430   42.3830   13.8050 C.3   148  GLU148      0.0402
     35  CG       -21.3170   42.6120   12.6610 C.3   148  GLU148      0.1161
     36  CD       -22.3280   41.4840   12.5540 C.2   148  GLU148      0.3649
     37  OE1      -23.2380   41.4300   13.4170 O.co2 148  GLU148     -0.2457
     38  OE2      -22.2040   40.6490   11.6190 O.co2 148  GLU148     -0.2457
     39  N        -19.0410   43.3330   16.3460 N.am  149  GLU149     -0.1966
     40  CA       -18.3810   43.0160   17.5990 C.3   149  GLU149      0.1733
     41  C        -18.6280   41.5690   18.0010 C.2   149  GLU149      0.2617
     42  O        -19.7300   41.0420   17.8360 O.2   149  GLU149     -0.2715
     43  CB       -18.7640   43.9990   18.7070 C.3   149  GLU149      0.0429
     44  CG       -20.2410   44.2120   18.8770 C.3   149  GLU149      0.1163
     45  CD       -20.5640   44.8420   20.2120 C.2   149  GLU149      0.3649
     46  OE1      -20.3360   46.0620   20.3820 O.co2 149  GLU149     -0.2457
     47  OE2      -21.0490   44.1070   21.0950 O.co2 149  GLU149     -0.2457
     48  N        -17.5830   40.9360   18.5200 N.am  150  GLY150     -0.1940
     49  CA       -17.6070   39.5160   18.8280 C.3   150  GLY150      0.2014
     50  C        -16.4410   38.8280   18.1490 C.2   150  GLY150      0.2639
     51  O        -16.0930   37.6940   18.4810 O.2   150  GLY150     -0.2714
     52  N        -15.8390   39.5240   17.1880 N.am  151  GLY151     -0.1954
     53  CA       -14.6920   39.0040   16.4460 C.3   151  GLY151      0.1869
     54  C        -15.0620   38.0840   15.3020 C.2   151  GLY151      0.2309
     55  O        -16.2380   37.9150   15.0030 O.2   151  GLY151     -0.2863
     56  N        -15.8990   34.8990   12.9490 N.3   153  TRP153     -0.1241
     57  CA       -16.8600   33.8330   13.1710 C.3   153  TRP153      0.1605
     58  C        -17.0130   33.0380   11.9030 C.2   153  TRP153      0.2264
     59  O        -16.3930   33.3620   10.8960 O.2   153  TRP153     -0.2867
     60  CB       -18.2040   34.4260   13.5560 C.3   153  TRP153      0.0550
     61  CG       -18.7130   35.3780   12.5390 C.ar  153  TRP153      0.0003
     62  CD1      -18.3350   36.6770   12.3680 C.ar  153  TRP153      0.0946
     63  CD2      -19.7010   35.1120   11.5470 C.ar  153  TRP153      0.0152
     64  NE1      -19.0240   37.2410   11.3250 N.ar  153  TRP153     -0.2442
     65  CE2      -19.8680   36.2980   10.7980 C.ar  153  TRP153      0.0810
     66  CE3      -20.4550   33.9820   11.2100 C.ar  153  TRP153      0.0012
     67  CZ2      -20.7660   36.3910    9.7280 C.ar  153  TRP153      0.0191
     68  CZ3      -21.3500   34.0700   10.1510 C.ar  153  TRP153      0.0001
     69  CH2      -21.5040   35.2730    9.4260 C.ar  153  TRP153      0.0015
     70  N        -20.0460   29.9740    9.8890 N.3   155  PHE155     -0.1241
     71  CA       -21.1660   29.0380   10.0320 C.3   155  PHE155      0.1605
     72  C        -20.5590   27.6600   10.3090 C.2   155  PHE155      0.2264
     73  O        -19.6220   27.2340    9.6200 O.2   155  PHE155     -0.2867
     74  CB       -22.0870   29.0370    8.8060 C.3   155  PHE155      0.0534
     75  CG       -22.7590   30.3540    8.5560 C.ar  155  PHE155     -0.0203
     76  CD1      -23.8640   30.7520    9.3200 C.ar  155  PHE155     -0.0042
     77  CD2      -22.3020   31.1990    7.5610 C.ar  155  PHE155     -0.0042
     78  CE1      -24.5000   31.9910    9.1000 C.ar  155  PHE155     -0.0003
     79  CE2      -22.9110   32.4400    7.3320 C.ar  155  PHE155     -0.0003
     80  CZ       -24.0170   32.8410    8.1020 C.ar  155  PHE155     -0.0000
     81  N        -25.8090   26.9560   14.0860 N.3   162  ARG162     -0.1231
     82  CA       -25.7980   27.7810   12.8900 C.3   162  ARG162      0.1694
     83  C        -24.4760   28.5110   12.7270 C.2   162  ARG162      0.2592
     84  O        -23.8040   28.3510   11.7090 O.2   162  ARG162     -0.2718
     85  CB       -26.9770   28.7540   12.8830 C.3   162  ARG162      0.0321
     86  CG       -26.9320   29.6960   11.7170 C.3   162  ARG162      0.0489
     87  CD       -28.2620   30.2580   11.3690 C.3   162  ARG162      0.2205
     88  NE       -28.0920   31.3360   10.4070 N.pl3 162  ARG162     -0.0865
     89  CZ       -28.1860   31.1930    9.0880 C.cat 162  ARG162      0.5346
     90  NH1      -28.4510   30.0110    8.5610 N.pl3 162  ARG162      0.1354
     91  NH2      -28.0110   32.2380    8.2920 N.pl3 162  ARG162      0.1354
     92  N        -24.1100   29.3010   13.7350 N.am  163  TYR163     -0.1976
     93  CA       -22.8540   30.0410   13.7230 C.3   163  TYR163      0.1639
     94  C        -22.2070   30.0580   15.1030 C.2   163  TYR163      0.2290
     95  O        -22.8920   29.9490   16.1170 O.2   163  TYR163     -0.2864
     96  CB       -23.0750   31.4750   13.2240 C.3   163  TYR163      0.0560
     97  CG       -23.8510   32.3640   14.1680 C.ar  163  TYR163     -0.0198
     98  CD1      -25.2340   32.4800   14.0620 C.ar  163  TYR163     -0.0009
     99  CD2      -23.2050   33.1020   15.1570 C.ar  163  TYR163     -0.0009
    100  CE1      -25.9630   33.2970   14.9230 C.ar  163  TYR163      0.0417
    101  CE2      -23.9210   33.9240   16.0250 C.ar  163  TYR163      0.0417
    102  CZ       -25.3010   34.0120   15.9020 C.ar  163  TYR163      0.1957
    103  OH       -26.0270   34.8220   16.7550 O.3   163  TYR163     -0.2866
    104  N        -18.5220   31.9910   17.2220 N.3   165  VAL165     -0.1245
    105  CA       -17.3100   32.7940   17.1120 C.3   165  VAL165      0.1561
    106  C        -16.0850   31.8760   17.1340 C.2   165  VAL165      0.2260
    107  O        -16.1430   30.7400   17.6280 O.2   165  VAL165     -0.2867
    108  CB       -17.1880   33.8970   18.2160 C.3   165  VAL165      0.0252
    109  CG1      -18.4030   34.7850   18.2250 C.3   165  VAL165      0.0019
    110  CG2      -16.9710   33.2910   19.5710 C.3   165  VAL165      0.0019
@<TRIPOS>BOND
     1     4     3    2
     2    13    14    2
     3    13    12    1
     4     3     2    1
     5    11    12    1
     6    12    15    1
     7    10     9   ar
     8    10     8   ar
     9     9     7   ar
    10     8     6   ar
    11     1     2    1
    12     7     6   ar
    13     2     5    1
    14     6     5    1
    15    15    16    1
    16    16    17   ar
    17    16    18   ar
    18    17    19   ar
    19    18    20   ar
    20    19    21   ar
    21    20    21   ar
    22    79    77   ar
    23    79    80   ar
    24    77    75   ar
    25    80    78   ar
    26    91    89    1
    27    75    74    1
    28    75    76   ar
    29    90    89    1
    30    74    71    1
    31    89    88    2
    32    78    76   ar
    33    24    25    2
    34    24    23    1
    35    69    67   ar
    36    69    68   ar
    37    73    72    2
    38    67    65   ar
    39    22    23    1
    40    70    71    1
    41    71    72    1
    42    68    66   ar
    43    23    26    1
    44    88    87    1
    45    65    64   ar
    46    65    63   ar
    47    59    58    2
    48    66    63   ar
    49    64    62   ar
    50    87    86    1
    51    63    61   ar
    52    38    36   ar
    53    26    27    1
    54    84    83    2
    55    86    85    1
    56    28    27    2
    57    58    57    1
    58    27    29   am
    59    62    61   ar
    60    61    60    1
    61    36    35    1
    62    36    37   ar
    63    35    34    1
    64    83    82    1
    65    83    92   am
    66    30    31    1
    67    85    82    1
    68    82    81    1
    69    56    57    1
    70    57    60    1
    71    96    93    1
    72    96    97    1
    73    93    92    1
    74    93    94    1
    75    34    31    1
    76    31    32    1
    77    98    97   ar
    78    98   100   ar
    79    97    99   ar
    80   100   102   ar
    81    55    54    2
    82    94    95    2
    83    33    32    2
    84    99   101   ar
    85    32    39   am
    86    54    53    1
    87   102   101   ar
    88   102   103    1
    89    39    40    1
    90    53    52    1
    91   105   106    1
    92   105   104    1
    93   105   108    1
    94   106   107    2
    95    52    50   am
    96    40    41    1
    97    40    43    1
    98    42    41    2
    99    41    48   am
   100    50    51    2
   101    50    49    1
   102   108   109    1
   103   108   110    1
   104    48    49    1
   105    43    44    1
   106    44    45    1
   107    45    46   ar
   108    45    47   ar
