@<TRIPOS>MOLECULE
tmp/3mksD00.pdb
 117 116 0 0 0
SMALL
GASTEIGER

@<TRIPOS>ATOM
      1  N        177.6570   26.5190  -57.7660 N.3   329  LEU329     -0.1231
      2  CA       176.9870   27.7970  -57.4480 C.3   329  LEU329      0.1693
      3  C        177.7650   28.9630  -58.0430 C.2   329  LEU329      0.2592
      4  O        178.9920   29.0290  -57.8730 O.2   329  LEU329     -0.2718
      5  CB       176.8890   27.9800  -55.9370 C.3   329  LEU329      0.0284
      6  CG       176.2990   26.8300  -55.1070 C.3   329  LEU329      0.0019
      7  CD1      176.0880   27.2570  -53.6540 C.3   329  LEU329      0.0001
      8  CD2      174.9500   26.3300  -55.6700 C.3   329  LEU329      0.0001
      9  N        177.0370   29.9000  -58.6760 N.am  330  GLN330     -0.1966
     10  CA       177.6270   31.0240  -59.4070 C.3   330  GLN330      0.1733
     11  C        176.5570   31.9790  -59.8730 C.2   330  GLN330      0.2617
     12  O        175.4470   31.5580  -60.2540 O.2   330  GLN330     -0.2715
     13  CB       178.3100   30.4710  -60.6180 C.3   330  GLN330      0.0408
     14  CG       179.3570   31.3710  -61.2980 C.3   330  GLN330      0.0908
     15  CD       179.9420   30.7200  -62.5280 C.2   330  GLN330      0.2608
     16  OE1      181.0140   31.1110  -62.9710 O.2   330  GLN330     -0.2717
     17  NE2      179.2500   29.7010  -63.0710 N.am  330  GLN330     -0.0878
     18  N        176.8430   33.2660  -59.9580 N.am  331  GLY331     -0.1940
     19  CA       178.1510   33.8130  -60.1810 C.3   331  GLY331      0.2014
     20  C        177.7910   35.1940  -60.6360 C.2   331  GLY331      0.2639
     21  O        176.7240   35.6340  -60.3120 O.2   331  GLY331     -0.2714
     22  N        178.6380   35.8950  -61.3620 N.am  332  HIS332     -0.1959
     23  CA       178.4680   37.3660  -61.4560 C.3   332  HIS332      0.1787
     24  C        179.3890   38.2620  -60.6690 C.2   332  HIS332      0.2620
     25  O        179.6370   39.3510  -61.1070 O.2   332  HIS332     -0.2715
     26  CB       177.0450   37.8410  -61.1640 C.3   332  HIS332      0.0785
     27  CG       176.2170   37.9540  -62.4000 C.ar  332  HIS332      0.0821
     28  ND1      176.7840   38.1130  -63.6530 N.ar  332  HIS332     -0.2267
     29  CD2      174.8780   37.9060  -62.5890 C.ar  332  HIS332      0.1154
     30  CE1      175.8230   38.1590  -64.5580 C.ar  332  HIS332      0.1986
     31  NE2      174.6580   38.0320  -63.9410 N.ar  332  HIS332     -0.2212
     32  N        179.8480   37.8450  -59.4980 N.am  333  THR333     -0.1951
     33  CA       180.8300   38.6110  -58.7560 C.3   333  THR333      0.1897
     34  C        181.5650   37.4840  -58.0740 C.2   333  THR333      0.2313
     35  O        180.9380   36.4550  -57.8070 O.2   333  THR333     -0.2863
     36  CB       180.0950   39.5740  -57.7630 C.3   333  THR333      0.1794
     37  OG1      179.6150   40.7030  -58.5040 O.3   333  THR333     -0.2208
     38  CG2      180.9880   40.0760  -56.6400 C.3   333  THR333      0.0378
     39  N        183.4420   35.2380  -55.1180 N.3   335  LEU335     -0.1245
     40  CA       183.3670   35.0020  -53.6810 C.3   335  LEU335      0.1561
     41  C        184.6960   35.4020  -53.0060 C.2   335  LEU335      0.2260
     42  O        185.7680   35.3900  -53.6310 O.2   335  LEU335     -0.2867
     43  CB       183.0170   33.5420  -53.3810 C.3   335  LEU335      0.0270
     44  CG       181.5780   33.0040  -53.5870 C.3   335  LEU335      0.0019
     45  CD1      180.3970   33.9090  -53.0470 C.3   335  LEU335      0.0001
     46  CD2      181.2940   32.5730  -55.0670 C.3   335  LEU335      0.0001
     47  N        181.0420   37.8330  -50.6400 N.3   350  ALA350     -0.1245
     48  CA       181.2260   38.1230  -52.0700 C.3   350  ALA350      0.1562
     49  C        181.9120   39.5080  -52.3130 C.2   350  ALA350      0.2260
     50  O        181.9120   40.3960  -51.4490 O.2   350  ALA350     -0.2867
     51  CB       179.8380   38.0420  -52.8360 C.3   350  ALA350      0.0290
     52  N        176.0960   36.1660  -48.7410 N.3   356  ARG356     -0.1231
     53  CA       175.0950   35.3400  -49.3440 C.3   356  ARG356      0.1694
     54  C        174.8730   34.0610  -48.5350 C.2   356  ARG356      0.2593
     55  O        175.8440   33.4460  -48.0380 O.2   356  ARG356     -0.2718
     56  CB       175.5810   34.9360  -50.7080 C.3   356  ARG356      0.0321
     57  CG       175.9440   36.1000  -51.6110 C.3   356  ARG356      0.0489
     58  CD       174.7680   37.0230  -51.8340 C.3   356  ARG356      0.2205
     59  NE       175.1890   38.0900  -52.6970 N.pl3 356  ARG356     -0.0865
     60  CZ       174.4440   38.6490  -53.6400 C.cat 356  ARG356      0.5346
     61  NH1      173.1770   38.2500  -53.8490 N.pl3 356  ARG356      0.1354
     62  NH2      175.0000   39.5890  -54.4030 N.pl3 356  ARG356      0.1354
     63  N        173.6060   33.6490  -48.4180 N.am  357  GLY357     -0.1942
     64  CA       173.2830   32.4070  -47.7750 C.3   357  GLY357      0.2014
     65  C        172.4030   31.5570  -48.6390 C.2   357  GLY357      0.2638
     66  O        171.4350   32.0470  -49.2730 O.2   357  GLY357     -0.2714
     67  N        172.7690   30.2860  -48.6620 N.am  358  TRP358     -0.1973
     68  CA       172.0890   29.2040  -49.3220 C.3   358  TRP358      0.1640
     69  C        171.6580   28.1740  -48.2610 C.2   358  TRP358      0.2290
     70  O        172.2890   28.0200  -47.2330 O.2   358  TRP358     -0.2864
     71  CB       173.0790   28.4940  -50.2360 C.3   358  TRP358      0.0576
     72  CG       173.5570   29.2650  -51.3990 C.ar  358  TRP358      0.0006
     73  CD1      172.9610   29.3590  -52.6690 C.ar  358  TRP358      0.0946
     74  CD2      174.7400   30.0470  -51.4550 C.ar  358  TRP358      0.0152
     75  NE1      173.7360   30.1700  -53.4830 N.ar  358  TRP358     -0.2442
     76  CE2      174.8250   30.6000  -52.7570 C.ar  358  TRP358      0.0810
     77  CE3      175.7060   30.3750  -50.5230 C.ar  358  TRP358      0.0012
     78  CZ2      175.8360   31.4510  -53.1240 C.ar  358  TRP358      0.0191
     79  CZ3      176.7330   31.2170  -50.8990 C.ar  358  TRP358      0.0001
     80  CH2      176.7910   31.7340  -52.1910 C.ar  358  TRP358      0.0015
     81  N        168.5850   29.5690  -52.7890 N.3   365  ARG365     -0.1231
     82  CA       168.9520   30.9160  -52.3730 C.3   365  ARG365      0.1694
     83  C        168.1210   31.2930  -51.1260 C.2   365  ARG365      0.2592
     84  O        166.8930   31.0820  -51.1170 O.2   365  ARG365     -0.2718
     85  CB       168.6380   31.8840  -53.5090 C.3   365  ARG365      0.0321
     86  CG       169.6130   32.0090  -54.6360 C.3   365  ARG365      0.0489
     87  CD       168.9870   32.9570  -55.6430 C.3   365  ARG365      0.2205
     88  NE       169.9000   33.2350  -56.7620 N.pl3 365  ARG365     -0.0865
     89  CZ       169.5710   33.8840  -57.8910 C.cat 365  ARG365      0.5346
     90  NH1      168.3220   34.3490  -58.0990 N.pl3 365  ARG365      0.1354
     91  NH2      170.5230   34.0910  -58.8150 N.pl3 365  ARG365      0.1354
     92  N        168.7890   31.8010  -50.0760 N.am  366  LYS366     -0.1966
     93  CA       168.1070   32.1290  -48.8220 C.3   366  LYS366      0.1728
     94  C        168.2300   33.5930  -48.3920 C.2   366  LYS366      0.2616
     95  O        167.2870   34.1160  -47.8520 O.2   366  LYS366     -0.2715
     96  CB       168.5850   31.2230  -47.6760 C.3   366  LYS366      0.0311
     97  CG       167.9940   29.7940  -47.6250 C.3   366  LYS366      0.0038
     98  CD       166.4670   29.7910  -47.4670 C.3   366  LYS366      0.0206
     99  CE       165.8880   28.3980  -47.7640 C.3   366  LYS366      0.1093
    100  NZ       164.5680   28.3380  -47.0810 N.3   366  LYS366     -0.1314
    101  N        169.3960   34.2230  -48.5520 N.am  367  PHE367     -0.1960
    102  CA       169.5380   35.6180  -48.1630 C.3   367  PHE367      0.1771
    103  C        170.7020   36.3500  -48.8330 C.2   367  PHE367      0.2620
    104  O        171.7130   35.7420  -49.1880 O.2   367  PHE367     -0.2715
    105  CB       169.5970   35.8040  -46.6290 C.3   367  PHE367      0.0574
    106  CG       170.7930   35.1570  -45.9380 C.ar  367  PHE367     -0.0200
    107  CD1      172.0800   35.6120  -46.1320 C.ar  367  PHE367     -0.0042
    108  CD2      170.6130   34.1110  -45.0490 C.ar  367  PHE367     -0.0042
    109  CE1      173.1790   35.0060  -45.4620 C.ar  367  PHE367     -0.0003
    110  CE2      171.6920   33.5330  -44.3990 C.ar  367  PHE367     -0.0003
    111  CZ       172.9610   33.9790  -44.6090 C.ar  367  PHE367     -0.0000
    112  N        170.5520   37.6530  -49.0220 N.am  368  SER368     -0.1950
    113  CA       171.6920   38.5160  -49.3440 C.3   368  SER368      0.1924
    114  C        171.6410   39.7540  -48.5370 C.2   368  SER368      0.2314
    115  O        170.6030   40.3970  -48.4410 O.2   368  SER368     -0.2863
    116  CB       171.6580   38.9550  -50.7930 C.3   368  SER368      0.2116
    117  OG       171.3660   37.8160  -51.5270 O.3   368  SER368     -0.2180
@<TRIPOS>BOND
     1    30    31   ar
     2    30    28   ar
     3    31    29   ar
     4    28    27   ar
     5    17    15   am
     6    16    15    2
     7    29    27   ar
     8    15    14    1
     9    27    26    1
    10    23    22    1
    11    23    26    1
    12    23    24    1
    13    22    20   am
    14    14    13    1
    15    25    24    2
    16    24    32   am
    17    20    21    2
    18    20    19    1
    19    13    10    1
    20    12    11    2
    21    19    18    1
    22    18    11   am
    23    11    10    1
    24    32    33    1
    25    10     9    1
    26    91    89    1
    27    33    34    1
    28    33    36    1
    29     9     3   am
    30    37    36    1
    31    90    89    1
    32    34    35    2
    33     3     4    2
    34     3     2    1
    35    89    88    2
    36     1     2    1
    37    36    38    1
    38     2     5    1
    39    88    87    1
    40     5     6    1
    41     8     6    1
    42    87    86    1
    43    39    40    1
    44     6     7    1
    45    46    44    1
    46    86    85    1
    47    62    60    1
    48    61    60    1
    49    40    43    1
    50    40    41    1
    51    60    59    2
    52    42    41    2
    53    44    43    1
    54    44    45    1
    55    85    82    1
    56    75    76   ar
    57    75    73   ar
    58    78    76   ar
    59    78    80   ar
    60    51    48    1
    61    81    82    1
    62    76    74   ar
    63    59    58    1
    64    73    72   ar
    65    82    83    1
    66    49    48    1
    67    49    50    2
    68    80    79   ar
    69    48    47    1
    70    58    57    1
    71    57    56    1
    72   117   116    1
    73    74    72   ar
    74    74    77   ar
    75    72    71    1
    76    83    84    2
    77    83    92   am
    78    79    77   ar
    79   116   113    1
    80    56    53    1
    81    71    68    1
    82    92    93    1
    83   113   112    1
    84   113   114    1
    85    53    52    1
    86    53    54    1
    87    68    67    1
    88    68    69    1
    89    66    65    2
    90   104   103    2
    91   112   103   am
    92   103   102    1
    93    93    94    1
    94    93    96    1
    95    67    65   am
    96    65    64    1
    97   101    94   am
    98   101   102    1
    99   114   115    2
   100    54    63   am
   101    54    55    2
   102    63    64    1
   103    94    95    2
   104    69    70    2
   105   102   105    1
   106    99    98    1
   107    99   100    1
   108    96    97    1
   109    97    98    1
   110   105   106    1
   111   107   106   ar
   112   107   109   ar
   113   106   108   ar
   114   109   111   ar
   115   108   110   ar
   116   111   110   ar
