@<TRIPOS>MOLECULE
tmp/3ml1B00.pdb
 136 133 0 0 0
SMALL
GASTEIGER

@<TRIPOS>ATOM
      1  N         56.7300  -27.2470   37.4910 N.3    31  PRO31      -0.2102
      2  CA        56.5790  -28.5720   36.9580 C.3    31  PRO31       0.1504
      3  C         55.1320  -28.7930   36.5250 C.2    31  PRO31       0.2576
      4  O         54.1560  -28.2990   37.1080 O.2    31  PRO31      -0.2718
      5  CB        56.9530  -29.5200   38.1720 C.3    31  PRO31       0.0282
      6  CG        56.9720  -28.6320   39.3580 C.3    31  PRO31       0.0208
      7  CD        57.3640  -27.2420   38.8270 C.3    31  PRO31       0.0893
      8  N         54.9800  -29.6220   35.4820 N.am   32  THR32      -0.1939
      9  CA        53.6450  -29.9940   35.1600 C.3    32  THR32       0.2028
     10  C         53.2020  -31.0630   36.1350 C.2    32  THR32       0.2642
     11  O         54.0130  -31.6450   36.8490 O.2    32  THR32      -0.2714
     12  CB        53.5520  -30.5670   33.6570 C.3    32  THR32       0.1808
     13  OG1       54.4820  -31.6020   33.5050 O.3    32  THR32      -0.2208
     14  CG2       53.7550  -29.4030   32.6580 C.3    32  THR32       0.0379
     15  N         51.8930  -31.2890   36.1870 N.am   33  ILE33      -0.1963
     16  CA        51.3090  -32.1970   37.1860 C.3    33  ILE33       0.1712
     17  C         51.2540  -33.6230   36.5060 C.2    33  ILE33       0.2458
     18  O         50.5820  -33.8490   35.4650 O.2    33  ILE33      -0.2730
     19  CB        49.8670  -31.7520   37.5670 C.3    33  ILE33       0.0289
     20  CG1       49.8660  -30.2940   38.0010 C.3    33  ILE33       0.0022
     21  CG2       49.3640  -32.7090   38.7230 C.3    33  ILE33       0.0023
     22  CD1       48.3710  -29.8850   38.2440 C.3    33  ILE33       0.0001
     23  N         51.9960  -34.5910   37.0670 N.am   34  PRO34      -0.2716
     24  CA        52.1250  -35.9210   36.4460 C.3    34  PRO34       0.1536
     25  C         51.0160  -36.8640   36.8410 C.2    34  PRO34       0.2598
     26  O         51.2300  -38.0690   36.8390 O.2    34  PRO34      -0.2715
     27  CB        53.4230  -36.5010   37.0920 C.3    34  PRO34       0.0310
     28  CG        53.4080  -35.7980   38.4870 C.3    34  PRO34       0.0237
     29  CD        52.7790  -34.4440   38.3320 C.3    34  PRO34       0.0939
     30  N         49.8650  -36.3050   37.1840 N.am   35  HIS35      -0.1974
     31  CA        48.7190  -37.0870   37.5750 C.3    35  HIS35       0.1656
     32  C         47.4370  -36.3950   37.2320 C.2    35  HIS35       0.2291
     33  O         47.4260  -35.2490   36.9680 O.2    35  HIS35      -0.2864
     34  CB        48.7740  -37.4750   39.0880 C.3    35  HIS35       0.0771
     35  CG        48.8180  -36.2670   40.0080 C.ar   35  HIS35       0.0820
     36  ND1       47.7130  -35.4760   40.2560 N.ar   35  HIS35      -0.2267
     37  CD2       49.7980  -35.7970   40.8020 C.ar   35  HIS35       0.1154
     38  CE1       48.0260  -34.5220   41.1400 C.ar   35  HIS35       0.1986
     39  NE2       49.3050  -34.6750   41.4740 N.ar   35  HIS35      -0.2212
     40  N         43.9030  -34.6020   37.8090 N.3    37  ILE37      -0.1245
     41  CA        43.3790  -33.7050   38.8800 C.3    37  ILE37       0.1561
     42  C         41.8550  -33.4780   38.8590 C.2    37  ILE37       0.2260
     43  O         41.3000  -32.6440   39.5740 O.2    37  ILE37      -0.2867
     44  CB        44.1150  -32.4000   38.8920 C.3    37  ILE37       0.0252
     45  CG1       43.7030  -31.6570   37.6480 C.3    37  ILE37       0.0019
     46  CG2       45.6950  -32.6640   39.1460 C.3    37  ILE37       0.0019
     47  CD1       44.2990  -30.2680   37.6230 C.3    37  ILE37       0.0001
     48  N         39.7020  -33.3040   42.2920 N.3    40  TYR40      -0.1241
     49  CA        40.4050  -32.5550   43.3220 C.3    40  TYR40       0.1605
     50  C         39.8680  -31.1180   43.5000 C.2    40  TYR40       0.2264
     51  O         40.0710  -30.2530   42.6870 O.2    40  TYR40      -0.2867
     52  CB        41.9380  -32.4690   43.0360 C.3    40  TYR40       0.0534
     53  CG        42.6890  -33.8170   43.1390 C.ar   40  TYR40      -0.0201
     54  CD1       42.1020  -34.9300   43.7700 C.ar   40  TYR40      -0.0009
     55  CD2       43.9530  -33.9560   42.6050 C.ar   40  TYR40      -0.0009
     56  CE1       42.7760  -36.1710   43.8890 C.ar   40  TYR40       0.0417
     57  CE2       44.6520  -35.2120   42.7090 C.ar   40  TYR40       0.0417
     58  CZ        44.0950  -36.2620   43.3640 C.ar   40  TYR40       0.1957
     59  OH        44.8130  -37.4370   43.4740 O.3    40  TYR40      -0.2866
     60  N         39.4290  -27.3630   44.6130 N.3    42  LEU42      -0.1245
     61  CA        40.3550  -26.2640   44.7820 C.3    42  LEU42       0.1561
     62  C         39.5540  -25.0100   44.9650 C.2    42  LEU42       0.2260
     63  O         39.2590  -24.2620   44.0090 O.2    42  LEU42      -0.2867
     64  CB        41.3210  -26.2070   43.6110 C.3    42  LEU42       0.0270
     65  CG        42.5290  -25.3030   43.6230 C.3    42  LEU42       0.0019
     66  CD1       43.1490  -25.2600   45.0010 C.3    42  LEU42       0.0001
     67  CD2       43.5320  -25.7400   42.5880 C.3    42  LEU42       0.0001
     68  N         42.4160  -29.2390   47.9540 N.3    48  ARG48      -0.1231
     69  CA        42.7510  -30.6640   48.0450 C.3    48  ARG48       0.1694
     70  C         44.2430  -30.8630   47.7140 C.2    48  ARG48       0.2592
     71  O         44.8050  -31.7630   48.2770 O.2    48  ARG48      -0.2718
     72  CB        41.9110  -31.4500   47.0540 C.3    48  ARG48       0.0321
     73  CG        42.1880  -33.0320   46.9700 C.3    48  ARG48       0.0489
     74  CD        41.7870  -33.7200   48.2770 C.3    48  ARG48       0.2205
     75  NE        42.2550  -35.1270   48.2840 N.pl3  48  ARG48      -0.0865
     76  CZ        41.7320  -36.0790   47.5430 C.cat  48  ARG48       0.5346
     77  NH1       40.6840  -35.7720   46.7630 N.pl3  48  ARG48       0.1354
     78  NH2       42.2430  -37.3320   47.5880 N.pl3  48  ARG48       0.1354
     79  N         44.8270  -30.0540   46.8410 N.am   49  CYS49      -0.1970
     80  CA        46.3010  -30.1580   46.5410 C.3    49  CYS49       0.1712
     81  C         47.1220  -30.1570   47.8180 C.2    49  CYS49       0.2296
     82  O         48.0760  -30.9400   47.9840 O.2    49  CYS49      -0.2864
     83  CB        46.7730  -29.0550   45.6440 C.3    49  CYS49       0.0983
     84  SG        45.6060  -28.7550   44.2200 S.3    49  CYS49      -0.0798
     85  N         48.0960  -33.3130   50.0510 N.3    52  CYS52      -0.1221
     86  CA        49.2760  -34.1300   49.8230 C.3    52  CYS52       0.1808
     87  C         50.5330  -33.2940   49.6530 C.2    52  CYS52       0.2601
     88  O         51.5950  -33.8340   49.8450 O.2    52  CYS52      -0.2717
     89  CB        49.1210  -34.9030   48.5120 C.3    52  CYS52       0.0970
     90  SG        47.7530  -36.1300   48.6760 S.3    52  CYS52      -0.0800
     91  N         50.4000  -32.0250   49.2830 N.am   53  HIS53      -0.1975
     92  CA        51.6210  -31.2120   48.9990 C.3    53  HIS53       0.1656
     93  C         51.9520  -30.1910   50.0320 C.2    53  HIS53       0.2291
     94  O         52.8940  -29.3930   49.8210 O.2    53  HIS53      -0.2864
     95  CB        51.4860  -30.5340   47.6290 C.3    53  HIS53       0.0771
     96  CG        51.4970  -31.5160   46.5080 C.ar   53  HIS53       0.0820
     97  ND1       52.6770  -32.0980   46.0360 N.ar   53  HIS53      -0.2267
     98  CD2       50.5090  -31.9470   45.6890 C.ar   53  HIS53       0.1154
     99  CE1       52.3850  -32.8960   45.0090 C.ar   53  HIS53       0.1986
    100  NE2       51.0780  -32.8320   44.7820 N.ar   53  HIS53      -0.2212
    101  N         54.3020  -37.4320   47.7970 N.3    57  ALA57      -0.1231
    102  CA        54.1750  -36.1810   47.0750 C.3    57  ALA57       0.1694
    103  C         55.3180  -35.2970   47.5600 C.2    57  ALA57       0.2591
    104  O         55.5790  -35.1780   48.7560 O.2    57  ALA57      -0.2718
    105  CB        52.8490  -35.5140   47.3210 C.3    57  ALA57       0.0304
    106  N         56.0420  -34.7000   46.6650 N.am   58  ILE58      -0.1980
    107  CA        56.9440  -33.7150   47.2430 C.3    58  ILE58       0.1595
    108  C         56.1820  -32.4310   47.6610 C.2    58  ILE58       0.2287
    109  O         55.2210  -31.9910   47.0160 O.2    58  ILE58      -0.2864
    110  CB        58.2300  -33.5430   46.4540 C.3    58  ILE58       0.0276
    111  CG1       58.0320  -32.5580   45.4110 C.3    58  ILE58       0.0022
    112  CG2       58.8320  -34.8960   45.8790 C.3    58  ILE58       0.0022
    113  CD1       59.0560  -31.5960   45.6640 C.3    58  ILE58       0.0001
    114  N         46.4540  -23.3120   42.7170 N.3    83  CYS83      -0.1221
    115  CA        47.6530  -23.9380   42.1260 C.3    83  CYS83       0.1808
    116  C         47.5650  -24.0340   40.5720 C.2    83  CYS83       0.2601
    117  O         48.5850  -23.9890   39.9120 O.2    83  CYS83      -0.2717
    118  CB        47.7680  -25.3930   42.6250 C.3    83  CYS83       0.0970
    119  SG        47.5220  -25.6240   44.4000 S.3    83  CYS83      -0.0800
    120  N         46.3320  -24.2560   40.0410 N.am   84  THR84      -0.1953
    121  CA        46.2090  -24.5930   38.6360 C.3    84  THR84       0.1897
    122  C         46.3330  -23.2870   37.7570 C.2    84  THR84       0.2313
    123  O         46.2120  -23.4470   36.5490 O.2    84  THR84      -0.2863
    124  CB        44.8460  -25.3030   38.4320 C.3    84  THR84       0.1794
    125  OG1       43.8500  -24.5160   39.0950 O.3    84  THR84      -0.2208
    126  CG2       44.9180  -26.7850   39.0430 C.3    84  THR84       0.0378
    127  N         50.3290  -24.7230   37.5160 N.3    87  HIS87      -0.1241
    128  CA        50.6300  -26.1180   37.3180 C.3    87  HIS87       0.1621
    129  C         49.5020  -26.7380   36.5400 C.2    87  HIS87       0.2264
    130  O         48.3480  -26.5900   36.9040 O.2    87  HIS87      -0.2867
    131  CB        50.7220  -26.7870   38.6940 C.3    87  HIS87       0.0745
    132  CG        51.9340  -26.3270   39.4860 C.ar   87  HIS87       0.0817
    133  ND1       53.2200  -26.7300   39.1770 N.ar   87  HIS87      -0.2268
    134  CD2       52.0540  -25.5390   40.5840 C.ar   87  HIS87       0.1154
    135  CE1       54.0770  -26.1390   39.9980 C.ar   87  HIS87       0.1986
    136  NE2       53.3910  -25.4580   40.8880 N.ar   87  HIS87      -0.2212
@<TRIPOS>BOND
     1    14    12    1
     2    13    12    1
     3    12     9    1
     4     9     8    1
     5     9    10    1
     6    18    17    2
     7     8     3   am
     8    10    15   am
     9    10    11    2
    10    15    16    1
    11    24    25    1
    12    24    23    1
    13    24    27    1
    14    17    23   am
    15    17    16    1
    16     3     2    1
    17     3     4    2
    18   129   130    2
    19   129   128    1
    20   123   122    2
    21    26    25    2
    22    25    30   am
    23     2     1    1
    24     2     5    1
    25    33    32    2
    26    23    29    1
    27    27    28    1
    28    30    31    1
    29    16    19    1
    30    32    31    1
    31   128   127    1
    32   128   131    1
    33     1     7    1
    34    19    20    1
    35    19    21    1
    36    31    34    1
    37    47    45    1
    38    45    44    1
    39   122   121    1
    40    40    41    1
    41    20    22    1
    42     5     6    1
    43    29    28    1
    44   124   121    1
    45   124   126    1
    46   124   125    1
    47   121   120    1
    48   131   132    1
    49     7     6    1
    50    42    41    1
    51    42    43    2
    52    41    44    1
    53    44    46    1
    54    34    35    1
    55   133   132   ar
    56   133   135   ar
    57   132   134   ar
    58   117   116    2
    59   135   136   ar
    60    35    36   ar
    61    35    37   ar
    62   120   116   am
    63    36    38   ar
    64   116   115    1
    65   134   136   ar
    66    37    39   ar
    67    38    39   ar
    68   115   118    1
    69   115   114    1
    70    48    49    1
    71    67    65    1
    72    55    57   ar
    73    55    53   ar
    74   118   119    1
    75    51    50    2
    76    57    58   ar
    77    52    53    1
    78    52    49    1
    79    53    54   ar
    80    49    50    1
    81    58    59    1
    82    58    56   ar
    83    64    65    1
    84    64    61    1
    85    65    66    1
    86    54    56   ar
    87    63    62    2
    88    84    83    1
    89    60    61    1
    90    61    62    1
    91   100    99   ar
    92   100    98   ar
    93    99    97   ar
    94   111   113    1
    95   111   110    1
    96    83    80    1
    97    98    96   ar
    98   112   110    1
    99    97    96   ar
   100   110   107    1
   101    96    95    1
   102    80    79    1
   103    80    81    1
   104   106   107    1
   105   106   103   am
   106    77    76    1
   107    79    70   am
   108    73    72    1
   109    73    74    1
   110   109   108    2
   111    72    69    1
   112   102   105    1
   113   102   103    1
   114   102   101    1
   115   107   108    1
   116    76    78    1
   117    76    75    2
   118   103   104    2
   119    95    92    1
   120    70    69    1
   121    70    71    2
   122    81    82    2
   123    68    69    1
   124    74    75    1
   125    89    90    1
   126    89    86    1
   127    92    91    1
   128    92    93    1
   129    91    87   am
   130    87    86    1
   131    87    88    2
   132    94    93    2
   133    86    85    1
