@<TRIPOS>MOLECULE
tmp/3ml1B01.pdb
 191 190 0 0 0
SMALL
GASTEIGER

@<TRIPOS>ATOM
      1  N         63.4180  -23.7010   36.4750 N.3    28  MET28      -0.1230
      2  CA        62.7810  -22.3850   36.4880 C.3    28  MET28       0.1702
      3  C         61.2620  -22.4880   36.3400 C.2    28  MET28       0.2592
      4  O         60.5070  -21.6470   36.9040 O.2    28  MET28      -0.2718
      5  CB        63.2800  -21.5070   35.3070 C.3    28  MET28       0.0401
      6  CG        64.8110  -21.4300   35.0820 C.3    28  MET28       0.0596
      7  SD        65.3600  -19.7490   35.5940 S.3    28  MET28      -0.1393
      8  CE        67.1110  -20.0090   35.6410 C.3    28  MET28       0.0692
      9  N         60.8370  -23.4300   35.5120 N.am   29  GLN29      -0.1966
     10  CA        59.4340  -23.5900   35.1480 C.3    29  GLN29       0.1718
     11  C         58.6580  -24.2760   36.2900 C.2    29  GLN29       0.2458
     12  O         59.2180  -25.1510   36.9710 O.2    29  GLN29      -0.2730
     13  CB        59.3030  -24.4810   33.8950 C.3    29  GLN29       0.0407
     14  CG        59.8370  -23.9270   32.5890 C.3    29  GLN29       0.0908
     15  CD        59.9240  -25.0620   31.5530 C.2    29  GLN29       0.2608
     16  OE1       59.2650  -26.1530   31.7120 O.2    29  GLN29      -0.2717
     17  NE2       60.7700  -24.8740   30.5570 N.am   29  GLN29      -0.0878
     18  N         57.3790  -23.9650   36.4590 N.am   30  PRO30      -0.2716
     19  CA        56.5370  -24.7860   37.3380 C.3    30  PRO30       0.1521
     20  C         56.4230  -26.1810   36.7290 C.2    30  PRO30       0.2440
     21  O         56.0840  -26.2770   35.5650 O.2    30  PRO30      -0.2731
     22  CB        55.1490  -24.1700   37.2710 C.3    30  PRO30       0.0310
     23  CG        55.2240  -23.4080   35.8810 C.3    30  PRO30       0.0237
     24  CD        56.6200  -22.9610   35.6880 C.3    30  PRO30       0.0939
     25  N         56.7300  -27.2470   37.4910 N.am   31  PRO31      -0.2727
     26  CA        56.5790  -28.5720   36.9580 C.3    31  PRO31       0.1402
     27  C         55.1320  -28.7930   36.5250 C.2    31  PRO31       0.2269
     28  O         54.1560  -28.2990   37.1080 O.2    31  PRO31      -0.2865
     29  CB        56.9530  -29.5200   38.1720 C.3    31  PRO31       0.0296
     30  CG        56.9720  -28.6320   39.3580 C.3    31  PRO31       0.0237
     31  CD        57.3640  -27.2420   38.8270 C.3    31  PRO31       0.0939
     32  N         41.4420  -26.7620   49.8400 N.3    47  ASN47      -0.1240
     33  CA        42.4220  -26.9310   48.8020 C.3    47  ASN47       0.1653
     34  C         42.9090  -28.4050   48.8830 C.2    47  ASN47       0.2266
     35  O         43.7190  -28.7580   49.7560 O.2    47  ASN47      -0.2867
     36  CB        43.5590  -25.9920   49.1010 C.3    47  ASN47       0.1155
     37  CG        44.5950  -25.9570   47.9630 C.2    47  ASN47       0.2627
     38  OD1       45.0080  -27.0370   47.4660 O.2    47  ASN47      -0.2716
     39  ND2       45.0480  -24.7390   47.5850 N.am   47  ASN47      -0.0877
     40  N         44.8270  -30.0540   46.8410 N.3    49  CYS49      -0.1221
     41  CA        46.3010  -30.1580   46.5410 C.3    49  CYS49       0.1808
     42  C         47.1220  -30.1570   47.8180 C.2    49  CYS49       0.2601
     43  O         48.0760  -30.9400   47.9840 O.2    49  CYS49      -0.2717
     44  CB        46.7730  -29.0550   45.6440 C.3    49  CYS49       0.0970
     45  SG        45.6060  -28.7550   44.2200 S.3    49  CYS49      -0.0800
     46  N         46.7600  -29.2430   48.7320 N.am   50  MET50      -0.1979
     47  CA        47.4910  -29.1370   49.9940 C.3    50  MET50       0.1605
     48  C         47.3680  -30.3250   50.8740 C.2    50  MET50       0.2287
     49  O         48.2100  -30.5730   51.7700 O.2    50  MET50      -0.2864
     50  CB        47.0910  -27.8580   50.7260 C.3    50  MET50       0.0413
     51  CG        47.4910  -26.6330   49.9660 C.3    50  MET50       0.0598
     52  SD        49.3090  -26.3440   50.0760 S.3    50  MET50      -0.1393
     53  CE        49.4090  -26.0030   51.8510 C.3    50  MET50       0.0692
     54  N         50.4000  -32.0250   49.2830 N.3    53  HIS53      -0.1241
     55  CA        51.6210  -31.2120   48.9990 C.3    53  HIS53       0.1621
     56  C         51.9520  -30.1910   50.0320 C.2    53  HIS53       0.2264
     57  O         52.8940  -29.3930   49.8210 O.2    53  HIS53      -0.2867
     58  CB        51.4860  -30.5340   47.6290 C.3    53  HIS53       0.0745
     59  CG        51.4970  -31.5160   46.5080 C.ar   53  HIS53       0.0817
     60  ND1       52.6770  -32.0980   46.0360 N.ar   53  HIS53      -0.2268
     61  CD2       50.5090  -31.9470   45.6890 C.ar   53  HIS53       0.1154
     62  CE1       52.3850  -32.8960   45.0090 C.ar   53  HIS53       0.1986
     63  NE2       51.0780  -32.8320   44.7820 N.ar   53  HIS53      -0.2212
     64  N         56.0420  -34.7000   46.6650 N.3    58  ILE58      -0.1231
     65  CA        56.9440  -33.7150   47.2430 C.3    58  ILE58       0.1678
     66  C         56.1820  -32.4310   47.6610 C.2    58  ILE58       0.2434
     67  O         55.2210  -31.9910   47.0160 O.2    58  ILE58      -0.2733
     68  CB        58.2300  -33.5430   46.4540 C.3    58  ILE58       0.0265
     69  CG1       58.0320  -32.5580   45.4110 C.3    58  ILE58       0.0019
     70  CG2       58.8320  -34.8960   45.8790 C.3    58  ILE58       0.0020
     71  CD1       59.0560  -31.5960   45.6640 C.3    58  ILE58       0.0001
     72  N         56.5810  -31.8450   48.8020 N.am   59  PRO59      -0.2718
     73  CA        55.8280  -30.6710   49.2580 C.3    59  PRO59       0.1535
     74  C         56.0710  -29.4720   48.3560 C.2    59  PRO59       0.2598
     75  O         57.1480  -29.3610   47.7330 O.2    59  PRO59      -0.2715
     76  CB        56.4070  -30.3590   50.6510 C.3    59  PRO59       0.0310
     77  CG        57.8430  -30.9440   50.6030 C.3    59  PRO59       0.0237
     78  CD        57.7260  -32.1990   49.6850 C.3    59  PRO59       0.0939
     79  N         55.1550  -28.5230   48.4230 N.am   60  VAL60      -0.1964
     80  CA        55.4070  -27.2320   47.7500 C.3    60  VAL60       0.1727
     81  C         56.7410  -26.6420   48.3230 C.2    60  VAL60       0.2616
     82  O         57.0610  -26.8390   49.5160 O.2    60  VAL60      -0.2715
     83  CB        54.2450  -26.1850   47.9110 C.3    60  VAL60       0.0290
     84  CG1       52.9540  -26.8260   47.4620 C.3    60  VAL60       0.0023
     85  CG2       54.1130  -25.8170   49.3790 C.3    60  VAL60       0.0023
     86  N         57.4960  -25.9270   47.5110 N.am   61  SER61      -0.1950
     87  CA        58.7480  -25.3000   48.0380 C.3    61  SER61       0.1924
     88  C         58.4070  -24.0740   48.9490 C.2    61  SER61       0.2314
     89  O         57.2350  -23.5770   48.9310 O.2    61  SER61      -0.2863
     90  CB        59.5710  -24.9140   46.8070 C.3    61  SER61       0.2116
     91  OG        58.8150  -23.8870   46.1470 O.3    61  SER61      -0.2180
     92  N         58.9140  -21.0640   48.6040 N.3    63  THR63      -0.1203
     93  CA        58.4560  -19.8170   47.8940 C.3    63  THR63       0.1994
     94  C         56.9280  -19.7790   47.9070 C.2    63  THR63       0.2617
     95  O         56.3300  -18.6990   47.8170 O.2    63  THR63      -0.2717
     96  CB        58.9450  -19.8060   46.4390 C.3    63  THR63       0.1784
     97  OG1       58.5830  -21.0270   45.9050 O.3    63  THR63      -0.2211
     98  CG2       60.4680  -19.7000   46.4510 C.3    63  THR63       0.0376
     99  N         56.3240  -20.9440   48.0240 N.am   64  HIS64      -0.1975
    100  CA        54.8450  -21.0210   48.0170 C.3    64  HIS64       0.1656
    101  C         54.2390  -20.5130   49.3600 C.2    64  HIS64       0.2291
    102  O         53.0110  -20.3820   49.4660 O.2    64  HIS64      -0.2864
    103  CB        54.4490  -22.4830   47.8070 C.3    64  HIS64       0.0771
    104  CG        54.7140  -22.9450   46.3930 C.ar   64  HIS64       0.0820
    105  ND1       56.0000  -23.1150   45.9210 N.ar   64  HIS64      -0.2267
    106  CD2       53.8840  -23.3410   45.4040 C.ar   64  HIS64       0.1154
    107  CE1       55.9390  -23.5700   44.6710 C.ar   64  HIS64       0.1986
    108  NE2       54.6630  -23.7120   44.3380 N.ar   64  HIS64      -0.2212
    109  N         50.3720  -21.8020   53.2520 N.3    76  VAL76      -0.1245
    110  CA        50.5360  -21.4490   51.8530 C.3    76  VAL76       0.1561
    111  C         50.0380  -20.0220   51.6440 C.2    76  VAL76       0.2260
    112  O         48.9740  -19.6110   52.2120 O.2    76  VAL76      -0.2867
    113  CB        49.8370  -22.4720   50.9220 C.3    76  VAL76       0.0252
    114  CG1       48.2600  -22.4420   51.1380 C.3    76  VAL76       0.0019
    115  CG2       50.1870  -22.1320   49.4620 C.3    76  VAL76       0.0019
    116  N         48.7850  -15.9370   47.4490 N.3    79  ARG79      -0.1231
    117  CA        49.2510  -15.6830   46.0960 C.3    79  ARG79       0.1694
    118  C         49.6410  -16.9700   45.3420 C.2    79  ARG79       0.2592
    119  O         49.7700  -16.8850   44.1360 O.2    79  ARG79      -0.2718
    120  CB        50.4600  -14.7420   46.1470 C.3    79  ARG79       0.0321
    121  CG        50.1840  -13.4400   46.7400 C.3    79  ARG79       0.0489
    122  CD        51.5910  -12.8390   46.9970 C.3    79  ARG79       0.2205
    123  NE        52.1090  -12.2890   45.7660 N.pl3  79  ARG79      -0.0865
    124  CZ        53.3090  -12.4310   45.2110 C.cat  79  ARG79       0.5346
    125  NH1       54.2410  -13.2670   45.7070 N.pl3  79  ARG79       0.1354
    126  NH2       53.5570  -11.7200   44.0890 N.pl3  79  ARG79       0.1354
    127  N         49.7240  -18.1280   46.0220 N.am   80  ARG80      -0.1966
    128  CA        49.8490  -19.3670   45.3400 C.3    80  ARG80       0.1729
    129  C         48.7330  -20.3230   45.6330 C.2    80  ARG80       0.2616
    130  O         48.8090  -21.4400   45.2210 O.2    80  ARG80      -0.2715
    131  CB        51.1700  -20.0760   45.7260 C.3    80  ARG80       0.0348
    132  CG        52.3890  -19.1270   45.6710 C.3    80  ARG80       0.0492
    133  CD        53.2370  -19.5220   44.5410 C.3    80  ARG80       0.2205
    134  NE        54.4950  -18.7720   44.4840 N.pl3  80  ARG80      -0.0865
    135  CZ        55.6040  -19.2230   43.9060 C.cat  80  ARG80       0.5346
    136  NH1       55.7030  -20.4440   43.4020 N.pl3  80  ARG80       0.1354
    137  NH2       56.6740  -18.4530   43.9280 N.pl3  80  ARG80       0.1354
    138  N         47.6560  -19.8700   46.2490 N.am   81  TYR81      -0.1960
    139  CA        46.6250  -20.7950   46.6860 C.3    81  TYR81       0.1771
    140  C         45.9790  -21.5220   45.5310 C.2    81  TYR81       0.2620
    141  O         45.7580  -22.7190   45.6470 O.2    81  TYR81      -0.2715
    142  CB        45.5660  -20.0110   47.4290 C.3    81  TYR81       0.0574
    143  CG        44.4930  -20.8810   48.0860 C.ar   81  TYR81      -0.0198
    144  CD1       44.7470  -21.4390   49.3170 C.ar   81  TYR81      -0.0009
    145  CD2       43.2350  -21.1190   47.4540 C.ar   81  TYR81      -0.0009
    146  CE1       43.7470  -22.2330   49.9510 C.ar   81  TYR81       0.0417
    147  CE2       42.2460  -21.9160   48.0610 C.ar   81  TYR81       0.0417
    148  CZ        42.5530  -22.4600   49.3340 C.ar   81  TYR81       0.1957
    149  OH        41.6030  -23.1850   49.9880 O.3    81  TYR81      -0.2866
    150  N         45.7040  -20.8160   44.4260 N.am   82  PHE82      -0.1960
    151  CA        45.0100  -21.4650   43.2860 C.3    82  PHE82       0.1771
    152  C         46.0950  -22.0950   42.3760 C.2    82  PHE82       0.2619
    153  O         46.5160  -21.5130   41.3650 O.2    82  PHE82      -0.2715
    154  CB        44.1060  -20.4910   42.5510 C.3    82  PHE82       0.0574
    155  CG        42.8430  -20.1810   43.3780 C.ar   82  PHE82      -0.0200
    156  CD1       42.5680  -18.8800   43.8280 C.ar   82  PHE82      -0.0042
    157  CD2       41.9350  -21.2280   43.6670 C.ar   82  PHE82      -0.0042
    158  CE1       41.4110  -18.5990   44.6050 C.ar   82  PHE82      -0.0003
    159  CE2       40.7870  -20.9690   44.4310 C.ar   82  PHE82      -0.0003
    160  CZ        40.5170  -19.6400   44.9190 C.ar   82  PHE82      -0.0000
    161  N         46.4540  -23.3120   42.7170 N.am   83  CYS83      -0.1968
    162  CA        47.6530  -23.9380   42.1260 C.3    83  CYS83       0.1712
    163  C         47.5650  -24.0340   40.5720 C.2    83  CYS83       0.2296
    164  O         48.5850  -23.9890   39.9120 O.2    83  CYS83      -0.2864
    165  CB        47.7680  -25.3930   42.6250 C.3    83  CYS83       0.0983
    166  SG        47.5220  -25.6240   44.4000 S.3    83  CYS83      -0.0798
    167  N         46.6260  -22.1350   38.3490 N.3    85  GLN85      -0.1231
    168  CA        46.9910  -20.9570   37.5010 C.3    85  GLN85       0.1698
    169  C         48.3860  -21.2320   36.9060 C.2    85  GLN85       0.2592
    170  O         48.6860  -20.5960   35.8880 O.2    85  GLN85      -0.2718
    171  CB        47.0460  -19.6480   38.3230 C.3    85  GLN85       0.0381
    172  CG        45.6520  -19.3290   38.7820 C.3    85  GLN85       0.0905
    173  CD        45.6040  -17.9620   39.5120 C.2    85  GLN85       0.2608
    174  OE1       46.4750  -17.0840   39.3450 O.2    85  GLN85      -0.2717
    175  NE2       44.4920  -17.7280   40.1850 N.am   85  GLN85      -0.0878
    176  N         49.1600  -22.1110   37.5560 N.am   86  CYS86      -0.1956
    177  CA        50.5760  -22.2630   37.1540 C.3    86  CYS86       0.1843
    178  C         50.9290  -23.7100   36.8150 C.2    86  CYS86       0.2625
    179  O         51.7550  -23.9260   35.9060 O.2    86  CYS86      -0.2714
    180  CB        51.4940  -21.8270   38.3090 C.3    86  CYS86       0.0997
    181  SG        51.2440  -20.0960   38.6710 S.3    86  CYS86      -0.0797
    182  N         50.3290  -24.7230   37.5160 N.am   87  HIS87      -0.1973
    183  CA        50.6300  -26.1180   37.3180 C.3    87  HIS87       0.1656
    184  C         49.5020  -26.7380   36.5400 C.2    87  HIS87       0.2291
    185  O         48.3480  -26.5900   36.9040 O.2    87  HIS87      -0.2864
    186  CB        50.7220  -26.7870   38.6940 C.3    87  HIS87       0.0771
    187  CG        51.9340  -26.3270   39.4860 C.ar   87  HIS87       0.0820
    188  ND1       53.2200  -26.7300   39.1770 N.ar   87  HIS87      -0.2267
    189  CD2       52.0540  -25.5390   40.5840 C.ar   87  HIS87       0.1154
    190  CE1       54.0770  -26.1390   39.9980 C.ar   87  HIS87       0.1986
    191  NE2       53.3910  -25.4580   40.8880 N.ar   87  HIS87      -0.2212
@<TRIPOS>BOND
     1    17    15   am
     2    15    16    2
     3    15    14    1
     4    14    13    1
     5    13    10    1
     6     6     5    1
     7     6     7    1
     8    10     9    1
     9    10    11    1
    10     5     2    1
    11     9     3   am
    12    21    20    2
    13     7     8    1
    14    24    23    1
    15    24    18    1
    16    23    22    1
    17   170   169    2
    18   179   178    2
    19    11    18   am
    20    11    12    2
    21     3     2    1
    22     3     4    2
    23    18    19    1
    24     1     2    1
    25    27    26    1
    26    27    28    2
    27   184   185    2
    28   184   183    1
    29    20    19    1
    30    20    25   am
    31   178   177    1
    32   178   182   am
    33   169   168    1
    34   169   176   am
    35    26    25    1
    36    26    29    1
    37   177   176    1
    38   177   180    1
    39    22    19    1
    40   183   182    1
    41   183   186    1
    42    25    31    1
    43   168   171    1
    44   168   167    1
    45    29    30    1
    46   180   181    1
    47   171   172    1
    48   186   187    1
    49   172   173    1
    50    31    30    1
    51   188   187   ar
    52   188   190   ar
    53   174   173    2
    54   187   189   ar
    55   173   175   am
    56   164   163    2
    57   190   191   ar
    58   163   162    1
    59   189   191   ar
    60   153   152    2
    61   162   165    1
    62   162   161    1
    63   152   161   am
    64   152   151    1
    65   154   151    1
    66   154   155    1
    67   165   166    1
    68   151   150    1
    69   155   157   ar
    70   155   156   ar
    71   136   135    1
    72   157   159   ar
    73   156   158   ar
    74   135   137    1
    75   135   134    2
    76   126   124    1
    77   119   118    2
    78    45    44    1
    79   108   107   ar
    80   108   106   ar
    81   150   140   am
    82   159   160   ar
    83   134   133    1
    84   133   132    1
    85   158   160   ar
    86   107   105   ar
    87    63    62   ar
    88    63    61   ar
    89    62    60   ar
    90   124   125    1
    91   124   123    2
    92   130   129    2
    93   128   129    1
    94   128   131    1
    95   128   127    1
    96   118   127   am
    97   118   117    1
    98   106   104   ar
    99    69    71    1
   100    69    68    1
   101   140   141    2
   102   140   139    1
   103   129   138   am
   104    44    41    1
   105   132   131    1
   106    61    59   ar
   107   123   122    1
   108    70    68    1
   109    97    96    1
   110   105   104   ar
   111    60    59   ar
   112   117   120    1
   113   117   116    1
   114   120   121    1
   115    91    90    1
   116   138   139    1
   117   104   103    1
   118    96    98    1
   119    96    93    1
   120    68    65    1
   121    59    58    1
   122    41    40    1
   123    41    42    1
   124    64    65    1
   125   139   142    1
   126   121   122    1
   127    90    87    1
   128    67    66    2
   129    65    66    1
   130   142   143    1
   131   145   147   ar
   132   145   143   ar
   133    84    83    1
   134    38    37    2
   135    86    87    1
   136    86    81   am
   137    39    37   am
   138    58    55    1
   139    66    72   am
   140    75    74    2
   141    80    83    1
   142    80    81    1
   143    80    79    1
   144   103   100    1
   145    95    94    2
   146    42    43    2
   147    42    46   am
   148    93    94    1
   149    93    92    1
   150    94    99   am
   151    83    85    1
   152    37    36    1
   153   100    99    1
   154   100   101    1
   155    87    88    1
   156   147   148   ar
   157   143   144   ar
   158    81    82    2
   159    74    79   am
   160    74    73    1
   161    46    47    1
   162    72    73    1
   163    72    78    1
   164    33    34    1
   165    33    36    1
   166    33    32    1
   167    34    35    2
   168    89    88    2
   169    55    54    1
   170    55    56    1
   171    73    76    1
   172   144   146   ar
   173   148   146   ar
   174   148   149    1
   175   101   102    2
   176   115   113    1
   177    78    77    1
   178    57    56    2
   179    51    52    1
   180    51    50    1
   181    47    50    1
   182    47    48    1
   183    52    53    1
   184    77    76    1
   185    48    49    2
   186   113   114    1
   187   113   110    1
   188   111   110    1
   189   111   112    2
   190   110   109    1
