@<TRIPOS>MOLECULE
tmp/3ml2A00.pdb
 164 159 0 0 0
SMALL
GASTEIGER

@<TRIPOS>ATOM
      1  N        -13.8940    8.6390   12.6670 N.3    88  ILE88      -0.1231
      2  CA       -13.0290    8.9950   11.5550 C.3    88  ILE88       0.1692
      3  C        -12.7120    7.8410   10.6080 C.2    88  ILE88       0.2591
      4  O        -12.6230    8.0340    9.3920 O.2    88  ILE88      -0.2718
      5  CB       -11.6870    9.6580   12.0530 C.3    88  ILE88       0.0266
      6  CG1      -10.7790    9.9730   10.8640 C.3    88  ILE88       0.0019
      7  CG2      -10.9480    8.8020   13.1150 C.3    88  ILE88       0.0020
      8  CD1       -9.7220   10.9910   11.2140 C.3    88  ILE88       0.0001
      9  N        -12.5820    6.6310   11.1390 N.am   89  GLN89      -0.1979
     10  CA       -12.3440    5.5120   10.2540 C.3    89  GLN89       0.1601
     11  C        -12.5840    4.2050   11.0180 C.2    89  GLN89       0.2287
     12  O        -12.5840    4.2060   12.2250 O.2    89  GLN89      -0.2864
     13  CB       -10.8950    5.5630    9.7520 C.3    89  GLN89       0.0394
     14  CG        -9.8420    5.7160   10.8960 C.3    89  GLN89       0.0908
     15  CD        -9.0210    4.4560   11.1150 C.2    89  GLN89       0.2608
     16  OE1       -9.5170    3.3470   10.8960 O.2    89  GLN89      -0.2717
     17  NE2       -7.7820    4.6130   11.5420 N.am   89  GLN89      -0.0878
     18  N        -11.1780   -0.0980   10.7910 N.3    91  HIS91      -0.1241
     19  CA       -10.2770   -1.0570   10.1900 C.3    91  HIS91       0.1621
     20  C        -10.3710   -2.3430   11.0310 C.2    91  HIS91       0.2264
     21  O        -11.0190   -2.3760   12.0670 O.2    91  HIS91      -0.2867
     22  CB        -8.8550   -0.5430   10.1980 C.3    91  HIS91       0.0745
     23  CG        -8.3160   -0.3020   11.5680 C.ar   91  HIS91       0.0817
     24  ND1       -8.4770    0.9000   12.2460 N.ar   91  HIS91      -0.2268
     25  CD2       -7.7110   -1.1470   12.4260 C.ar   91  HIS91       0.1154
     26  CE1       -7.9510    0.7850   13.4490 C.ar   91  HIS91       0.1986
     27  NE2       -7.4480   -0.4470   13.5790 N.ar   91  HIS91      -0.2212
     28  N         -8.0010   -6.0430   12.3380 N.3    93  HIS93      -0.1241
     29  CA        -6.7290   -6.7910   12.4460 C.3    93  HIS93       0.1621
     30  C         -7.1190   -8.2640   12.3190 C.2    93  HIS93       0.2264
     31  O         -8.1780   -8.6500   12.8260 O.2    93  HIS93      -0.2867
     32  CB        -6.0680   -6.5620   13.8050 C.3    93  HIS93       0.0745
     33  CG        -5.7640   -5.1300   14.0720 C.ar   93  HIS93       0.0817
     34  ND1       -4.5440   -4.5660   13.7400 N.ar   93  HIS93      -0.2268
     35  CD2       -6.5590   -4.0890   14.4670 C.ar   93  HIS93       0.1154
     36  CE1       -4.5540   -3.2810   14.0410 C.ar   93  HIS93       0.1986
     37  NE2       -5.7750   -2.9560   14.4370 N.ar   93  HIS93      -0.2212
     38  N        -11.9690   -2.1870   14.7120 N.3   116  HIS116     -0.1241
     39  CA       -11.7010   -1.0040   15.5300 C.3   116  HIS116      0.1621
     40  C        -12.3740    0.1550   14.8320 C.2   116  HIS116      0.2264
     41  O        -12.0510    0.4570   13.6920 O.2   116  HIS116     -0.2867
     42  CB       -10.1770   -0.7690   15.6000 C.3   116  HIS116      0.0745
     43  CG        -9.4730   -1.7600   16.4880 C.ar  116  HIS116      0.0817
     44  ND1       -8.1450   -2.1020   16.3420 N.ar  116  HIS116     -0.2268
     45  CD2       -9.9290   -2.4830   17.5350 C.ar  116  HIS116      0.1154
     46  CE1       -7.8080   -2.9730   17.2800 C.ar  116  HIS116      0.1986
     47  NE2       -8.8720   -3.2320   18.0090 N.ar  116  HIS116     -0.2212
     48  N        -12.7140    3.9910   15.1230 N.3   118  VAL118     -0.1245
     49  CA       -11.8020    4.9540   15.7400 C.3   118  VAL118      0.1561
     50  C        -12.5110    6.3020   15.7570 C.2   118  VAL118      0.2260
     51  O        -12.9920    6.7160   14.7190 O.2   118  VAL118     -0.2867
     52  CB       -10.5360    5.1060   14.8890 C.3   118  VAL118      0.0252
     53  CG1       -9.5680    6.1450   15.5180 C.3   118  VAL118      0.0019
     54  CG2       -9.8330    3.7420   14.6880 C.3   118  VAL118      0.0019
     55  N         -9.4550   18.3930   16.0240 N.3   126  ASP126     -0.1225
     56  CA        -9.0800   17.5710   14.8720 C.3   126  ASP126      0.1805
     57  C         -8.3870   16.2980   15.3910 C.2   126  ASP126      0.2598
     58  O         -7.9770   16.2300   16.5640 O.2   126  ASP126     -0.2718
     59  CB        -8.2440   18.3400   13.7970 C.3   126  ASP126      0.1424
     60  CG        -6.8260   18.6650   14.2240 C.2   126  ASP126      0.3668
     61  OD1       -6.0620   17.7640   14.6030 O.co2 126  ASP126     -0.2456
     62  OD2       -6.3890   19.8360   14.1310 O.co2 126  ASP126     -0.2456
     63  N         -8.3100   15.2930   14.5380 N.am  127  PHE127     -0.1962
     64  CA        -7.7640   14.0160   14.9480 C.3   127  PHE127      0.1771
     65  C         -6.3030   14.1540   15.3270 C.2   127  PHE127      0.2620
     66  O         -5.8830   13.5960   16.3090 O.2   127  PHE127     -0.2715
     67  CB        -7.9090   13.0120   13.8310 C.3   127  PHE127      0.0574
     68  CG        -7.3060   11.7090   14.1330 C.ar  127  PHE127     -0.0200
     69  CD1       -8.0590   10.7120   14.7720 C.ar  127  PHE127     -0.0042
     70  CD2       -6.0240   11.4230   13.7530 C.ar  127  PHE127     -0.0042
     71  CE1       -7.5050    9.4500   15.0550 C.ar  127  PHE127     -0.0003
     72  CE2       -5.4690   10.1600   14.0140 C.ar  127  PHE127     -0.0003
     73  CZ        -6.2250    9.1830   14.6800 C.ar  127  PHE127     -0.0000
     74  N         -5.5330   14.9220   14.5500 N.am  128  GLY128     -0.1954
     75  CA        -4.1290   15.1070   14.8740 C.3   128  GLY128      0.1869
     76  C         -3.8280   15.7190   16.2310 C.2   128  GLY128      0.2309
     77  O         -2.8590   15.3290   16.8980 O.2   128  GLY128     -0.2863
     78  N         -4.8770   12.8920   19.1730 N.3   131  VAL131     -0.1245
     79  CA        -3.9320   11.7970   19.4850 C.3   131  VAL131      0.1561
     80  C         -2.8670   12.2170   20.4940 C.2   131  VAL131      0.2260
     81  O         -2.2270   11.3650   21.1090 O.2   131  VAL131     -0.2867
     82  CB        -3.2110   11.1180   18.2290 C.3   131  VAL131      0.0252
     83  CG1       -4.2290   10.4360   17.3560 C.3   131  VAL131      0.0019
     84  CG2       -2.2540   12.1210   17.4260 C.3   131  VAL131      0.0019
     85  N         -8.8600    9.9070   22.1240 N.3   137  LEU137     -0.1245
     86  CA        -9.5580    8.9560   21.2570 C.3   137  LEU137      0.1561
     87  C        -10.4350    7.9870   22.0660 C.2   137  LEU137      0.2260
     88  O        -10.1930    7.7400   23.2430 O.2   137  LEU137     -0.2867
     89  CB        -8.5730    8.1200   20.3870 C.3   137  LEU137      0.0270
     90  CG        -7.5250    8.7600   19.4340 C.3   137  LEU137      0.0019
     91  CD1       -7.0480    7.6880   18.4120 C.3   137  LEU137      0.0001
     92  CD2       -7.9550   10.0090   18.6990 C.3   137  LEU137      0.0001
     93  N        -11.7810    4.1010   20.9680 N.3   139  VAL139     -0.1245
     94  CA       -11.8440    3.1300   19.9230 C.3   139  VAL139      0.1561
     95  C        -12.8050    2.0020   20.4030 C.2   139  VAL139      0.2260
     96  O        -12.7160    1.5440   21.5390 O.2   139  VAL139     -0.2867
     97  CB       -10.4430    2.6050   19.5320 C.3   139  VAL139      0.0252
     98  CG1      -10.5330    1.5470   18.3600 C.3   139  VAL139      0.0019
     99  CG2       -9.5660    3.7790   19.1440 C.3   139  VAL139      0.0019
    100  N         -2.9370    3.5860   20.9740 N.3   194  LEU194     -0.1231
    101  CA        -2.9610    3.0330   19.6310 C.3   194  LEU194      0.1693
    102  C         -2.2270    1.6830   19.7030 C.2   194  LEU194      0.2593
    103  O         -1.2130    1.5510   20.3820 O.2   194  LEU194     -0.2718
    104  CB        -2.1800    3.9320   18.6560 C.3   194  LEU194      0.0284
    105  CG        -2.5790    5.3970   18.5320 C.3   194  LEU194      0.0019
    106  CD1       -1.6790    6.0990   17.4820 C.3   194  LEU194      0.0001
    107  CD2       -4.0680    5.5560   18.1940 C.3   194  LEU194      0.0001
    108  N         -2.7100    0.6820   18.9750 N.am  195  THR195     -0.1939
    109  CA        -1.9820   -0.6050   18.9700 C.3   195  THR195      0.2028
    110  C         -0.9450   -0.7350   17.8730 C.2   195  THR195      0.2643
    111  O         -0.3240   -1.8180   17.7420 O.2   195  THR195     -0.2714
    112  CB        -2.9330   -1.7960   18.8130 C.3   195  THR195      0.1808
    113  OG1       -3.5290   -1.7190   17.5060 O.3   195  THR195     -0.2208
    114  CG2       -3.9930   -1.8700   19.9860 C.3   195  THR195      0.0379
    115  N         -0.7250    0.3190   17.0720 N.am  196  THR196     -0.1937
    116  CA         0.4030    0.3130   16.1390 C.3   196  THR196      0.2013
    117  C          1.2180    1.5710   16.3970 C.2   196  THR196      0.2484
    118  O          0.7110    2.4990   17.0120 O.2   196  THR196     -0.2729
    119  CB         0.0080    0.3390   14.6240 C.3   196  THR196      0.1807
    120  OG1       -0.4120    1.6730   14.2420 O.3   196  THR196     -0.2208
    121  CG2       -1.0620   -0.7790   14.2780 C.3   196  THR196      0.0379
    122  N          2.4750    1.5860   15.9450 N.am  197  PRO197     -0.2715
    123  CA         3.1940    2.8660   16.0240 C.3   197  PRO197      0.1521
    124  C          2.3020    4.0150   15.4860 C.2   197  PRO197      0.2440
    125  O          1.5940    3.8310   14.4670 O.2   197  PRO197     -0.2731
    126  CB         4.3850    2.6180   15.1320 C.3   197  PRO197      0.0310
    127  CG         4.7510    1.1060   15.4040 C.3   197  PRO197      0.0237
    128  CD         3.3150    0.5010   15.3800 C.3   197  PRO197      0.0939
    129  N          2.3960    5.2130   16.0820 N.am  198  PRO198     -0.2727
    130  CA         3.3330    5.6540   17.1370 C.3   198  PRO198      0.1402
    131  C          2.9610    5.2010   18.5830 C.2   198  PRO198      0.2269
    132  O          3.5980    5.6570   19.5480 O.2   198  PRO198     -0.2865
    133  CB         3.2920    7.1880   17.0060 C.3   198  PRO198      0.0296
    134  CG         1.8360    7.4780   16.4950 C.3   198  PRO198      0.0237
    135  CD         1.6220    6.3440   15.5010 C.3   198  PRO198      0.0939
    136  N          0.7230    5.9080   20.6190 N.3   200  LEU200     -0.1245
    137  CA         0.3880    6.9620   21.5880 C.3   200  LEU200      0.1561
    138  C         -0.6530    6.5470   22.6320 C.2   200  LEU200      0.2260
    139  O         -1.6540    5.8700   22.3350 O.2   200  LEU200     -0.2867
    140  CB        -0.0680    8.2460   20.8220 C.3   200  LEU200      0.0270
    141  CG         0.9690    8.7640   19.8230 C.3   200  LEU200      0.0019
    142  CD1        0.3670    9.8730   18.9530 C.3   200  LEU200      0.0001
    143  CD2        2.2350    9.2520   20.5270 C.3   200  LEU200      0.0001
    144  N         -5.9170    6.6550   24.0860 N.3   203  VAL203     -0.1245
    145  CA        -7.1620    5.9290   23.7600 C.3   203  VAL203      0.1561
    146  C         -7.9750    5.4400   24.9870 C.2   203  VAL203      0.2260
    147  O         -7.4560    4.8470   25.9230 O.2   203  VAL203     -0.2867
    148  CB        -6.8730    4.6710   22.8290 C.3   203  VAL203      0.0252
    149  CG1       -8.2340    3.9760   22.4570 C.3   203  VAL203      0.0019
    150  CG2       -6.1370    5.0750   21.5740 C.3   203  VAL203      0.0019
    151  N        -10.2970    2.6940   25.4700 N.3   205  TRP205     -0.1241
    152  CA       -10.7510    1.4950   24.8120 C.3   205  TRP205      0.1605
    153  C        -12.1160    1.0590   25.3430 C.2   205  TRP205      0.2264
    154  O        -12.3350    1.0550   26.5290 O.2   205  TRP205     -0.2867
    155  CB        -9.7520    0.3160   25.0190 C.3   205  TRP205      0.0550
    156  CG        -8.6710    0.4520   23.9950 C.ar  205  TRP205      0.0003
    157  CD1       -7.4430    1.0510   24.1680 C.ar  205  TRP205      0.0946
    158  CD2       -8.7330    0.0410   22.6290 C.ar  205  TRP205      0.0152
    159  NE1       -6.7420    1.0270   23.0000 N.ar  205  TRP205     -0.2442
    160  CE2       -7.4980    0.3960   22.0390 C.ar  205  TRP205      0.0810
    161  CE3       -9.7070   -0.6240   21.8460 C.ar  205  TRP205      0.0012
    162  CZ2       -7.2100    0.1450   20.6990 C.ar  205  TRP205      0.0191
    163  CZ3       -9.4280   -0.8980   20.5070 C.ar  205  TRP205      0.0001
    164  CH2       -8.1640   -0.5230   19.9470 C.ar  205  TRP205      0.0015
@<TRIPOS>BOND
     1     4     3    2
     2    13    10    1
     3    13    14    1
     4    19    22    1
     5    19    18    1
     6    19    20    1
     7    22    23    1
     8    10    11    1
     9    10     9    1
    10     3     9   am
    11     3     2    1
    12     6     8    1
    13     6     5    1
    14    16    15    2
    15    14    15    1
    16    11    12    2
    17    20    21    2
    18    15    17   am
    19     2     5    1
    20     2     1    1
    21    23    24   ar
    22    23    25   ar
    23     5     7    1
    24    24    26   ar
    25    30    29    1
    26    30    31    2
    27    28    29    1
    28    25    27   ar
    29    29    32    1
    30    26    27   ar
    31    41    40    2
    32    34    36   ar
    33    34    33   ar
    34    70    72   ar
    35    70    68   ar
    36    59    60    1
    37    59    56    1
    38    32    33    1
    39    67    68    1
    40    67    64    1
    41    72    73   ar
    42    36    37   ar
    43    33    35   ar
    44    62    60   ar
    45    68    69   ar
    46    60    61   ar
    47   120   119    1
    48   121   119    1
    49    37    35   ar
    50   125   124    2
    51    63    64    1
    52    63    57   am
    53    74    75    1
    54    74    65   am
    55   119   116    1
    56    73    71   ar
    57    54    52    1
    58    38    39    1
    59    51    50    2
    60    69    71   ar
    61    40    39    1
    62    56    57    1
    63    56    55    1
    64    75    76    1
    65    52    53    1
    66    52    49    1
    67    64    65    1
    68    48    49    1
    69   126   127    1
    70   126   123    1
    71    65    66    2
    72   128   127    1
    73   128   122    1
    74    57    58    2
    75   124   123    1
    76   124   129   am
    77   135   129    1
    78   135   134    1
    79    39    42    1
    80    42    43    1
    81    49    50    1
    82   122   123    1
    83   122   117   am
    84   129   130    1
    85   116   117    1
    86   116   115    1
    87    76    77    2
    88    44    43   ar
    89    44    46   ar
    90   117   118    2
    91    43    45   ar
    92   134   133    1
    93   133   130    1
    94   115   110   am
    95   130   131    1
    96    46    47   ar
    97    83    82    1
    98    84    82    1
    99   106   105    1
   100   113   112    1
   101    45    47   ar
   102   111   110    2
   103   110   109    1
   104   107   105    1
   105    82    79    1
   106    98    97    1
   107    91    90    1
   108   105   104    1
   109   131   132    2
   110   104   101    1
   111    92    90    1
   112   112   109    1
   113   112   114    1
   114   142   141    1
   115   109   108    1
   116   108   102   am
   117    99    97    1
   118    78    79    1
   119    90    89    1
   120    79    80    1
   121    97    94    1
   122   101   102    1
   123   101   100    1
   124   102   103    2
   125   141   143    1
   126   141   140    1
   127    94    95    1
   128    94    93    1
   129   164   163   ar
   130   164   162   ar
   131    89    86    1
   132    95    96    2
   133    80    81    2
   134   163   161   ar
   135   136   137    1
   136   162   160   ar
   137   140   137    1
   138    86    87    1
   139    86    85    1
   140   150   148    1
   141   137   138    1
   142   161   158   ar
   143   160   158   ar
   144   160   159   ar
   145    87    88    2
   146   139   138    2
   147   149   148    1
   148   158   156   ar
   149   148   145    1
   150   159   157   ar
   151   145   144    1
   152   145   146    1
   153   156   157   ar
   154   156   155    1
   155   152   155    1
   156   152   153    1
   157   152   151    1
   158   146   147    2
   159   153   154    2
