@<TRIPOS>MOLECULE
tmp/3ml4C00.pdb
 189 181 0 0 0
SMALL
GASTEIGER

@<TRIPOS>ATOM
      1  N        -62.3330   -7.5400    5.8040 N.3   131  ASP131     -0.1239
      2  CA       -61.3590   -7.3260    6.8690 C.3   131  ASP131      0.1674
      3  C        -61.3020   -8.4640    7.8830 C.2   131  ASP131      0.2266
      4  O        -60.3880   -8.5230    8.7140 O.2   131  ASP131     -0.2867
      5  CB       -61.6740   -6.0200    7.5980 C.3   131  ASP131      0.1410
      6  CG       -60.7050   -4.9180    7.2510 C.2   131  ASP131      0.3668
      7  OD1      -59.4980   -5.0830    7.5430 O.co2 131  ASP131     -0.2456
      8  OD2      -61.1480   -3.8820    6.6990 O.co2 131  ASP131     -0.2456
      9  N        -57.8610   -9.8300    9.8470 N.3   148  LEU148     -0.1231
     10  CA       -56.7160  -10.2400    9.0390 C.3   148  LEU148      0.1693
     11  C        -55.4020   -9.6150    9.4910 C.2   148  LEU148      0.2593
     12  O        -54.3410  -10.2130    9.3240 O.2   148  LEU148     -0.2718
     13  CB       -56.9610   -9.9830    7.5540 C.3   148  LEU148      0.0284
     14  CG       -57.5900  -11.1830    6.8410 C.3   148  LEU148      0.0019
     15  CD1      -59.1120  -11.1580    6.9310 C.3   148  LEU148      0.0001
     16  CD2      -57.1480  -11.2420    5.3910 C.3   148  LEU148      0.0001
     17  N        -55.4810   -8.4240   10.0780 N.am  149  SER149     -0.1938
     18  CA       -54.2960   -7.7200   10.5550 C.3   149  SER149      0.2055
     19  C        -53.7940   -8.2600   11.8930 C.2   149  SER149      0.2643
     20  O        -52.7800   -7.7910   12.4120 O.2   149  SER149     -0.2714
     21  CB       -54.5570   -6.2140   10.6450 C.3   149  SER149      0.2130
     22  OG       -55.6190   -5.9260   11.5380 O.3   149  SER149     -0.2179
     23  N        -54.5040   -9.2420   12.4440 N.am  150  ASP150     -0.1957
     24  CA       -54.0820   -9.9050   13.6730 C.3   150  ASP150      0.1840
     25  C        -53.3980  -11.2560   13.4030 C.2   150  ASP150      0.2622
     26  O        -52.9520  -11.9370   14.3310 O.2   150  ASP150     -0.2715
     27  CB       -55.2670  -10.0670   14.6280 C.3   150  ASP150      0.1450
     28  CG       -55.8340   -8.7350   15.0990 C.2   150  ASP150      0.3671
     29  OD1      -55.1320   -7.7010   15.0060 O.co2 150  ASP150     -0.2456
     30  OD2      -56.9930   -8.7220   15.5640 O.co2 150  ASP150     -0.2456
     31  N        -53.3120  -11.6260   12.1290 N.am  151  LEU151     -0.1963
     32  CA       -52.6450  -12.8500   11.7100 C.3   151  LEU151      0.1728
     33  C        -51.1460  -12.6240   11.5110 C.2   151  LEU151      0.2616
     34  O        -50.7500  -11.6540   10.8670 O.2   151  LEU151     -0.2715
     35  CB       -53.2890  -13.3840   10.4190 C.3   151  LEU151      0.0311
     36  CG       -54.4130  -14.4380   10.4610 C.3   151  LEU151      0.0022
     37  CD1      -55.3320  -14.3250   11.6760 C.3   151  LEU151      0.0001
     38  CD2      -55.2290  -14.4040    9.1740 C.3   151  LEU151      0.0001
     39  N        -50.3230  -13.5140   12.0770 N.am  152  ARG152     -0.1963
     40  CA       -48.8620  -13.4630   11.9190 C.3   152  ARG152      0.1729
     41  C        -48.4320  -14.0020   10.5630 C.2   152  ARG152      0.2616
     42  O        -47.6490  -13.3810    9.8490 O.2   152  ARG152     -0.2715
     43  CB       -48.1480  -14.3180   12.9740 C.3   152  ARG152      0.0348
     44  CG       -48.2990  -13.9040   14.4200 C.3   152  ARG152      0.0492
     45  CD       -47.1310  -14.4420   15.2460 C.3   152  ARG152      0.2205
     46  NE       -47.4130  -14.4300   16.6810 N.pl3 152  ARG152     -0.0865
     47  CZ       -46.4840  -14.3530   17.6340 C.cat 152  ARG152      0.5346
     48  NH1      -45.1970  -14.2630   17.3120 N.pl3 152  ARG152      0.1354
     49  NH2      -46.8430  -14.3440   18.9160 N.pl3 152  ARG152      0.1354
     50  N        -48.9530  -15.1820   10.2420 N.am  153  ARG153     -0.1963
     51  CA       -48.4280  -16.0460    9.1950 C.3   153  ARG153      0.1729
     52  C        -49.5680  -16.8770    8.6240 C.2   153  ARG153      0.2616
     53  O        -50.5250  -17.1900    9.3340 O.2   153  ARG153     -0.2715
     54  CB       -47.3940  -17.0150    9.7940 C.3   153  ARG153      0.0348
     55  CG       -46.0110  -16.4430   10.0000 C.3   153  ARG153      0.0492
     56  CD       -45.3450  -17.0030   11.2570 C.3   153  ARG153      0.2205
     57  NE       -45.1550  -18.4570   11.2380 N.pl3 153  ARG153     -0.0865
     58  CZ       -44.0960  -19.0810   10.7180 C.cat 153  ARG153      0.5346
     59  NH1      -43.1130  -18.3940   10.1450 N.pl3 153  ARG153      0.1354
     60  NH2      -44.0220  -20.4040   10.7640 N.pl3 153  ARG153      0.1354
     61  N        -49.4470  -17.2390    7.3490 N.am  154  TYR154     -0.1960
     62  CA       -50.4160  -18.0940    6.6710 C.3   154  TYR154      0.1774
     63  C        -49.7810  -18.6450    5.4040 C.2   154  TYR154      0.2659
     64  O        -48.7800  -18.1060    4.9230 O.2   154  TYR154     -0.2711
     65  CB       -51.6850  -17.3030    6.3110 C.3   154  TYR154      0.0574
     66  CG       -51.4040  -16.1430    5.3940 C.ar  154  TYR154     -0.0198
     67  CD1      -51.2600  -16.3370    4.0220 C.ar  154  TYR154     -0.0009
     68  CD2      -51.2550  -14.8500    5.8990 C.ar  154  TYR154     -0.0009
     69  CE1      -50.9740  -15.2840    3.1810 C.ar  154  TYR154      0.0417
     70  CE2      -50.9760  -13.7830    5.0550 C.ar  154  TYR154      0.0417
     71  CZ       -50.8400  -14.0090    3.6980 C.ar  154  TYR154      0.1957
     72  OH       -50.5620  -12.9650    2.8510 O.3   154  TYR154     -0.2866
     73  N        -50.3640  -19.7050    4.8510 N.am  155  GLY155     -0.1716
     74  CA       -49.9080  -20.2120    3.5660 C.2   155  GLY155      0.1480
     75  C        -50.5100  -21.5270    3.1310 C.2   155  GLY155      0.2820
     76  O        -51.0330  -22.2970    3.9460 O.2   155  GLY155     -0.2669
     77  N        -50.4430  -21.7730    1.8250 N.am  156  ALA156     -0.1929
     78  CA       -50.8020  -23.0660    1.2680 C.3   156  ALA156      0.1731
     79  C        -49.7980  -24.1140    1.7310 C.2   156  ALA156      0.2616
     80  O        -48.6010  -23.8500    1.8430 O.2   156  ALA156     -0.2715
     81  CB       -50.8590  -23.0080   -0.2500 C.3   156  ALA156      0.0334
     82  N        -50.3240  -25.2980    2.0150 N.am  157  VAL157     -0.1977
     83  CA       -49.5610  -26.4480    2.4760 C.3   157  VAL157      0.1596
     84  C        -50.0940  -27.6300    1.6550 C.2   157  VAL157      0.2287
     85  O        -51.2470  -27.5890    1.2100 O.2   157  VAL157     -0.2864
     86  CB       -49.7310  -26.6140    4.0230 C.3   157  VAL157      0.0276
     87  CG1      -49.6910  -28.0660    4.4700 C.3   157  VAL157      0.0022
     88  CG2      -48.6810  -25.8050    4.7520 C.3   157  VAL157      0.0022
     89  N        -52.7450  -23.1800    6.2930 N.3   162  ILE162     -0.1245
     90  CA       -52.4410  -22.8170    7.6620 C.3   162  ILE162      0.1561
     91  C        -52.5270  -21.3050    7.8350 C.2   162  ILE162      0.2260
     92  O        -52.2490  -20.5510    6.9040 O.2   162  ILE162     -0.2867
     93  CB       -51.0440  -23.3330    8.0730 C.3   162  ILE162      0.0252
     94  CG1      -51.0280  -24.8670    8.0700 C.3   162  ILE162      0.0019
     95  CG2      -50.6270  -22.7710    9.4400 C.3   162  ILE162      0.0019
     96  CD1      -49.6590  -25.4850    8.3190 C.3   162  ILE162      0.0001
     97  N        -51.9080  -18.5670   11.5020 N.3   164  GLU164     -0.1245
     98  CA       -51.8770  -18.3620   12.9410 C.3   164  GLU164      0.1567
     99  C        -52.2940  -16.9590   13.3220 C.2   164  GLU164      0.2260
    100  O        -51.7900  -15.9730   12.7760 O.2   164  GLU164     -0.2867
    101  CB       -50.5270  -18.7520   13.5780 C.3   164  GLU164      0.0388
    102  CG       -49.3280  -17.8960   13.2080 C.3   164  GLU164      0.1160
    103  CD       -48.1340  -18.1260   14.1260 C.2   164  GLU164      0.3649
    104  OE1      -47.0420  -18.4480   13.6050 O.co2 164  GLU164     -0.2457
    105  OE2      -48.2810  -17.9850   15.3610 O.co2 164  GLU164     -0.2457
    106  N        -52.1160  -14.1080   15.9320 N.3   166  GLY166     -0.1210
    107  CA       -51.1680  -13.6720   16.9460 C.3   166  GLY166      0.1956
    108  C        -51.7990  -13.5740   18.3220 C.2   166  GLY166      0.2613
    109  O        -53.0130  -13.7780   18.4810 O.2   166  GLY166     -0.2717
    110  N        -50.9680  -13.2520   19.3110 N.am  167  THR167     -0.1938
    111  CA       -51.3960  -13.1030   20.7050 C.3   167  THR167      0.2028
    112  C        -52.6230  -12.1860   20.8460 C.2   167  THR167      0.2642
    113  O        -53.4910  -12.4310   21.6890 O.2   167  THR167     -0.2714
    114  CB       -50.2170  -12.6280   21.6070 C.3   167  THR167      0.1808
    115  OG1      -49.1080  -13.5260   21.4530 O.3   167  THR167     -0.2208
    116  CG2      -50.6130  -12.5990   23.0800 C.3   167  THR167      0.0379
    117  N        -52.6990  -11.1620   19.9960 N.am  168  ARG168     -0.1977
    118  CA       -53.8310  -10.2290   19.9620 C.3   168  ARG168      0.1597
    119  C        -55.1880  -10.9240   20.0130 C.2   168  ARG168      0.2287
    120  O        -56.1610  -10.3570   20.5070 O.2   168  ARG168     -0.2864
    121  CB       -53.8180   -9.3890   18.6800 C.3   168  ARG168      0.0334
    122  CG       -52.5310   -8.6700   18.3280 C.3   168  ARG168      0.0492
    123  CD       -52.8270   -7.6470   17.2340 C.3   168  ARG168      0.2205
    124  NE       -51.7110   -7.4280   16.3210 N.pl3 168  ARG168     -0.0865
    125  CZ       -50.6860   -6.6140   16.5630 C.cat 168  ARG168      0.5346
    126  NH1      -50.6120   -5.9400   17.7070 N.pl3 168  ARG168      0.1354
    127  NH2      -49.7200   -6.4820   15.6610 N.pl3 168  ARG168      0.1354
    128  N        -52.0200  -21.6780   16.0170 N.3   175  VAL175     -0.1245
    129  CA       -51.7600  -22.0890   14.6540 C.3   175  VAL175      0.1561
    130  C        -52.8680  -23.0310   14.2040 C.2   175  VAL175      0.2260
    131  O        -53.1170  -24.0580   14.8320 O.2   175  VAL175     -0.2867
    132  CB       -50.3710  -22.7770   14.5490 C.3   175  VAL175      0.0252
    133  CG1      -50.0100  -23.0680   13.0950 C.3   175  VAL175      0.0019
    134  CG2      -49.2890  -21.9170   15.2100 C.3   175  VAL175      0.0019
    135  N        -54.2730  -19.0380   -0.1230 N.3   186  SER186     -0.1217
    136  CA       -53.0280  -18.3430    0.1410 C.3   186  SER186      0.1889
    137  C        -52.9300  -17.0910   -0.7200 C.2   186  SER186      0.2288
    138  O        -52.5430  -16.0240   -0.2340 O.2   186  SER186     -0.2866
    139  CB       -51.8420  -19.2660   -0.1230 C.3   186  SER186      0.2089
    140  OG       -50.6300  -18.6820    0.3220 O.3   186  SER186     -0.2183
    141  N        -52.8860  -13.2070    0.3770 N.3   190  ASP190     -0.1239
    142  CA       -51.7590  -12.3990   -0.1020 C.3   190  ASP190      0.1674
    143  C        -52.2260  -11.0740   -0.6760 C.2   190  ASP190      0.2266
    144  O        -51.5790  -10.0460   -0.4840 O.2   190  ASP190     -0.2867
    145  CB       -50.9400  -13.1590   -1.1540 C.3   190  ASP190      0.1410
    146  CG       -49.9320  -14.1200   -0.5390 C.2   190  ASP190      0.3668
    147  OD1      -49.5510  -13.9390    0.6370 O.co2 190  ASP190     -0.2456
    148  OD2      -49.5110  -15.0620   -1.2410 O.co2 190  ASP190     -0.2456
    149  N        -55.5580   -9.5810   -0.2130 N.3   192  ILE192     -0.1231
    150  CA       -56.3620   -8.7830    0.7230 C.3   192  ILE192      0.1692
    151  C        -55.5280   -8.0260    1.7730 C.2   192  ILE192      0.2592
    152  O        -55.8210   -6.8690    2.0720 O.2   192  ILE192     -0.2718
    153  CB       -57.5340   -9.6040    1.3570 C.3   192  ILE192      0.0266
    154  CG1      -58.7920   -9.5260    0.4810 C.3   192  ILE192      0.0019
    155  CG2      -57.9270   -9.0390    2.7090 C.3   192  ILE192      0.0020
    156  CD1      -58.7100  -10.2120   -0.8610 C.3   192  ILE192      0.0001
    157  N        -54.4880   -8.6660    2.3040 N.am  193  VAL193     -0.1966
    158  CA       -53.5860   -8.0070    3.2600 C.3   193  VAL193      0.1727
    159  C        -52.7250   -6.9350    2.5840 C.2   193  VAL193      0.2616
    160  O        -52.2240   -6.0230    3.2410 O.2   193  VAL193     -0.2715
    161  CB       -52.6960   -9.0150    4.0580 C.3   193  VAL193      0.0290
    162  CG1      -53.5590  -10.0620    4.7730 C.3   193  VAL193      0.0023
    163  CG2      -51.6470   -9.6880    3.1650 C.3   193  VAL193      0.0023
    164  N        -52.5680   -7.0480    1.2690 N.am  194  ARG194     -0.1963
    165  CA       -51.8280   -6.0580    0.4980 C.3   194  ARG194      0.1729
    166  C        -52.7440   -5.0520   -0.2020 C.2   194  ARG194      0.2616
    167  O        -52.3280   -4.3670   -1.1320 O.2   194  ARG194     -0.2715
    168  CB       -50.8910   -6.7490   -0.4970 C.3   194  ARG194      0.0348
    169  CG       -49.5270   -7.0220    0.1000 C.3   194  ARG194      0.0492
    170  CD       -48.8390   -8.2340   -0.5010 C.3   194  ARG194      0.2205
    171  NE       -47.7980   -8.6980    0.4130 N.pl3 194  ARG194     -0.0865
    172  CZ       -47.4950   -9.9700    0.6460 C.cat 194  ARG194      0.5346
    173  NH1      -48.1430  -10.9430    0.0240 N.pl3 194  ARG194      0.1354
    174  NH2      -46.5340  -10.2690    1.5070 N.pl3 194  ARG194      0.1354
    175  N        -53.9850   -4.9630    0.2640 N.am  195  GLY195     -0.1955
    176  CA       -54.9770   -4.0460   -0.2990 C.3   195  GLY195      0.1869
    177  C        -55.2810   -4.2990   -1.7630 C.2   195  GLY195      0.2309
    178  O        -55.3970   -3.3630   -2.5550 O.2   195  GLY195     -0.2863
    179  N        -58.5680   -1.5740   -3.7190 N.3   203  PHE203     -0.1241
    180  CA       -59.8700   -1.2550   -3.1360 C.3   203  PHE203      0.1605
    181  C        -60.2130    0.2220   -3.3380 C.2   203  PHE203      0.2264
    182  O        -61.3540    0.5780   -3.6350 O.2   203  PHE203     -0.2867
    183  CB       -59.8890   -1.5730   -1.6340 C.3   203  PHE203      0.0534
    184  CG       -59.5010   -2.9960   -1.2830 C.ar  203  PHE203     -0.0203
    185  CD1      -59.8620   -4.0700   -2.0970 C.ar  203  PHE203     -0.0042
    186  CD2      -58.8130   -3.2580   -0.1010 C.ar  203  PHE203     -0.0042
    187  CE1      -59.5190   -5.3740   -1.7490 C.ar  203  PHE203     -0.0003
    188  CE2      -58.4690   -4.5580    0.2590 C.ar  203  PHE203     -0.0003
    189  CZ       -58.8200   -5.6180   -0.5670 C.ar  203  PHE203     -0.0000
@<TRIPOS>BOND
     1   179   180    1
     2   182   181    2
     3   181   180    1
     4   180   183    1
     5   178   177    2
     6   185   187   ar
     7   185   184   ar
     8   177   176    1
     9   187   189   ar
    10   183   184    1
    11   184   186   ar
    12   148   146   ar
    13   145   146    1
    14   145   142    1
    15   167   166    2
    16   156   154    1
    17   137   138    2
    18   137   136    1
    19   143   144    2
    20   143   142    1
    21   189   188   ar
    22   146   147   ar
    23   170   169    1
    24   170   171    1
    25   168   169    1
    26   168   165    1
    27   176   175    1
    28    81    78    1
    29   149   150    1
    30   166   175   am
    31   166   165    1
    32   139   136    1
    33   139   140    1
    34   135   136    1
    35   142   141    1
    36   186   188   ar
    37   173   172    1
    38   171   172    2
    39   154   153    1
    40   165   164    1
    41   172   174    1
    42   150   153    1
    43   150   151    1
    44    85    84    2
    45    78    79    1
    46    78    77    1
    47   164   159   am
    48   153   155    1
    49    84    83    1
    50    79    80    2
    51    79    82   am
    52   151   152    2
    53   151   157   am
    54    77    75   am
    55    82    83    1
    56   157   158    1
    57    83    86    1
    58   159   160    2
    59   159   158    1
    60    72    71    1
    61    75    74    1
    62    75    76    2
    63   163   161    1
    64    69    71   ar
    65    69    67   ar
    66   158   161    1
    67    74    73    2
    68    71    70   ar
    69    67    66   ar
    70    86    87    1
    71    86    88    1
    72   161   162    1
    73    73    63    1
    74    64    63    2
    75    70    68   ar
    76    16    14    1
    77    66    68   ar
    78    66    65    1
    79    63    62    1
    80     1     2    1
    81    89    90    1
    82    65    62    1
    83    62    61    1
    84     8     6   ar
    85    14    15    1
    86    14    13    1
    87     2     5    1
    88     2     3    1
    89    92    91    2
    90     6     7   ar
    91     6     5    1
    92    61    52   am
    93    13    10    1
    94    90    91    1
    95    90    93    1
    96     3     4    2
    97    94    93    1
    98    94    96    1
    99    93    95    1
   100    52    51    1
   101    52    53    2
   102    10    11    1
   103    10     9    1
   104    38    36    1
   105    51    54    1
   106    51    50    1
   107    12    11    2
   108    11    17   am
   109    54    55    1
   110    42    41    2
   111    55    56    1
   112    17    18    1
   113    59    58    1
   114    50    41   am
   115    35    36    1
   116    35    32    1
   117    36    37    1
   118    18    21    1
   119    18    19    1
   120    41    40    1
   121    21    22    1
   122    58    60    1
   123    58    57    2
   124    34    33    2
   125    57    56    1
   126    97    98    1
   127    33    32    1
   128    33    39   am
   129    32    31    1
   130    19    20    2
   131    19    23   am
   132    40    39    1
   133    40    43    1
   134    31    25   am
   135    23    24    1
   136   100    99    2
   137    98    99    1
   138    98   101    1
   139    43    44    1
   140   133   132    1
   141   102   101    1
   142   102   103    1
   143    25    24    1
   144    25    26    2
   145   104   103   ar
   146    24    27    1
   147   103   105   ar
   148   130   129    1
   149   130   131    2
   150    44    45    1
   151   132   129    1
   152   132   134    1
   153    27    28    1
   154   129   128    1
   155    29    28   ar
   156    28    30   ar
   157    45    46    1
   158   127   125    1
   159   106   107    1
   160   124   125    2
   161   124   123    1
   162   125   126    1
   163    46    47    2
   164   107   108    1
   165   123   122    1
   166    48    47    1
   167    47    49    1
   168   108   109    2
   169   108   110   am
   170   122   121    1
   171   121   118    1
   172   110   111    1
   173   118   117    1
   174   118   119    1
   175   117   112   am
   176   119   120    2
   177   111   112    1
   178   111   114    1
   179   112   113    2
   180   115   114    1
   181   114   116    1
