@<TRIPOS>MOLECULE
tmp/3ml5A00.pdb
 132 130 0 0 0
SMALL
GASTEIGER

@<TRIPOS>ATOM
      1  N         -0.9820    8.1870   22.3580 N.3    67  GLN67      -0.1245
      2  CA        -1.9030    7.8320   21.2860 C.3    67  GLN67       0.1566
      3  C         -2.7620    8.9790   20.7570 C.2    67  GLN67       0.2260
      4  O         -3.2280    9.8310   21.5180 O.2    67  GLN67      -0.2867
      5  CB        -2.7970    6.6850   21.7910 C.3    67  GLN67       0.0367
      6  CG        -3.9530    6.2840   20.8910 C.3    67  GLN67       0.0905
      7  CD        -4.7230    5.0820   21.4380 C.2    67  GLN67       0.2608
      8  OE1       -5.9490    5.0170   21.3290 O.2    67  GLN67      -0.2717
      9  NE2       -4.0050    4.1260   22.0190 N.am   67  GLN67      -0.0878
     10  N         -8.8360    3.9990   13.7090 N.3    91  LYS91      -0.1231
     11  CA        -9.3340    4.3420   15.0370 C.3    91  LYS91       0.1693
     12  C         -8.3260    5.1940   15.8000 C.2    91  LYS91       0.2591
     13  O         -8.6890    6.1720   16.4630 O.2    91  LYS91      -0.2718
     14  CB        -9.6040    3.0710   15.8430 C.3    91  LYS91       0.0285
     15  CG       -10.2050    3.3240   17.2150 C.3    91  LYS91       0.0035
     16  CD       -10.1870    2.0690   18.0750 C.3    91  LYS91       0.0206
     17  CE       -11.3840    2.0230   19.0190 C.3    91  LYS91       0.1093
     18  NZ       -11.6920    3.3450   19.6150 N.3    91  LYS91      -0.1314
     19  N         -7.0580    4.8030   15.7130 N.am   92  GLN92      -0.1979
     20  CA        -5.9930    5.5080   16.4150 C.3    92  GLN92       0.1601
     21  C         -4.6210    5.0540   15.9570 C.2    92  GLN92       0.2287
     22  O         -4.4830    4.0380   15.2720 O.2    92  GLN92      -0.2864
     23  CB        -6.1140    5.2490   17.9250 C.3    92  GLN92       0.0394
     24  CG        -6.1610    3.7610   18.3060 C.3    92  GLN92       0.0908
     25  CD        -4.8050    3.1680   18.7030 C.2    92  GLN92       0.2608
     26  OE1       -3.7470    3.7340   18.4170 O.2    92  GLN92      -0.2717
     27  NE2       -4.8400    2.0050   19.3570 N.am   92  GLN92      -0.0878
     28  N         -0.3750    4.9510   17.4770 N.3    94  HIS94      -0.1241
     29  CA         0.4930    5.1090   18.6390 C.3    94  HIS94       0.1621
     30  C          1.8890    4.6200   18.2780 C.2    94  HIS94       0.2264
     31  O          2.1150    4.1400   17.1640 O.2    94  HIS94      -0.2867
     32  CB        -0.0460    4.2940   19.8160 C.3    94  HIS94       0.0745
     33  CG        -0.2350    2.8440   19.4980 C.ar   94  HIS94       0.0817
     34  ND1       -1.3690    2.3600   18.8850 N.ar   94  HIS94      -0.2268
     35  CD2        0.5920    1.7830   19.6530 C.ar   94  HIS94       0.1154
     36  CE1       -1.2330    1.0630   18.6740 C.ar   94  HIS94       0.1986
     37  NE2       -0.0510    0.6880   19.1300 N.ar   94  HIS94      -0.2212
     38  N          5.8700    2.7340   19.7070 N.3    96  HIS96      -0.1241
     39  CA         6.5970    1.8490   20.6100 C.3    96  HIS96       0.1621
     40  C          8.0440    2.2810   20.4070 C.2    96  HIS96       0.2264
     41  O          8.4660    2.4910   19.2660 O.2    96  HIS96      -0.2867
     42  CB         6.4120    0.3830   20.2030 C.3    96  HIS96       0.0745
     43  CG         4.9950   -0.0960   20.2910 C.ar   96  HIS96       0.0817
     44  ND1        4.4310   -0.5530   21.4640 N.ar   96  HIS96      -0.2268
     45  CD2        4.0280   -0.1880   19.3480 C.ar   96  HIS96       0.1154
     46  CE1        3.1790   -0.9090   21.2380 C.ar   96  HIS96       0.1986
     47  NE2        2.9100   -0.6980   19.9620 N.ar   96  HIS96      -0.2212
     48  N          2.2190    2.5150   14.8220 N.3   119  HIS119     -0.1241
     49  CA         1.1100    1.6140   14.5410 C.3   119  HIS119      0.1621
     50  C         -0.1810    2.3920   14.2820 C.2   119  HIS119      0.2264
     51  O         -0.6350    3.1550   15.1360 O.2   119  HIS119     -0.2867
     52  CB         0.8830    0.6620   15.7170 C.3   119  HIS119      0.0745
     53  CG         1.9450   -0.3820   15.8670 C.ar  119  HIS119      0.0817
     54  ND1        2.0730   -1.1520   17.0020 N.ar  119  HIS119     -0.2268
     55  CD2        2.9080   -0.8040   15.0130 C.ar  119  HIS119      0.1154
     56  CE1        3.0700   -2.0040   16.8410 C.ar  119  HIS119      0.1986
     57  NE2        3.5930   -1.8130   15.6430 N.ar  119  HIS119     -0.2212
     58  N         -3.9030    1.7450   13.7800 N.3   121  VAL121     -0.1245
     59  CA        -4.9010    0.7060   14.0520 C.3   121  VAL121      0.1561
     60  C         -6.2640    0.9400   13.3960 C.2   121  VAL121      0.2260
     61  O         -6.9400    1.9190   13.7080 O.2   121  VAL121     -0.2867
     62  CB        -5.1200    0.5760   15.5840 C.3   121  VAL121      0.0252
     63  CG1       -6.1060   -0.5330   15.8860 C.3   121  VAL121      0.0019
     64  CG2       -3.7880    0.3160   16.2830 C.3   121  VAL121      0.0019
     65  N        -15.5020   -1.6960   17.5340 N.3   131  PHE131     -0.1241
     66  CA       -14.1120   -2.1200   17.4730 C.3   131  PHE131      0.1605
     67  C        -13.9360   -3.3490   18.3590 C.2   131  PHE131      0.2264
     68  O        -13.1840   -4.2590   18.0230 O.2   131  PHE131     -0.2867
     69  CB       -13.1850   -0.9860   17.9320 C.3   131  PHE131      0.0534
     70  CG       -11.7460   -1.3970   18.0690 C.ar  131  PHE131     -0.0203
     71  CD1      -11.2960   -2.0250   19.2280 C.ar  131  PHE131     -0.0042
     72  CD2      -10.8440   -1.1790   17.0320 C.ar  131  PHE131     -0.0042
     73  CE1       -9.9670   -2.4330   19.3510 C.ar  131  PHE131     -0.0003
     74  CE2       -9.5130   -1.5830   17.1450 C.ar  131  PHE131     -0.0003
     75  CZ        -9.0750   -2.2100   18.3050 C.ar  131  PHE131     -0.0000
     76  N         -3.6300   -3.5090   11.1040 N.3   143  VAL143     -0.1245
     77  CA        -2.7030   -2.5410   11.6720 C.3   143  VAL143      0.1561
     78  C         -1.5440   -2.2890   10.7190 C.2   143  VAL143      0.2260
     79  O         -0.8690   -3.2130   10.2560 O.2   143  VAL143     -0.2867
     80  CB        -2.1410   -3.0000   13.0430 C.3   143  VAL143      0.0252
     81  CG1       -1.2330   -1.9140   13.6170 C.3   143  VAL143      0.0019
     82  CG2       -3.2920   -3.2850   14.0170 C.3   143  VAL143      0.0019
     83  N         -2.8000   -8.4300   18.3120 N.3   198  LEU198     -0.1231
     84  CA        -2.5070   -7.1480   18.9400 C.3   198  LEU198      0.1693
     85  C         -1.2080   -7.4320   19.6990 C.2   198  LEU198      0.2593
     86  O         -0.9640   -8.5800   20.0810 O.2   198  LEU198     -0.2718
     87  CB        -3.6230   -6.7650   19.9190 C.3   198  LEU198      0.0284
     88  CG        -4.9990   -6.4710   19.3020 C.3   198  LEU198      0.0019
     89  CD1       -6.0260   -6.1940   20.3960 C.3   198  LEU198      0.0001
     90  CD2       -4.8860   -5.2810   18.3710 C.3   198  LEU198      0.0001
     91  N         -0.3680   -6.4210   19.9150 N.am  199  THR199     -0.1939
     92  CA         0.8890   -6.6620   20.6230 C.3   199  THR199      0.2028
     93  C          0.8460   -6.3120   22.1090 C.2   199  THR199      0.2643
     94  O          1.8600   -6.3980   22.8080 O.2   199  THR199     -0.2714
     95  CB         2.0570   -5.9090   19.9730 C.3   199  THR199      0.1808
     96  OG1        1.8660   -4.5000   20.1340 O.3   199  THR199     -0.2208
     97  CG2        2.1480   -6.2610   18.4860 C.3   199  THR199      0.0379
     98  N         -0.3270   -5.8970   22.5740 N.am  200  THR200     -0.1937
     99  CA        -0.5450   -5.5750   23.9770 C.3   200  THR200      0.2013
    100  C         -1.8510   -6.2680   24.3410 C.2   200  THR200      0.2484
    101  O         -2.6910   -6.5120   23.4750 O.2   200  THR200     -0.2729
    102  CB        -0.7370   -4.0570   24.2290 C.3   200  THR200      0.1807
    103  OG1       -1.9000   -3.5980   23.5290 O.3   200  THR200     -0.2208
    104  CG2        0.4830   -3.2700   23.7720 C.3   200  THR200      0.0379
    105  N         -2.0290   -6.6260   25.6200 N.am  201  PRO201     -0.2715
    106  CA        -3.2750   -7.2860   26.0190 C.3   201  PRO201      0.1521
    107  C         -4.4450   -6.4850   25.4520 C.2   201  PRO201      0.2440
    108  O         -4.3830   -5.2560   25.3920 O.2   201  PRO201     -0.2731
    109  CB        -3.2080   -7.2320   27.5360 C.3   201  PRO201      0.0310
    110  CG        -1.7440   -7.4200   27.7920 C.3   201  PRO201      0.0237
    111  CD        -1.0970   -6.5220   26.7560 C.3   201  PRO201      0.0939
    112  N         -5.5490   -7.1560   25.0830 N.am  202  PRO202     -0.2727
    113  CA        -5.8400   -8.5930   25.1300 C.3   202  PRO202      0.1402
    114  C         -5.1010   -9.5320   24.1680 C.2   202  PRO202      0.2269
    115  O         -5.3400  -10.7390   24.1860 O.2   202  PRO202     -0.2865
    116  CB        -7.3530   -8.6290   24.9320 C.3   202  PRO202      0.0296
    117  CG        -7.5690   -7.5270   23.9700 C.3   202  PRO202      0.0237
    118  CD        -6.6970   -6.4160   24.5270 C.3   202  PRO202      0.0939
    119  N         -1.6420   -7.8550    9.7450 N.3   209  TRP209     -0.1241
    120  CA        -0.5320   -6.9240    9.7840 C.3   209  TRP209      0.1605
    121  C         -0.0360   -6.5040    8.4050 C.2   209  TRP209      0.2264
    122  O          0.0700   -7.3160    7.4860 O.2   209  TRP209     -0.2867
    123  CB         0.6330   -7.5150   10.5860 C.3   209  TRP209      0.0550
    124  CG         0.4830   -7.3220   12.0650 C.ar  209  TRP209      0.0003
    125  CD1       -0.0280   -8.2100   12.9640 C.ar  209  TRP209      0.0946
    126  CD2        0.7700   -6.1250   12.7990 C.ar  209  TRP209      0.0152
    127  NE1       -0.0840   -7.6380   14.2170 N.ar  209  TRP209     -0.2442
    128  CE2        0.3980   -6.3560   14.1400 C.ar  209  TRP209      0.0810
    129  CE3        1.3010   -4.8750   12.4480 C.ar  209  TRP209      0.0012
    130  CZ2        0.5420   -5.3820   15.1360 C.ar  209  TRP209      0.0191
    131  CZ3        1.4430   -3.9100   13.4350 C.ar  209  TRP209      0.0001
    132  CH2        1.0610   -4.1690   14.7660 C.ar  209  TRP209      0.0015
@<TRIPOS>BOND
     1   122   121    2
     2   121   120    1
     3   119   120    1
     4   120   123    1
     5    79    78    2
     6   123   124    1
     7    78    77    1
     8    76    77    1
     9    77    80    1
    10   124   126   ar
    11   124   125   ar
    12   129   126   ar
    13   129   131   ar
    14   126   128   ar
    15   125   127   ar
    16    80    81    1
    17    80    82    1
    18    60    61    2
    19    60    59    1
    20   131   132   ar
    21    10    11    1
    22    58    59    1
    23    59    62    1
    24   128   127   ar
    25   128   130   ar
    26    50    49    1
    27    50    51    2
    28    49    48    1
    29    49    52    1
    30   132   130   ar
    31    55    57   ar
    32    55    53   ar
    33    11    12    1
    34    11    14    1
    35    22    21    2
    36    62    63    1
    37    62    64    1
    38    57    56   ar
    39    19    12   am
    40    19    20    1
    41    52    53    1
    42    12    13    2
    43    14    15    1
    44    53    54   ar
    45    21    20    1
    46    20    23    1
    47    56    54   ar
    48    72    74   ar
    49    72    70   ar
    50    74    75   ar
    51    31    30    2
    52    15    16    1
    53    66    65    1
    54    66    69    1
    55    66    67    1
    56    28    29    1
    57    23    24    1
    58    69    70    1
    59    68    67    2
    60    70    71   ar
    61    16    17    1
    62    30    29    1
    63    75    73   ar
    64    24    25    1
    65    83    84    1
    66    90    88    1
    67    26    25    2
    68    97    95    1
    69    29    32    1
    70    36    34   ar
    71    36    37   ar
    72    25    27   am
    73    34    33   ar
    74    84    85    1
    75    84    87    1
    76    17    18    1
    77    37    35   ar
    78    71    73   ar
    79    41    40    2
    80    88    87    1
    81    88    89    1
    82    45    47   ar
    83    45    43   ar
    84    33    35   ar
    85    33    32    1
    86    85    91   am
    87    85    86    2
    88    38    39    1
    89    91    92    1
    90    47    46   ar
    91    95    96    1
    92    95    92    1
    93    42    43    1
    94    42    39    1
    95    43    44   ar
    96    40    39    1
    97    92    93    1
    98     3     2    1
    99     3     4    2
   100     6     7    1
   101     6     5    1
   102    46    44   ar
   103     2     5    1
   104     2     1    1
   105     8     7    2
   106     7     9   am
   107    93    98   am
   108    93    94    2
   109    98    99    1
   110   101   100    2
   111   103   102    1
   112   104   102    1
   113   117   118    1
   114   117   116    1
   115    99   102    1
   116    99   100    1
   117   114   115    2
   118   114   113    1
   119   100   105   am
   120   118   112    1
   121   116   113    1
   122   112   113    1
   123   112   107   am
   124   108   107    2
   125   107   106    1
   126   105   106    1
   127   105   111    1
   128   106   109    1
   129   111   110    1
   130   109   110    1
