@<TRIPOS>MOLECULE
tmp/3ml8A00.pdb
 196 184 0 0 0
SMALL
GASTEIGER

@<TRIPOS>ATOM
      1  N         47.7030   18.2480   41.4810 N.3   562  MET562     -0.1245
      2  CA        47.5120   19.1700   40.3700 C.3   562  MET562      0.1570
      3  C         46.5050   20.2850   40.6400 C.2   562  MET562      0.2261
      4  O         45.6740   20.1920   41.5390 O.2   562  MET562     -0.2867
      5  CB        47.0980   18.3920   39.1230 C.3   562  MET562      0.0387
      6  CG        48.1800   17.4610   38.6070 C.3   562  MET562      0.0595
      7  SD        48.0060   17.0250   36.8460 S.3   562  MET562     -0.1393
      8  CE        46.5880   15.8870   36.8920 C.3   562  MET562      0.0692
      9  N         49.3230   12.9650   39.7380 N.3   570  TRP570     -0.1241
     10  CA        50.1040   12.7210   38.5320 C.3   570  TRP570      0.1605
     11  C         51.2370   11.7810   38.9300 C.2   570  TRP570      0.2264
     12  O         52.3310   12.2130   39.2640 O.2   570  TRP570     -0.2867
     13  CB        50.6460   14.0490   37.9840 C.3   570  TRP570      0.0550
     14  CG        51.6960   13.9090   36.9350 C.ar  570  TRP570      0.0003
     15  CD1       52.9260   13.3530   37.0800 C.ar  570  TRP570      0.0946
     16  CD2       51.6150   14.3510   35.5780 C.ar  570  TRP570      0.0152
     17  NE1       53.6240   13.4180   35.9050 N.ar  570  TRP570     -0.2442
     18  CE2       52.8430   14.0250   34.9600 C.ar  570  TRP570      0.0810
     19  CE3       50.6280   14.9950   34.8220 C.ar  570  TRP570      0.0012
     20  CZ2       53.1120   14.3170   33.6210 C.ar  570  TRP570      0.0191
     21  CZ3       50.8960   15.2860   33.4920 C.ar  570  TRP570      0.0001
     22  CH2       52.1280   14.9470   32.9050 C.ar  570  TRP570      0.0015
     23  N         47.3740    9.0180   35.7190 N.3   589  ILE589     -0.1245
     24  CA        46.6670   10.0290   36.5160 C.3   589  ILE589      0.1561
     25  C         45.5160    9.3670   37.2520 C.2   589  ILE589      0.2260
     26  O         44.5840    8.8950   36.6150 O.2   589  ILE589     -0.2867
     27  CB        46.0400   11.1390   35.6200 C.3   589  ILE589      0.0252
     28  CG1       47.1280   11.9390   34.9060 C.3   589  ILE589      0.0019
     29  CG2       45.1570   12.0520   36.4430 C.3   589  ILE589      0.0019
     30  CD1       46.5530   12.9700   33.9360 C.3   589  ILE589      0.0001
     31  N         42.2190    9.9750   39.4760 N.3   591  LYS591     -0.1245
     32  CA        41.3310   11.1140   39.6030 C.3   591  LYS591      0.1561
     33  C         39.9950   10.7120   40.2100 C.2   591  LYS591      0.2260
     34  O         39.4340    9.6680   39.8730 O.2   591  LYS591     -0.2867
     35  CB        41.1340   11.7780   38.2310 C.3   591  LYS591      0.0271
     36  CG        39.8090   12.5060   38.0610 C.3   591  LYS591      0.0035
     37  CD        39.9690   14.0140   37.9220 C.3   591  LYS591      0.0206
     38  CE        40.6500   14.4120   36.6160 C.3   591  LYS591      0.1093
     39  NZ        40.2470   15.7950   36.1950 N.3   591  LYS591     -0.1314
     40  N         35.5490   12.6700   37.9430 N.3   594  ASP594     -0.1239
     41  CA        35.1150   12.4170   36.5760 C.3   594  ASP594      0.1674
     42  C         34.3900   11.0780   36.5330 C.2   594  ASP594      0.2266
     43  O         34.8290   10.1080   37.1500 O.2   594  ASP594     -0.2867
     44  CB        36.3310   12.3920   35.6510 C.3   594  ASP594      0.1410
     45  CG        37.0040   13.7530   35.5510 C.2   594  ASP594      0.3668
     46  OD1       36.3270   14.7420   35.9020 O.co2 594  ASP594     -0.2456
     47  OD2       38.1860   13.8360   35.1270 O.co2 594  ASP594     -0.2456
     48  N         34.6400    8.5170   34.5470 N.3   596  LEU596     -0.1245
     49  CA        35.4750    7.8820   33.5350 C.3   596  LEU596      0.1561
     50  C         34.7970    6.7350   32.7660 C.2   596  LEU596      0.2260
     51  O         35.3390    6.2230   31.8000 O.2   596  LEU596     -0.2867
     52  CB        36.7580    7.3670   34.1920 C.3   596  LEU596      0.0270
     53  CG        37.9160    8.3370   34.4240 C.3   596  LEU596      0.0019
     54  CD1       37.4810    9.7550   34.1350 C.3   596  LEU596      0.0001
     55  CD2       38.4160    8.1900   35.8420 C.3   596  LEU596      0.0001
     56  N         34.2460    8.3700   29.4280 N.3   599  ASP599     -0.1239
     57  CA        35.4650    8.4660   28.6490 C.3   599  ASP599      0.1674
     58  C         35.8070    7.1180   28.0550 C.2   599  ASP599      0.2266
     59  O         36.2490    7.0440   26.9020 O.2   599  ASP599     -0.2867
     60  CB        36.6110    8.9960   29.5160 C.3   599  ASP599      0.1410
     61  CG        36.2240   10.2580   30.2570 C.2   599  ASP599      0.3668
     62  OD1       35.4540   10.1500   31.2340 O.co2 599  ASP599     -0.2456
     63  OD2       36.6650   11.3490   29.8550 O.co2 599  ASP599     -0.2456
     64  N         43.8990    7.4300   24.0070 N.3   625  TYR625     -0.1241
     65  CA        44.7110    6.9760   25.1320 C.3   625  TYR625      0.1605
     66  C         43.9560    6.0610   26.0970 C.2   625  TYR625      0.2264
     67  O         42.7250    6.1020   26.1740 O.2   625  TYR625     -0.2867
     68  CB        45.1980    8.1890   25.9050 C.3   625  TYR625      0.0534
     69  CG        44.0480    9.0820   26.3080 C.ar  625  TYR625     -0.0201
     70  CD1       43.4250    8.9450   27.5450 C.ar  625  TYR625     -0.0009
     71  CD2       43.5990   10.0680   25.4550 C.ar  625  TYR625     -0.0009
     72  CE1       42.3990    9.7720   27.9010 C.ar  625  TYR625      0.0417
     73  CE2       42.5810   10.8970   25.8120 C.ar  625  TYR625      0.0417
     74  CZ        41.9790   10.7540   27.0260 C.ar  625  TYR625      0.1957
     75  OH        40.9390   11.6050   27.3390 O.3   625  TYR625     -0.2866
     76  N         42.2820    4.3900   29.3970 N.3   627  CYS627     -0.1235
     77  CA        41.4960    4.9330   30.4920 C.3   627  CYS627      0.1677
     78  C         40.6770    3.8210   31.1490 C.2   627  CYS627      0.2270
     79  O         39.9200    3.1450   30.5030 O.2   627  CYS627     -0.2867
     80  CB        40.5730    6.0400   29.9820 C.3   627  CYS627      0.0956
     81  SG        39.3500    6.5920   31.2080 S.3   627  CYS627     -0.0801
     82  N         44.0790    7.1880   34.2140 N.3   637  ILE637     -0.1231
     83  CA        44.1990    7.6830   32.8440 C.3   637  ILE637      0.1692
     84  C         45.6370    7.6000   32.3180 C.2   637  ILE637      0.2592
     85  O         46.5290    8.2000   32.8930 O.2   637  ILE637     -0.2718
     86  CB        43.7760    9.1550   32.7660 C.3   637  ILE637      0.0266
     87  CG1       42.3510    9.3180   33.2860 C.3   637  ILE637      0.0019
     88  CG2       43.9170    9.6420   31.3470 C.3   637  ILE637      0.0020
     89  CD1       42.0630   10.6750   33.8030 C.3   637  ILE637      0.0001
     90  N         45.8820    6.8930   31.2220 N.am  638  GLU638     -0.1966
     91  CA        47.2140    6.9650   30.6200 C.3   638  GLU638      0.1733
     92  C         47.6310    8.4260   30.3960 C.2   638  GLU638      0.2616
     93  O         46.8020    9.2870   30.1110 O.2   638  GLU638     -0.2715
     94  CB        47.2450    6.2320   29.2830 C.3   638  GLU638      0.0429
     95  CG        48.6080    6.2450   28.6130 C.3   638  GLU638      0.1163
     96  CD        48.5600    5.7110   27.1890 C.2   638  GLU638      0.3649
     97  OE1       49.6340    5.4390   26.6050 O.co2 638  GLU638     -0.2457
     98  OE2       47.4390    5.5660   26.6510 O.co2 638  GLU638     -0.2457
     99  N         48.9190    8.7100   30.5330 N.am  639  ILE639     -0.1963
    100  CA        49.4250   10.0380   30.1880 C.3   639  ILE639      0.1727
    101  C         50.1740    9.9910   28.8650 C.2   639  ILE639      0.2616
    102  O         51.1980    9.3320   28.7630 O.2   639  ILE639     -0.2715
    103  CB        50.3940   10.5680   31.2530 C.3   639  ILE639      0.0290
    104  CG1       49.6430   10.8280   32.5600 C.3   639  ILE639      0.0022
    105  CG2       51.0800   11.8080   30.7430 C.3   639  ILE639      0.0023
    106  CD1       50.5450   11.2740   33.7040 C.3   639  ILE639      0.0001
    107  N         49.6680   10.6830   27.8530 N.am  640  VAL640     -0.1977
    108  CA        50.4160   10.8170   26.6110 C.3   640  VAL640      0.1596
    109  C         51.6570   11.6260   26.9570 C.2   640  VAL640      0.2287
    110  O         51.5690   12.6430   27.6510 O.2   640  VAL640     -0.2864
    111  CB        49.6080   11.5840   25.5280 C.3   640  VAL640      0.0276
    112  CG1       50.4350   11.7030   24.2360 C.3   640  VAL640      0.0022
    113  CG2       48.2830   10.8830   25.2760 C.3   640  VAL640      0.0022
    114  N         54.7630   14.1410   26.5650 N.3   642  ASP642     -0.1225
    115  CA        55.2920   15.2950   25.8380 C.3   642  ASP642      0.1805
    116  C         54.1910   16.2070   25.3000 C.2   642  ASP642      0.2597
    117  O         54.3890   16.9110   24.3140 O.2   642  ASP642     -0.2718
    118  CB        56.1850   14.8290   24.6700 C.3   642  ASP642      0.1424
    119  CG        57.4750   14.1520   25.1410 C.2   642  ASP642      0.3668
    120  OD1       57.7290   14.1150   26.3680 O.co2 642  ASP642     -0.2456
    121  OD2       58.2410   13.6620   24.2820 O.co2 642  ASP642     -0.2456
    122  N         53.0310   16.2040   25.9420 N.am  643  ALA643     -0.1979
    123  CA        51.8800   16.8840   25.3680 C.3   643  ALA643      0.1597
    124  C         51.3250   17.9290   26.3060 C.2   643  ALA643      0.2287
    125  O         51.4300   17.7940   27.5180 O.2   643  ALA643     -0.2864
    126  CB        50.8140   15.8800   25.0460 C.3   643  ALA643      0.0319
    127  N         47.9350   20.9670   26.9100 N.3   645  THR645     -0.1218
    128  CA        46.7390   21.6710   26.4910 C.3   645  THR645      0.1862
    129  C         47.0760   22.7450   25.4610 C.2   645  THR645      0.2287
    130  O         48.1620   23.3320   25.4840 O.2   645  THR645     -0.2866
    131  CB        46.0620   22.3550   27.6840 C.3   645  THR645      0.1770
    132  OG1       45.6940   21.3650   28.6520 O.3   645  THR645     -0.2211
    133  CG2       44.8260   23.1070   27.2320 C.3   645  THR645      0.0375
    134  N         47.1320   26.0730   27.3270 N.3   648  LYS648     -0.1245
    135  CA        48.4340   26.2840   27.9370 C.3   648  LYS648      0.1561
    136  C         49.4190   26.8930   26.9390 C.2   648  LYS648      0.2260
    137  O         50.2200   27.7570   27.2980 O.2   648  LYS648     -0.2867
    138  CB        48.9760   24.9570   28.4740 C.3   648  LYS648      0.0271
    139  CG        48.1300   24.3760   29.5950 C.3   648  LYS648      0.0035
    140  CD        48.4930   22.9350   29.8940 C.3   648  LYS648      0.0206
    141  CE        47.8560   22.4900   31.1920 C.3   648  LYS648      0.1093
    142  NZ        48.2620   23.3750   32.3230 N.3   648  LYS648     -0.1314
    143  N         40.9480   24.1660   27.0180 N.3   708  ASP708     -0.1239
    144  CA        41.8000   23.4130   27.9190 C.3   708  ASP708      0.1674
    145  C         41.5700   21.9220   27.6510 C.2   708  ASP708      0.2266
    146  O         42.4270   21.0880   27.9330 O.2   708  ASP708     -0.2867
    147  CB        41.4750   23.7710   29.3860 C.3   708  ASP708      0.1410
    148  CG        42.6590   23.5210   30.3360 C.2   708  ASP708      0.3668
    149  OD1       43.8160   23.8090   29.9450 O.co2 708  ASP708     -0.2456
    150  OD2       42.4370   23.0340   31.4730 O.co2 708  ASP708     -0.2456
    151  N         44.3100   18.9370   23.3920 N.3   711  MET711     -0.1245
    152  CA        45.7560   18.8180   23.6360 C.3   711  MET711      0.1570
    153  C         46.5790   18.5420   22.3680 C.2   711  MET711      0.2261
    154  O         46.0340   18.1520   21.3320 O.2   711  MET711     -0.2867
    155  CB        46.0450   17.7060   24.6570 C.3   711  MET711      0.0387
    156  CG        45.4130   17.8880   26.0190 C.3   711  MET711      0.0595
    157  SD        46.0830   16.7390   27.2630 S.3   711  MET711     -0.1393
    158  CE        47.7290   17.3300   27.4980 C.3   711  MET711      0.0692
    159  N         44.7110   15.7990   19.9860 N.3   719  PHE719     -0.1241
    160  CA        43.7200   14.8740   20.5740 C.3   719  PHE719      0.1605
    161  C         42.8730   15.4750   21.7040 C.2   719  PHE719      0.2264
    162  O         43.4150   16.0520   22.6330 O.2   719  PHE719     -0.2867
    163  CB        44.4310   13.6350   21.1200 C.3   719  PHE719      0.0534
    164  CG        45.3000   13.8990   22.3360 C.ar  719  PHE719     -0.0203
    165  CD1       44.7880   13.7620   23.6220 C.ar  719  PHE719     -0.0042
    166  CD2       46.6500   14.2120   22.1940 C.ar  719  PHE719     -0.0042
    167  CE1       45.6110   13.9240   24.7470 C.ar  719  PHE719     -0.0003
    168  CE2       47.4760   14.3750   23.3110 C.ar  719  PHE719     -0.0003
    169  CZ        46.9560   14.2280   24.5870 C.ar  719  PHE719     -0.0000
    170  N         40.1560   15.3300   25.0690 N.3   721  ILE721     -0.1231
    171  CA        40.2590   14.6840   26.3740 C.3   721  ILE721      0.1692
    172  C         39.0290   15.0000   27.1980 C.2   721  ILE721      0.2592
    173  O         38.2150   15.8140   26.8260 O.2   721  ILE721     -0.2718
    174  CB        41.4840   15.1550   27.2240 C.3   721  ILE721      0.0266
    175  CG1       41.3640   16.6570   27.5340 C.3   721  ILE721      0.0019
    176  CG2       42.7810   14.7880   26.5460 C.3   721  ILE721      0.0020
    177  CD1       42.5350   17.2340   28.3320 C.3   721  ILE721      0.0001
    178  N         38.8970   14.3310   28.3270 N.am  722  ASP722     -0.1960
    179  CA        37.8630   14.6520   29.2810 C.3   722  ASP722      0.1840
    180  C         36.4920   14.7700   28.6370 C.2   722  ASP722      0.2622
    181  O         35.8250   15.8060   28.7060 O.2   722  ASP722     -0.2715
    182  CB        38.2150   15.9370   30.0160 C.3   722  ASP722      0.1450
    183  CG        37.7510   15.9130   31.4450 C.2   722  ASP722      0.3671
    184  OD1       36.8200   15.1240   31.7500 O.co2 722  ASP722     -0.2456
    185  OD2       38.3150   16.6700   32.2620 O.co2 722  ASP722     -0.2456
    186  N         36.0650   13.6820   28.0220 N.am  723  PHE723     -0.1974
    187  CA        34.7680   13.6470   27.3930 C.3   723  PHE723      0.1639
    188  C         33.7350   13.4080   28.4570 C.2   723  PHE723      0.2290
    189  O         32.5450   13.5490   28.2220 O.2   723  PHE723     -0.2864
    190  CB        34.7310   12.5290   26.3740 C.3   723  PHE723      0.0560
    191  CG        35.9380   12.4830   25.5030 C.ar  723  PHE723     -0.0200
    192  CD1       36.9900   11.6550   25.8070 C.ar  723  PHE723     -0.0042
    193  CD2       35.9840   13.2000   24.3420 C.ar  723  PHE723     -0.0042
    194  CE1       38.0650   11.5400   24.9590 C.ar  723  PHE723     -0.0003
    195  CE2       37.0490   13.0880   23.4950 C.ar  723  PHE723     -0.0003
    196  CZ        38.0890   12.2570   23.8020 C.ar  723  PHE723     -0.0000
@<TRIPOS>BOND
     1   159   160    1
     2   160   163    1
     3   160   161    1
     4   163   164    1
     5   154   153    2
     6   161   162    2
     7   166   164   ar
     8   166   168   ar
     9   164   165   ar
    10   153   152    1
    11   168   169   ar
    12   151   152    1
    13   195   196   ar
    14   195   193   ar
    15   165   167   ar
    16   152   155    1
    17   196   194   ar
    18    64    65    1
    19   112   111    1
    20   121   119   ar
    21   117   116    2
    22   193   191   ar
    23   169   167   ar
    24   155   156    1
    25   118   119    1
    26   118   115    1
    27   194   192   ar
    28   126   123    1
    29   170   171    1
    30    65    68    1
    31    65    66    1
    32   119   120   ar
    33   113   111    1
    34   116   115    1
    35   116   122   am
    36   123   122    1
    37   123   124    1
    38    71    73   ar
    39    71    69   ar
    40   129   130    2
    41   129   128    1
    42   191   192   ar
    43   191   190    1
    44   111   108    1
    45    73    74   ar
    46   115   114    1
    47    68    69    1
    48   156   157    1
    49    66    67    2
    50   124   125    2
    51    69    70   ar
    52   171   172    1
    53   171   174    1
    54   190   187    1
    55   128   127    1
    56   128   131    1
    57   176   174    1
    58    97    96   ar
    59   108   109    1
    60   108   107    1
    61    98    96   ar
    62   173   172    2
    63    59    58    2
    64   136   137    2
    65   136   135    1
    66   109   110    2
    67   143   144    1
    68    74    75    1
    69    74    72   ar
    70    96    95    1
    71   172   178   am
    72   174   175    1
    73   133   131    1
    74   157   158    1
    75   134   135    1
    76   187   186    1
    77   187   188    1
    78   175   177    1
    79    70    72   ar
    80   145   144    1
    81   145   146    2
    82   131   132    1
    83   107   101   am
    84   144   147    1
    85   135   138    1
    86   186   180   am
    87    58    57    1
    88   189   188    2
    89   178   179    1
    90   138   139    1
    91    95    94    1
    92   180   181    2
    93   180   179    1
    94    57    56    1
    95    57    60    1
    96   102   101    2
    97   101   100    1
    98   179   182    1
    99    94    91    1
   100   147   148    1
   101    76    77    1
   102    60    61    1
   103   139   140    1
   104    63    61   ar
   105   140   141    1
   106   149   148   ar
   107    80    77    1
   108    80    81    1
   109   182   183    1
   110    93    92    2
   111   100    99    1
   112   100   103    1
   113    61    62   ar
   114   148   150   ar
   115    92    99   am
   116    92    91    1
   117    77    78    1
   118    79    78    2
   119    91    90    1
   120   105   103    1
   121   141   142    1
   122    90    84   am
   123   103   104    1
   124    88    86    1
   125   183   184   ar
   126   183   185   ar
   127    51    50    2
   128    84    83    1
   129    84    85    2
   130   104   106    1
   131    86    83    1
   132    86    87    1
   133    50    49    1
   134    83    82    1
   135    22    21   ar
   136    22    20   ar
   137    87    89    1
   138    21    19   ar
   139    49    52    1
   140    49    48    1
   141    20    18   ar
   142    30    28    1
   143    54    53    1
   144    52    53    1
   145    53    55    1
   146    19    16   ar
   147    28    27    1
   148    18    16   ar
   149    18    17   ar
   150    47    45   ar
   151    45    44    1
   152    45    46   ar
   153    16    14   ar
   154    27    29    1
   155    27    24    1
   156    44    41    1
   157    23    24    1
   158    17    15   ar
   159    39    38    1
   160    24    25    1
   161    42    41    1
   162    42    43    2
   163    41    40    1
   164    26    25    2
   165    38    37    1
   166     7     8    1
   167     7     6    1
   168    14    15   ar
   169    14    13    1
   170    37    36    1
   171    13    10    1
   172    36    35    1
   173    35    32    1
   174    10    11    1
   175    10     9    1
   176     6     5    1
   177    11    12    2
   178     5     2    1
   179    31    32    1
   180    32    33    1
   181    34    33    2
   182     2     3    1
   183     2     1    1
   184     3     4    2
