@<TRIPOS>MOLECULE
tmp/3ml9A00.pdb
 180 167 0 0 0
SMALL
GASTEIGER

@<TRIPOS>ATOM
      1  N         47.4260   17.8010   40.9820 N.3   566  MET566     -0.1230
      2  CA        47.1630   18.8580   40.0140 C.3   566  MET566      0.1702
      3  C         46.1320   19.8660   40.5190 C.2   566  MET566      0.2592
      4  O         45.4290   19.6090   41.4950 O.2   566  MET566     -0.2718
      5  CB        46.7010   18.2430   38.6930 C.3   566  MET566      0.0401
      6  CG        47.7120   17.2710   38.1090 C.3   566  MET566      0.0596
      7  SD        47.1840   16.4810   36.5740 S.3   566  MET566     -0.1393
      8  CE        47.4960   14.7770   36.9410 C.3   566  MET566      0.0692
      9  N         46.0550   21.0160   39.8550 N.am  567  ALA567     -0.1980
     10  CA        45.1760   22.0950   40.2850 C.3   567  ALA567      0.1597
     11  C         43.8380   22.0520   39.5600 C.2   567  ALA567      0.2287
     12  O         43.4980   22.9720   38.8190 O.2   567  ALA567     -0.2864
     13  CB        45.8490   23.4420   40.0460 C.3   567  ALA567      0.0319
     14  N         49.1020   13.1500   39.5760 N.3   574  TRP574     -0.1241
     15  CA        49.9190   12.8960   38.3860 C.3   574  TRP574      0.1605
     16  C         51.0900   11.9900   38.7650 C.2   574  TRP574      0.2264
     17  O         52.1610   12.4630   39.1330 O.2   574  TRP574     -0.2867
     18  CB        50.4390   14.2230   37.7960 C.3   574  TRP574      0.0550
     19  CG        51.4530   14.0620   36.7010 C.ar  574  TRP574      0.0003
     20  CD1       52.7130   13.5530   36.8190 C.ar  574  TRP574      0.0946
     21  CD2       51.2880   14.3910   35.3190 C.ar  574  TRP574      0.0152
     22  NE1       53.3390   13.5410   35.6030 N.ar  574  TRP574     -0.2442
     23  CE2       52.4840   14.0510   34.6630 C.ar  574  TRP574      0.0810
     24  CE3       50.2440   14.9360   34.5710 C.ar  574  TRP574      0.0012
     25  CZ2       52.6650   14.2410   33.2970 C.ar  574  TRP574      0.0191
     26  CZ3       50.4270   15.1200   33.2160 C.ar  574  TRP574      0.0001
     27  CH2       51.6230   14.7760   32.5950 C.ar  574  TRP574      0.0015
     28  N         47.3320    9.2140   35.3490 N.3   593  ILE593     -0.1245
     29  CA        46.5480   10.1160   36.1970 C.3   593  ILE593      0.1561
     30  C         45.5640    9.3210   37.0590 C.2   593  ILE593      0.2260
     31  O         45.0610    8.2960   36.6150 O.2   593  ILE593     -0.2867
     32  CB        45.7460   11.1170   35.3470 C.3   593  ILE593      0.0252
     33  CG1       46.6970   12.0070   34.5480 C.3   593  ILE593      0.0019
     34  CG2       44.8750   11.9750   36.2330 C.3   593  ILE593      0.0019
     35  CD1       45.9920   13.1710   33.8720 C.3   593  ILE593      0.0001
     36  N         41.9900    9.9780   39.3360 N.3   595  LYS595     -0.1245
     37  CA        40.9890   10.9770   39.6850 C.3   595  LYS595      0.1561
     38  C         39.7340   10.4420   40.3740 C.2   595  LYS595      0.2260
     39  O         39.2340    9.3750   40.0300 O.2   595  LYS595     -0.2867
     40  CB        40.5860   11.7750   38.4440 C.3   595  LYS595      0.0271
     41  CG        39.7900   13.0210   38.7770 C.3   595  LYS595      0.0035
     42  CD        38.6920   13.2620   37.7640 C.3   595  LYS595      0.0206
     43  CE        39.2750   13.3630   36.3800 C.3   595  LYS595      0.1093
     44  NZ        40.5240   14.1790   36.4180 N.3   595  LYS595     -0.1314
     45  N         34.7560   12.1730   38.9270 N.3   598  ASP598     -0.1239
     46  CA        34.1900   11.9160   37.6040 C.3   598  ASP598      0.1674
     47  C         33.8370   10.4340   37.4470 C.2   598  ASP598      0.2266
     48  O         34.6200    9.5470   37.8080 O.2   598  ASP598     -0.2867
     49  CB        35.1870   12.3030   36.5130 C.3   598  ASP598      0.1410
     50  CG        35.5020   13.7900   36.5010 C.2   598  ASP598      0.3668
     51  OD1       34.6360   14.5930   36.9200 O.co2 598  ASP598     -0.2456
     52  OD2       36.6200   14.1500   36.0660 O.co2 598  ASP598     -0.2456
     53  N         34.1330    7.8290   35.1690 N.3   600  LEU600     -0.1245
     54  CA        34.9710    7.5660   34.0030 C.3   600  LEU600      0.1561
     55  C         34.3700    6.5350   33.0420 C.2   600  LEU600      0.2260
     56  O         34.9720    6.1940   32.0300 O.2   600  LEU600     -0.2867
     57  CB        36.3570    7.0970   34.4610 C.3   600  LEU600      0.0270
     58  CG        37.4470    8.1490   34.6860 C.3   600  LEU600      0.0019
     59  CD1       36.8550    9.4350   35.2110 C.3   600  LEU600      0.0001
     60  CD2       38.4690    7.5970   35.6460 C.3   600  LEU600      0.0001
     61  N         33.9040    8.3380   29.5560 N.3   603  ASP603     -0.1239
     62  CA        35.1070    8.5510   28.7560 C.3   603  ASP603      0.1674
     63  C         35.5350    7.2430   28.1020 C.2   603  ASP603      0.2266
     64  O         35.9420    7.2210   26.9340 O.2   603  ASP603     -0.2867
     65  CB        36.2560    9.0890   29.6090 C.3   603  ASP603      0.1410
     66  CG        36.0210   10.5070   30.0920 C.2   603  ASP603      0.3668
     67  OD1       35.3420   10.6930   31.1310 O.co2 603  ASP603     -0.2456
     68  OD2       36.5240   11.4400   29.4360 O.co2 603  ASP603     -0.2456
     69  N         43.5710    7.4810   24.0780 N.3   629  TYR629     -0.1241
     70  CA        44.4220    6.9940   25.1680 C.3   629  TYR629      0.1605
     71  C         43.6860    6.1090   26.1700 C.2   629  TYR629      0.2264
     72  O         42.4660    6.1940   26.3230 O.2   629  TYR629     -0.2867
     73  CB        45.0010    8.1750   25.9180 C.3   629  TYR629      0.0534
     74  CG        43.9310    9.1520   26.3240 C.ar  629  TYR629     -0.0201
     75  CD1       43.2880    9.0480   27.5600 C.ar  629  TYR629     -0.0009
     76  CD2       43.5370   10.1670   25.4560 C.ar  629  TYR629     -0.0009
     77  CE1       42.2780    9.9310   27.9120 C.ar  629  TYR629      0.0417
     78  CE2       42.5350   11.0540   25.8030 C.ar  629  TYR629      0.0417
     79  CZ        41.9100   10.9320   27.0200 C.ar  629  TYR629      0.1957
     80  OH        40.9010   11.8040   27.3220 O.3   629  TYR629     -0.2866
     81  N         43.8390    7.2110   34.2620 N.3   641  ILE641     -0.1231
     82  CA        43.9650    7.5880   32.8640 C.3   641  ILE641      0.1692
     83  C         45.4220    7.5820   32.4180 C.2   641  ILE641      0.2592
     84  O         46.2980    7.9900   33.1600 O.2   641  ILE641     -0.2718
     85  CB        43.3840    8.9810   32.6280 C.3   641  ILE641      0.0266
     86  CG1       41.8710    8.9240   32.7720 C.3   641  ILE641      0.0019
     87  CG2       43.7850    9.4930   31.2650 C.3   641  ILE641      0.0020
     88  CD1       41.2120   10.2660   32.7710 C.3   641  ILE641      0.0001
     89  N         45.6760    7.1110   31.2070 N.am  642  GLU642     -0.1966
     90  CA        47.0260    7.1210   30.6640 C.3   642  GLU642      0.1733
     91  C         47.4550    8.5630   30.3760 C.2   642  GLU642      0.2616
     92  O         46.6240    9.4130   30.0430 O.2   642  GLU642     -0.2715
     93  CB        47.0620    6.3010   29.3750 C.3   642  GLU642      0.0429
     94  CG        48.3240    6.4500   28.5660 C.3   642  GLU642      0.1163
     95  CD        48.2280    5.7580   27.2140 C.2   642  GLU642      0.3649
     96  OE1       49.2890    5.4790   26.6110 O.co2 642  GLU642     -0.2457
     97  OE2       47.0970    5.4960   26.7500 O.co2 642  GLU642     -0.2457
     98  N         48.7470    8.8450   30.5220 N.am  643  ILE643     -0.1963
     99  CA        49.2650   10.1410   30.1210 C.3   643  ILE643      0.1727
    100  C         49.9390   10.0430   28.7610 C.2   643  ILE643      0.2616
    101  O         50.8130    9.2060   28.5540 O.2   643  ILE643     -0.2715
    102  CB        50.2780   10.6760   31.1440 C.3   643  ILE643      0.0290
    103  CG1       49.5640   10.9830   32.4570 C.3   643  ILE643      0.0022
    104  CG2       50.9520   11.9340   30.6030 C.3   643  ILE643      0.0023
    105  CD1       50.5080   11.4000   33.5760 C.3   643  ILE643      0.0001
    106  N         49.5250   10.8910   27.8300 N.am  644  VAL644     -0.1977
    107  CA        50.1850   10.9300   26.5310 C.3   644  VAL644      0.1596
    108  C         51.4770   11.7210   26.6940 C.2   644  VAL644      0.2287
    109  O         51.5020   12.7540   27.3650 O.2   644  VAL644     -0.2864
    110  CB        49.3010   11.6170   25.4430 C.3   644  VAL644      0.0276
    111  CG1       50.0440   11.6480   24.1030 C.3   644  VAL644      0.0022
    112  CG2       47.9690   10.8840   25.3030 C.3   644  VAL644      0.0022
    113  N         53.1860   16.2500   25.5420 N.3   647  ALA647     -0.1245
    114  CA        51.9700   16.9540   25.1570 C.3   647  ALA647      0.1562
    115  C         51.5970   18.0520   26.1400 C.2   647  ALA647      0.2260
    116  O         51.6080   17.8440   27.3480 O.2   647  ALA647     -0.2867
    117  CB        50.8350   15.9730   25.0510 C.3   647  ALA647      0.0290
    118  N         48.4050   21.2080   26.5630 N.3   649  THR649     -0.1218
    119  CA        47.1830   21.8200   26.0980 C.3   649  THR649      0.1862
    120  C         47.4430   22.8800   25.0280 C.2   649  THR649      0.2287
    121  O         48.5170   23.4920   24.9810 O.2   649  THR649     -0.2866
    122  CB        46.4690   22.4630   27.2810 C.3   649  THR649      0.1770
    123  OG1       46.0730   21.4370   28.2010 O.3   649  THR649     -0.2211
    124  CG2       45.2510   23.2180   26.8230 C.3   649  THR649      0.0375
    125  N         47.3910   26.1160   26.9070 N.3   652  LYS652     -0.1245
    126  CA        48.6450   26.4000   27.5830 C.3   652  LYS652      0.1561
    127  C         49.6320   27.0050   26.5750 C.2   652  LYS652      0.2260
    128  O         50.4480   27.8500   26.9310 O.2   652  LYS652     -0.2867
    129  CB        49.2170   25.1110   28.1940 C.3   652  LYS652      0.0271
    130  CG        50.1450   25.3360   29.3810 C.3   652  LYS652      0.0035
    131  CD        49.8220   24.3700   30.5290 C.3   652  LYS652      0.0206
    132  CE        50.3620   24.8770   31.8740 C.3   652  LYS652      0.1093
    133  NZ        49.5700   26.0170   32.4460 N.3   652  LYS652     -0.1314
    134  N         41.0500   24.3440   26.6220 N.3   712  ASP712     -0.1239
    135  CA        41.8830   23.6810   27.6220 C.3   712  ASP712      0.1674
    136  C         41.7730   22.1480   27.5210 C.2   712  ASP712      0.2266
    137  O         42.5710   21.4080   28.1090 O.2   712  ASP712     -0.2867
    138  CB        41.4630   24.1530   29.0280 C.3   712  ASP712      0.1410
    139  CG        42.6060   24.0770   30.0530 C.2   712  ASP712      0.3668
    140  OD1       43.7920   24.0780   29.6430 O.co2 712  ASP712     -0.2456
    141  OD2       42.3140   24.0180   31.2730 O.co2 712  ASP712     -0.2456
    142  N         44.5100   18.9360   23.2430 N.3   715  MET715     -0.1245
    143  CA        45.9520   18.8590   23.4570 C.3   715  MET715      0.1570
    144  C         46.6830   18.6000   22.1520 C.2   715  MET715      0.2261
    145  O         46.0630   18.3760   21.1090 O.2   715  MET715     -0.2867
    146  CB        46.2900   17.7570   24.4730 C.3   715  MET715      0.0387
    147  CG        45.6190   17.9390   25.8350 C.3   715  MET715      0.0595
    148  SD        46.2990   16.9120   27.1910 S.3   715  MET715     -0.1393
    149  CE        47.9440   17.6540   27.4320 C.3   715  MET715      0.0692
    150  N         44.8710   15.7650   19.9540 N.3   723  PHE723     -0.1241
    151  CA        43.8320   14.8980   20.5170 C.3   723  PHE723      0.1605
    152  C         42.9940   15.5970   21.5810 C.2   723  PHE723      0.2264
    153  O         43.5050   16.4470   22.3230 O.2   723  PHE723     -0.2867
    154  CB        44.4570   13.6300   21.1110 C.3   723  PHE723      0.0534
    155  CG        45.4220   13.8870   22.2360 C.ar  723  PHE723     -0.0203
    156  CD1       45.0880   13.5610   23.5360 C.ar  723  PHE723     -0.0042
    157  CD2       46.6960   14.4080   21.9830 C.ar  723  PHE723     -0.0042
    158  CE1       46.0040   13.7400   24.5630 C.ar  723  PHE723     -0.0003
    159  CE2       47.6150   14.5870   23.0090 C.ar  723  PHE723     -0.0003
    160  CZ        47.2650   14.2490   24.3010 C.ar  723  PHE723     -0.0000
    161  N         40.4890   15.4630   25.0490 N.3   725  ILE725     -0.1231
    162  CA        40.5940   14.8010   26.3410 C.3   725  ILE725      0.1692
    163  C         39.3500   15.1700   27.1150 C.2   725  ILE725      0.2592
    164  O         38.6730   16.1200   26.7720 O.2   725  ILE725     -0.2718
    165  CB        41.8090   15.3020   27.1760 C.3   725  ILE725      0.0266
    166  CG1       41.6960   16.8230   27.3850 C.3   725  ILE725      0.0019
    167  CG2       43.1100   14.9250   26.5020 C.3   725  ILE725      0.0020
    168  CD1       42.6640   17.3960   28.4100 C.3   725  ILE725      0.0001
    169  N         39.0720   14.4200   28.1710 N.am  726  ASP726     -0.1974
    170  CA        38.0290   14.7490   29.1280 C.3   726  ASP726      0.1709
    171  C         36.6590   14.8370   28.4820 C.2   726  ASP726      0.2293
    172  O         35.9620   15.8440   28.5630 O.2   726  ASP726     -0.2864
    173  CB        38.3630   16.0470   29.8580 C.3   726  ASP726      0.1436
    174  CG        38.0500   15.9640   31.3410 C.2   726  ASP726      0.3671
    175  OD1       37.0460   15.2960   31.6900 O.co2 726  ASP726     -0.2456
    176  OD2       38.8020   16.5490   32.1580 O.co2 726  ASP726     -0.2456
    177  N         34.1190   13.1030   29.3790 N.3   728  GLY728     -0.1225
    178  CA        33.1070   13.1030   30.4150 C.3   728  GLY728      0.1811
    179  C         32.6530   14.4940   30.8300 C.2   728  GLY728      0.2280
    180  O         31.5920   14.6390   31.4340 O.2   728  GLY728     -0.2866
@<TRIPOS>BOND
     1   150   151    1
     2   151   154    1
     3   151   152    1
     4   145   144    2
     5   154   155    1
     6   152   153    2
     7   157   155   ar
     8   157   159   ar
     9   144   143    1
    10   155   156   ar
    11   159   160   ar
    12   142   143    1
    13   143   146    1
    14   156   158   ar
    15    69    70    1
    16   111   110    1
    17   160   158   ar
    18   146   147    1
    19   121   120    2
    20   120   119    1
    21   161   162    1
    22   117   114    1
    23   114   113    1
    24   114   115    1
    25    70    73    1
    26    70    71    1
    27   112   110    1
    28   110   107    1
    29    76    78   ar
    30    76    74   ar
    31    78    79   ar
    32   147   148    1
    33    73    74    1
    34   119   118    1
    35   119   122    1
    36   115   116    2
    37    71    72    2
    38    74    75   ar
    39   162   163    1
    40   162   165    1
    41   167   165    1
    42   107   108    1
    43   107   106    1
    44   127   128    2
    45   127   126    1
    46    96    95   ar
    47   134   135    1
    48   108   109    2
    49    97    95   ar
    50   164   163    2
    51   124   122    1
    52   125   126    1
    53    64    63    2
    54    79    80    1
    55    79    77   ar
    56   163   169   am
    57   165   166    1
    58   148   149    1
    59    95    94    1
    60   122   123    1
    61   166   168    1
    62   136   135    1
    63   136   137    2
    64    75    77   ar
    65   126   129    1
    66   135   138    1
    67   106   100   am
    68    63    62    1
    69   169   170    1
    70   129   130    1
    71   171   172    2
    72   171   170    1
    73   101   100    2
    74    94    93    1
    75    62    61    1
    76    62    65    1
    77   100    99    1
    78   138   139    1
    79   170   173    1
    80    93    90    1
    81   177   178    1
    82   130   131    1
    83    68    66   ar
    84    65    66    1
    85   140   139   ar
    86   173   174    1
    87    92    91    2
    88   139   141   ar
    89    66    67   ar
    90    99    98    1
    91    99   102    1
    92    91    98   am
    93    91    90    1
    94   178   179    1
    95   131   132    1
    96   104   102    1
    97    90    89    1
    98   179   180    2
    99   102   103    1
   100    89    83   am
   101    87    85    1
   102   174   175   ar
   103   174   176   ar
   104   132   133    1
   105    56    55    2
   106    83    82    1
   107    83    84    2
   108   103   105    1
   109    27    26   ar
   110    27    25   ar
   111    85    86    1
   112    85    82    1
   113    88    86    1
   114    82    81    1
   115    55    54    1
   116    26    24   ar
   117    25    23   ar
   118    35    33    1
   119    54    57    1
   120    54    53    1
   121    57    58    1
   122    33    32    1
   123    24    21   ar
   124    23    21   ar
   125    23    22   ar
   126    58    59    1
   127    58    60    1
   128    21    19   ar
   129    32    29    1
   130    32    34    1
   131    28    29    1
   132    22    20   ar
   133    52    50   ar
   134    29    30    1
   135    43    44    1
   136    43    42    1
   137    50    49    1
   138    50    51   ar
   139    49    46    1
   140     7     8    1
   141     7     6    1
   142    31    30    2
   143    19    20   ar
   144    19    18    1
   145    47    46    1
   146    47    48    2
   147    46    45    1
   148    42    41    1
   149    18    15    1
   150     6     5    1
   151    15    16    1
   152    15    14    1
   153    40    41    1
   154    40    37    1
   155     5     2    1
   156    16    17    2
   157    12    11    2
   158    36    37    1
   159    11    10    1
   160    37    38    1
   161     9    10    1
   162     9     3   am
   163     2     3    1
   164     2     1    1
   165    39    38    2
   166    13    10    1
   167     3     4    2
