@<TRIPOS>MOLECULE
tmp/3mlaA00.pdb
 161 157 0 0 0
SMALL
GASTEIGER

@<TRIPOS>ATOM
      1  N          5.0310  -26.2010   -8.3750 N.3     7  ILE7       -0.1231
      2  CA         4.9870  -27.3640   -9.2450 C.3     7  ILE7        0.1692
      3  C          5.3630  -26.9060  -10.6530 C.2     7  ILE7        0.2593
      4  O          4.6420  -26.1140  -11.2680 O.2     7  ILE7       -0.2718
      5  CB         3.6140  -28.1180   -9.1930 C.3     7  ILE7        0.0266
      6  CG1        3.6270  -29.3290  -10.1320 C.3     7  ILE7        0.0019
      7  CG2        2.4430  -27.1970   -9.5430 C.3     7  ILE7        0.0020
      8  CD1        2.3310  -30.1930  -10.0440 C.3     7  ILE7        0.0001
      9  N          6.5030  -27.3830  -11.1530 N.am    8  GLY8       -0.1942
     10  CA         6.9820  -26.9350  -12.4560 C.3     8  GLY8        0.2014
     11  C          6.8330  -27.9630  -13.5610 C.2     8  GLY8        0.2639
     12  O          6.5940  -29.1410  -13.3020 O.2     8  GLY8       -0.2714
     13  N          6.9490  -27.5050  -14.8010 N.am    9  GLY9       -0.1954
     14  CA         6.8540  -28.3890  -15.9470 C.3     9  GLY9        0.1869
     15  C          6.4420  -27.5660  -17.1470 C.2     9  GLY9        0.2309
     16  O          6.2680  -26.3600  -17.0250 O.2     9  GLY9       -0.2863
     17  N          3.6570  -28.2640  -18.9110 N.3    11  PHE11      -0.1241
     18  CA         2.1850  -28.2600  -18.9030 C.3    11  PHE11       0.1605
     19  C          1.6470  -28.2230  -20.3220 C.2    11  PHE11       0.2264
     20  O          1.0090  -27.2580  -20.7470 O.2    11  PHE11      -0.2867
     21  CB         1.6540  -27.0950  -18.0640 C.3    11  PHE11       0.0534
     22  CG         2.1240  -27.1390  -16.6380 C.ar   11  PHE11      -0.0203
     23  CD1        3.0080  -26.1940  -16.1530 C.ar   11  PHE11      -0.0042
     24  CD2        1.7160  -28.1690  -15.7980 C.ar   11  PHE11      -0.0042
     25  CE1        3.4580  -26.2580  -14.8410 C.ar   11  PHE11      -0.0003
     26  CE2        2.1540  -28.2390  -14.4900 C.ar   11  PHE11      -0.0003
     27  CZ         3.0280  -27.2790  -14.0070 C.ar   11  PHE11      -0.0000
     28  N         -1.7030  -33.2810  -13.0190 N.3    18  HIS18      -0.1241
     29  CA        -1.0260  -32.1330  -12.4130 C.3    18  HIS18       0.1621
     30  C         -1.8640  -31.5500  -11.2730 C.2    18  HIS18       0.2264
     31  O         -1.3400  -31.2090  -10.2030 O.2    18  HIS18      -0.2867
     32  CB        -0.7630  -31.0430  -13.4540 C.3    18  HIS18       0.0745
     33  CG         0.0700  -31.4960  -14.6130 C.ar   18  HIS18       0.0817
     34  ND1       -0.3830  -31.4580  -15.9160 N.ar   18  HIS18      -0.2268
     35  CD2        1.3360  -31.9740  -14.6700 C.ar   18  HIS18       0.1154
     36  CE1        0.5600  -31.9100  -16.7230 C.ar   18  HIS18       0.1986
     37  NE2        1.6140  -32.2330  -15.9900 N.ar   18  HIS18      -0.2212
     38  N         -1.8720  -33.8030   -8.1440 N.3    21  ILE21      -0.1245
     39  CA        -0.6230  -33.7220   -7.3870 C.3    21  ILE21       0.1561
     40  C         -0.5400  -32.4200   -6.5990 C.2    21  ILE21       0.2260
     41  O         -0.2130  -32.4270   -5.4080 O.2    21  ILE21      -0.2867
     42  CB         0.6170  -33.8990   -8.3040 C.3    21  ILE21       0.0252
     43  CG1        0.6710  -35.3360   -8.8340 C.3    21  ILE21       0.0019
     44  CG2        1.9040  -33.5310   -7.5570 C.3    21  ILE21       0.0019
     45  CD1        1.6300  -35.5280   -9.9910 C.3    21  ILE21       0.0001
     46  N          7.5210  -23.9090  -17.4930 N.3    39  ASN39      -0.1240
     47  CA         8.9010  -23.8130  -17.9450 C.3    39  ASN39       0.1653
     48  C          8.9630  -23.1920  -19.3270 C.2    39  ASN39       0.2266
     49  O          7.9960  -23.2780  -20.0990 O.2    39  ASN39      -0.2867
     50  CB         9.5220  -25.2090  -18.0680 C.3    39  ASN39       0.1155
     51  CG         9.5740  -25.9760  -16.7510 C.2    39  ASN39       0.2627
     52  OD1        9.4560  -25.4240  -15.6550 O.2    39  ASN39      -0.2716
     53  ND2        9.7610  -27.2700  -16.8690 N.am   39  ASN39      -0.0877
     54  N         16.6060  -24.5500  -12.2530 N.3    85  THR85      -0.1218
     55  CA        15.7470  -24.3420  -11.0950 C.3    85  THR85       0.1862
     56  C         16.4570  -23.5190  -10.0080 C.2    85  THR85       0.2287
     57  O         15.8380  -22.6800   -9.3530 O.2    85  THR85      -0.2866
     58  CB        15.2790  -25.6870  -10.5490 C.3    85  THR85       0.1770
     59  OG1       14.4570  -26.3000  -11.5470 O.3    85  THR85      -0.2211
     60  CG2       14.4910  -25.5200   -9.2560 C.3    85  THR85       0.0375
     61  N          9.1910  -27.4270   -3.1260 N.3   103  PHE103     -0.1227
     62  CA         9.3530  -27.6670   -4.5570 C.3   103  PHE103      0.1736
     63  C          9.0370  -29.1290   -4.8750 C.2   103  PHE103      0.2595
     64  O          9.7420  -30.0380   -4.4380 O.2   103  PHE103     -0.2718
     65  CB        10.7760  -27.2950   -4.9970 C.3   103  PHE103      0.0547
     66  CG        10.9430  -27.2200   -6.4920 C.ar  103  PHE103     -0.0202
     67  CD1       10.8230  -26.0150   -7.1520 C.ar  103  PHE103     -0.0042
     68  CD2       11.2010  -28.3650   -7.2400 C.ar  103  PHE103     -0.0042
     69  CE1       10.9450  -25.9490   -8.5430 C.ar  103  PHE103     -0.0003
     70  CE2       11.3340  -28.3030   -8.6300 C.ar  103  PHE103     -0.0003
     71  CZ        11.2130  -27.0860   -9.2760 C.ar  103  PHE103     -0.0000
     72  N          7.9660  -29.3480   -5.6290 N.am  104  ILE104     -0.1966
     73  CA         7.4270  -30.6900   -5.8170 C.3   104  ILE104      0.1727
     74  C          8.1520  -31.4220   -6.9350 C.2   104  ILE104      0.2616
     75  O          8.2760  -30.9000   -8.0300 O.2   104  ILE104     -0.2715
     76  CB         5.9190  -30.6120   -6.1650 C.3   104  ILE104      0.0290
     77  CG1        5.1620  -29.9240   -5.0220 C.3   104  ILE104      0.0022
     78  CG2        5.3700  -32.0000   -6.4080 C.3   104  ILE104      0.0023
     79  CD1        3.7670  -29.4210   -5.3780 C.3   104  ILE104      0.0001
     80  N          8.6420  -32.6290   -6.6610 N.am  105  ILE105     -0.1963
     81  CA         9.2580  -33.4360   -7.7020 C.3   105  ILE105      0.1727
     82  C          8.6890  -34.8620   -7.6830 C.2   105  ILE105      0.2616
     83  O          8.2010  -35.3410   -6.6570 O.2   105  ILE105     -0.2715
     84  CB        10.7910  -33.4940   -7.5350 C.3   105  ILE105      0.0290
     85  CG1       11.1540  -34.0630   -6.1650 C.3   105  ILE105      0.0022
     86  CG2       11.4020  -32.0970   -7.6800 C.3   105  ILE105      0.0023
     87  CD1       12.6620  -34.1920   -5.9260 C.3   105  ILE105      0.0001
     88  N          8.7540  -35.5350   -8.8260 N.am  106  GLY106     -0.1955
     89  CA         8.3000  -36.9100   -8.9200 C.3   106  GLY106      0.1869
     90  C          9.2690  -37.8580   -8.2400 C.2   106  GLY106      0.2309
     91  O         10.4790  -37.6000   -8.1730 O.2   106  GLY106     -0.2863
     92  N         10.5310  -40.5830   -9.1790 N.3   108  ASP108     -0.1225
     93  CA        11.6080  -40.9980  -10.0890 C.3   108  ASP108      0.1805
     94  C         12.7030  -39.9340  -10.2830 C.2   108  ASP108      0.2597
     95  O         13.8050  -40.2340  -10.7330 O.2   108  ASP108     -0.2718
     96  CB        11.0290  -41.3600  -11.4650 C.3   108  ASP108      0.1424
     97  CG         9.9600  -42.4440  -11.3930 C.2   108  ASP108      0.3668
     98  OD1        9.4400  -42.7130  -10.2860 O.co2 108  ASP108     -0.2456
     99  OD2        9.6360  -43.0220  -12.4560 O.co2 108  ASP108     -0.2456
    100  N         12.3840  -38.6820   -9.9910 N.am  109  MET109     -0.1979
    101  CA        13.3690  -37.6200  -10.0700 C.3   109  MET109      0.1605
    102  C         14.4170  -37.8230   -8.9800 C.2   109  MET109      0.2287
    103  O         15.5730  -37.4440   -9.1350 O.2   109  MET109     -0.2864
    104  CB        12.6880  -36.2790   -9.8140 C.3   109  MET109      0.0413
    105  CG        13.6170  -35.1250   -9.5870 C.3   109  MET109      0.0598
    106  SD        14.3880  -34.5650  -11.1090 S.3   109  MET109     -0.1393
    107  CE        15.9230  -35.4820  -11.0840 C.3   109  MET109      0.0692
    108  N         18.1830  -38.7500   -9.0100 N.3   112  TYR112     -0.1241
    109  CA        19.0140  -37.9150   -9.8820 C.3   112  TYR112      0.1605
    110  C         19.2650  -36.4790   -9.3970 C.2   112  TYR112      0.2264
    111  O         19.9980  -35.7240  -10.0440 O.2   112  TYR112     -0.2867
    112  CB        18.4330  -37.9030  -11.3040 C.3   112  TYR112      0.0534
    113  CG        18.3870  -39.2860  -11.9100 C.ar  112  TYR112     -0.0201
    114  CD1       17.1790  -39.9520  -12.1030 C.ar  112  TYR112     -0.0009
    115  CD2       19.5560  -39.9340  -12.2710 C.ar  112  TYR112     -0.0009
    116  CE1       17.1530  -41.2210  -12.6530 C.ar  112  TYR112      0.0417
    117  CE2       19.5380  -41.1920  -12.8170 C.ar  112  TYR112      0.0417
    118  CZ        18.3400  -41.8310  -13.0090 C.ar  112  TYR112      0.1957
    119  OH        18.3470  -43.0940  -13.5560 O.3   112  TYR112     -0.2866
    120  N         22.5850  -34.5410   -9.6170 N.3   115  LYS115     -0.1231
    121  CA        23.0200  -34.0870  -10.9410 C.3   115  LYS115      0.1693
    122  C         22.4190  -32.7440  -11.3370 C.2   115  LYS115      0.2592
    123  O         22.7280  -32.2300  -12.4180 O.2   115  LYS115     -0.2718
    124  CB        22.6560  -35.1300  -12.0060 C.3   115  LYS115      0.0285
    125  CG        23.3770  -36.4520  -11.8510 C.3   115  LYS115      0.0035
    126  CD        22.8270  -37.4840  -12.8260 C.3   115  LYS115      0.0206
    127  CE        23.7110  -38.7240  -12.8620 C.3   115  LYS115      0.1093
    128  NZ        25.0890  -38.3820  -13.2500 N.3   115  LYS115     -0.1314
    129  N         21.5470  -32.1880  -10.4930 N.am  116  TRP116     -0.1962
    130  CA        20.9680  -30.8710  -10.7780 C.3   116  TRP116      0.1771
    131  C         22.0200  -29.7960  -10.6070 C.2   116  TRP116      0.2619
    132  O         22.8710  -29.8810   -9.7160 O.2   116  TRP116     -0.2715
    133  CB        19.8070  -30.5670   -9.8270 C.3   116  TRP116      0.0590
    134  CG        18.5200  -31.3190  -10.1160 C.ar  116  TRP116      0.0006
    135  CD1       18.3960  -32.5750  -10.6430 C.ar  116  TRP116      0.0946
    136  CD2       17.1840  -30.8730   -9.8340 C.ar  116  TRP116      0.0152
    137  NE1       17.0790  -32.9220  -10.7300 N.ar  116  TRP116     -0.2442
    138  CE2       16.3090  -31.8950  -10.2400 C.ar  116  TRP116      0.0810
    139  CE3       16.6470  -29.7020   -9.2890 C.ar  116  TRP116      0.0012
    140  CZ2       14.9230  -31.7890  -10.1190 C.ar  116  TRP116      0.0191
    141  CZ3       15.2710  -29.5910   -9.1720 C.ar  116  TRP116      0.0001
    142  CH2       14.4210  -30.6300   -9.5850 C.ar  116  TRP116      0.0015
    143  N         21.9540  -28.7770  -11.4600 N.am  117  TYR117     -0.1974
    144  CA        22.8600  -27.6500  -11.3720 C.3   117  TYR117      0.1639
    145  C         22.7380  -26.9540  -10.0030 C.2   117  TYR117      0.2290
    146  O         21.6320  -26.6240   -9.5610 O.2   117  TYR117     -0.2864
    147  CB        22.5520  -26.6820  -12.5210 C.3   117  TYR117      0.0560
    148  CG        23.2770  -25.3690  -12.4100 C.ar  117  TYR117     -0.0198
    149  CD1       24.6360  -25.2870  -12.6640 C.ar  117  TYR117     -0.0009
    150  CD2       22.6000  -24.2110  -12.0520 C.ar  117  TYR117     -0.0009
    151  CE1       25.3090  -24.0790  -12.5660 C.ar  117  TYR117      0.0417
    152  CE2       23.2730  -22.9950  -11.9440 C.ar  117  TYR117      0.0417
    153  CZ        24.6220  -22.9430  -12.2020 C.ar  117  TYR117      0.1957
    154  OH        25.3080  -21.7500  -12.1000 O.3   117  TYR117     -0.2866
    155  N          6.9640  -36.8800   -4.4080 N.3   131  VAL131     -0.1245
    156  CA         5.6850  -37.5600   -4.3900 C.3   131  VAL131      0.1561
    157  C          5.9280  -39.0360   -4.6420 C.2   131  VAL131      0.2260
    158  O          6.5100  -39.4270   -5.6610 O.2   131  VAL131     -0.2867
    159  CB         4.7070  -36.9610   -5.4080 C.3   131  VAL131      0.0252
    160  CG1        4.2440  -35.5910   -4.9370 C.3   131  VAL131      0.0019
    161  CG2        5.3660  -36.8510   -6.7480 C.3   131  VAL131      0.0019
@<TRIPOS>BOND
     1    20    19    2
     2    19    18    1
     3    49    48    2
     4    48    47    1
     5    17    18    1
     6    18    21    1
     7    50    47    1
     8    50    51    1
     9    21    22    1
    10    47    46    1
    11    15    16    2
    12    15    14    1
    13    53    51   am
    14    51    52    2
    15    36    37   ar
    16    36    34   ar
    17    22    23   ar
    18    22    24   ar
    19    23    25   ar
    20    37    35   ar
    21    14    13    1
    22    34    33   ar
    23    24    26   ar
    24    25    27   ar
    25    13    11   am
    26    35    33   ar
    27    33    32    1
    28    26    27   ar
    29    11    12    2
    30    11    10    1
    31   119   118    1
    32    32    29    1
    33   128   127    1
    34    28    29    1
    35   118   117   ar
    36   118   116   ar
    37   127   126    1
    38   126   125    1
    39   117   115   ar
    40   149   151   ar
    41   149   148   ar
    42   116   114   ar
    43   151   153   ar
    44   147   148    1
    45   147   144    1
    46    99    97   ar
    47    10     9    1
    48   123   122    2
    49    29    30    1
    50   148   150   ar
    51   115   113   ar
    52    54    55    1
    53   153   154    1
    54   153   152   ar
    55   114   113   ar
    56   150   152   ar
    57   124   125    1
    58   124   121    1
    59   113   112    1
    60    59    58    1
    61    96    97    1
    62    96    93    1
    63   143   144    1
    64   143   131   am
    65    97    98   ar
    66   144   145    1
    67   122   121    1
    68   122   129   am
    69   112   109    1
    70    30    31    2
    71     4     3    2
    72     9     3   am
    73   106   107    1
    74   106   105    1
    75    55    58    1
    76    55    56    1
    77   121   120    1
    78   130   131    1
    79   130   129    1
    80   130   133    1
    81    95    94    2
    82   137   135   ar
    83   137   138   ar
    84     3     2    1
    85   135   134   ar
    86   131   132    2
    87    58    60    1
    88    94    93    1
    89    94   100   am
    90   138   140   ar
    91   138   136   ar
    92     6     8    1
    93     6     5    1
    94   140   142   ar
    95   134   136   ar
    96   134   133    1
    97    93    92    1
    98   101   100    1
    99   101   104    1
   100   101   102    1
   101   111   110    2
   102    56    57    2
   103   145   146    2
   104    45    43    1
   105   109   110    1
   106   109   108    1
   107   136   139   ar
   108   104   105    1
   109   142   141   ar
   110     7     5    1
   111   139   141   ar
   112    71    70   ar
   113    71    69   ar
   114     2     5    1
   115     2     1    1
   116   103   102    2
   117    89    88    1
   118    89    90    1
   119    43    42    1
   120    88    82   am
   121    70    68   ar
   122    69    67   ar
   123    42    44    1
   124    42    39    1
   125    90    91    2
   126    38    39    1
   127    75    74    2
   128    81    82    1
   129    81    84    1
   130    81    80    1
   131    82    83    2
   132    86    84    1
   133    84    85    1
   134    39    40    1
   135    68    66   ar
   136    67    66   ar
   137    74    80   am
   138    74    73    1
   139   161   159    1
   140    40    41    2
   141    66    65    1
   142    78    76    1
   143    76    73    1
   144    76    77    1
   145    85    87    1
   146    73    72    1
   147   158   157    2
   148    72    63   am
   149   159   160    1
   150   159   156    1
   151    79    77    1
   152    65    62    1
   153    63    62    1
   154    63    64    2
   155   157   156    1
   156    62    61    1
   157   155   156    1
