@<TRIPOS>MOLECULE
tmp/3mlbB00.pdb
 143 138 0 0 0
SMALL
GASTEIGER

@<TRIPOS>ATOM
      1  N         22.8520  -46.1730  -19.9060 N.3     7  ILE7       -0.1231
      2  CA        21.7480  -46.0290  -18.9430 C.3     7  ILE7        0.1692
      3  C         22.3540  -45.6940  -17.5910 C.2     7  ILE7        0.2592
      4  O         23.1420  -46.4710  -17.0520 O.2     7  ILE7       -0.2718
      5  CB        20.8250  -47.3000  -18.8580 C.3     7  ILE7        0.0266
      6  CG1       19.6710  -47.0830  -17.8760 C.3     7  ILE7        0.0019
      7  CG2       21.6190  -48.5410  -18.4590 C.3     7  ILE7        0.0020
      8  CD1       18.6040  -48.1940  -17.9500 C.3     7  ILE7        0.0001
      9  N         22.0430  -44.5010  -17.0850 N.am    8  GLY8       -0.1957
     10  CA        22.6220  -44.0200  -15.8450 C.3     8  GLY8        0.1869
     11  C         21.6280  -44.0450  -14.7050 C.2     8  GLY8        0.2309
     12  O         20.4200  -43.9650  -14.9200 O.2     8  GLY8       -0.2863
     13  N         15.1580  -51.9950  -15.0910 N.3    18  HIS18      -0.1241
     14  CA        16.3580  -51.4370  -15.7240 C.3    18  HIS18       0.1621
     15  C         16.8220  -52.3250  -16.8720 C.2    18  HIS18       0.2264
     16  O         17.2210  -51.8370  -17.9260 O.2    18  HIS18      -0.2867
     17  CB        17.5060  -51.3120  -14.7230 C.3    18  HIS18       0.0745
     18  CG        17.2440  -50.3500  -13.6140 C.ar   18  HIS18       0.0817
     19  ND1       17.2590  -50.7280  -12.2870 N.ar   18  HIS18      -0.2268
     20  CD2       16.9750  -49.0230  -13.6270 C.ar   18  HIS18       0.1154
     21  CE1       17.0090  -49.6740  -11.5320 C.ar   18  HIS18       0.1986
     22  NE2       16.8320  -48.6250  -12.3190 N.ar   18  HIS18      -0.2212
     23  N         14.5360  -52.0450  -19.9460 N.3    21  ILE21      -0.1245
     24  CA        14.7390  -50.7980  -20.6780 C.3    21  ILE21       0.1561
     25  C         16.0210  -50.8670  -21.5050 C.2    21  ILE21       0.2260
     26  O         16.0250  -50.5540  -22.7050 O.2    21  ILE21      -0.2867
     27  CB        14.7770  -49.5810  -19.7360 C.3    21  ILE21       0.0252
     28  CG1       13.3940  -49.3310  -19.1230 C.3    21  ILE21       0.0019
     29  CG2       15.2630  -48.3350  -20.4890 C.3    21  ILE21       0.0019
     30  CD1       13.4050  -48.2840  -18.0020 C.3    21  ILE21       0.0001
     31  N         25.8980  -43.9060  -10.8950 N.3    39  ASN39      -0.1240
     32  CA        26.1030  -42.5260  -10.4580 C.3    39  ASN39       0.1653
     33  C         26.8060  -42.4870   -9.1140 C.2    39  ASN39       0.2266
     34  O         26.6300  -43.3830   -8.2920 O.2    39  ASN39      -0.2867
     35  CB        24.7520  -41.8300  -10.2370 C.3    39  ASN39       0.1155
     36  CG        23.9400  -41.6200  -11.5150 C.2    39  ASN39       0.2627
     37  OD1       22.7460  -41.3140  -11.4290 O.2    39  ASN39      -0.2716
     38  ND2       24.5660  -41.7560  -12.6860 N.am   39  ASN39      -0.0877
     39  N         25.8940  -34.9470  -16.5710 N.3    81  THR81      -0.1218
     40  CA        25.9950  -35.8740  -17.6750 C.3    81  THR81       0.1862
     41  C         26.9210  -35.2730  -18.7300 C.2    81  THR81       0.2287
     42  O         27.6950  -35.9930  -19.3540 O.2    81  THR81      -0.2866
     43  CB        24.6150  -36.2070  -18.2230 C.3    81  THR81       0.1770
     44  OG1       23.9110  -36.9820  -17.2410 O.3    81  THR81      -0.2211
     45  CG2       24.7070  -36.9890  -19.5390 C.3    81  THR81       0.0375
     46  N         22.1620  -41.8370  -25.1410 N.3    99  PHE99      -0.1227
     47  CA        21.9150  -41.6690  -23.7060 C.3    99  PHE99       0.1736
     48  C         20.4340  -41.8570  -23.3800 C.2    99  PHE99       0.2595
     49  O         19.6020  -41.0480  -23.7860 O.2    99  PHE99      -0.2718
     50  CB        22.3950  -40.2880  -23.2470 C.3    99  PHE99       0.0547
     51  CG        22.5280  -40.1740  -21.7610 C.ar   99  PHE99      -0.0202
     52  CD1       23.6940  -40.5760  -21.1320 C.ar   99  PHE99      -0.0042
     53  CD2       21.4710  -39.7020  -20.9890 C.ar   99  PHE99      -0.0042
     54  CE1       23.8230  -40.4980  -19.7560 C.ar   99  PHE99      -0.0003
     55  CE2       21.5920  -39.6090  -19.6110 C.ar   99  PHE99      -0.0003
     56  CZ        22.7720  -40.0170  -18.9940 C.ar   99  PHE99      -0.0000
     57  N         20.1140  -42.9100  -22.6310 N.am  100  ILE100     -0.1966
     58  CA        18.7190  -43.3200  -22.4160 C.3   100  ILE100      0.1727
     59  C         18.1120  -42.5890  -21.2320 C.2   100  ILE100      0.2616
     60  O         18.7050  -42.5600  -20.1300 O.2   100  ILE100     -0.2715
     61  CB        18.6090  -44.8420  -22.1890 C.3   100  ILE100      0.0290
     62  CG1       19.2060  -45.5980  -23.3730 C.3   100  ILE100      0.0022
     63  CG2       17.1440  -45.2610  -21.9890 C.3   100  ILE100      0.0023
     64  CD1       19.5080  -47.0520  -23.0780 C.3   100  ILE100      0.0001
     65  N         16.9510  -41.9720  -21.4590 N.am  101  ILE101     -0.1963
     66  CA        16.2500  -41.2720  -20.3910 C.3   101  ILE101      0.1727
     67  C         14.7830  -41.6890  -20.3260 C.2   101  ILE101      0.2616
     68  O         14.1680  -42.0030  -21.3520 O.2   101  ILE101     -0.2715
     69  CB        16.3150  -39.7240  -20.5420 C.3   101  ILE101      0.0290
     70  CG1       15.6650  -39.2830  -21.8490 C.3   101  ILE101      0.0022
     71  CG2       17.7640  -39.2160  -20.4820 C.3   101  ILE101      0.0023
     72  CD1       15.6300  -37.7830  -22.0500 C.3   101  ILE101      0.0001
     73  N         14.2280  -41.6640  -19.1140 N.am  102  GLY102     -0.1955
     74  CA        12.8050  -41.8670  -18.9180 C.3   102  GLY102      0.1869
     75  C         11.9620  -40.8850  -19.7160 C.2   102  GLY102      0.2309
     76  O         12.3290  -39.7280  -19.8940 O.2   102  GLY102     -0.2863
     77  N          9.3320  -39.3240  -18.8980 N.3   104  ASP104     -0.1225
     78  CA         9.0340  -38.1500  -18.0600 C.3   104  ASP104      0.1805
     79  C         10.1720  -37.1100  -17.9510 C.2   104  ASP104      0.2597
     80  O          9.9240  -35.9480  -17.6380 O.2   104  ASP104     -0.2718
     81  CB         8.6180  -38.5910  -16.6560 C.3   104  ASP104      0.1424
     82  CG         7.2180  -39.2030  -16.6180 C.2   104  ASP104      0.3668
     83  OD1        6.5120  -39.1770  -17.6510 O.co2 104  ASP104     -0.2456
     84  OD2        6.8280  -39.7070  -15.5430 O.co2 104  ASP104     -0.2456
     85  N         11.4100  -37.5270  -18.2040 N.am  105  MET105     -0.1979
     86  CA        12.5440  -36.6140  -18.1610 C.3   105  MET105      0.1605
     87  C         12.5900  -35.6620  -19.3590 C.2   105  MET105      0.2287
     88  O         13.2090  -34.5930  -19.2900 O.2   105  MET105     -0.2864
     89  CB        13.8560  -37.3940  -18.1040 C.3   105  MET105      0.0413
     90  CG        14.0270  -38.2480  -16.8620 C.3   105  MET105      0.0598
     91  SD        14.1880  -37.2280  -15.3790 S.3   105  MET105     -0.1393
     92  CE        14.7340  -38.4650  -14.2030 C.3   105  MET105      0.0692
     93  N         10.5870  -33.6030  -20.9610 N.3   107  GLU107     -0.1231
     94  CA        10.1330  -32.2170  -20.9460 C.3   107  GLU107      0.1699
     95  C         11.0420  -31.2940  -20.1400 C.2   107  GLU107      0.2592
     96  O         10.8940  -30.0760  -20.2070 O.2   107  GLU107     -0.2718
     97  CB         8.6710  -32.0780  -20.4930 C.3   107  GLU107      0.0402
     98  CG         8.4370  -32.2900  -19.0260 C.3   107  GLU107      0.1161
     99  CD         6.9840  -32.0270  -18.6140 C.2   107  GLU107      0.3649
    100  OE1        6.3090  -32.9830  -18.1910 O.co2 107  GLU107     -0.2457
    101  OE2        6.5180  -30.8740  -18.7030 O.co2 107  GLU107     -0.2457
    102  N         11.9640  -31.8700  -19.3720 N.am  108  TYR108     -0.1976
    103  CA        12.8280  -31.0680  -18.5170 C.3   108  TYR108      0.1639
    104  C         14.2520  -30.9920  -19.0550 C.2   108  TYR108      0.2290
    105  O         15.1040  -30.3620  -18.4550 O.2   108  TYR108     -0.2864
    106  CB        12.8340  -31.5680  -17.0650 C.3   108  TYR108      0.0560
    107  CG        11.4740  -31.5010  -16.4170 C.ar  108  TYR108     -0.0198
    108  CD1       10.6920  -32.6330  -16.2900 C.ar  108  TYR108     -0.0009
    109  CD2       10.9620  -30.2930  -15.9630 C.ar  108  TYR108     -0.0009
    110  CE1        9.4360  -32.5740  -15.7130 C.ar  108  TYR108      0.0417
    111  CE2        9.7220  -30.2170  -15.3820 C.ar  108  TYR108      0.0417
    112  CZ         8.9580  -31.3740  -15.2620 C.ar  108  TYR108      0.1957
    113  OH         7.7090  -31.3140  -14.6980 O.3   108  TYR108     -0.2866
    114  N         16.6240  -28.0250  -18.8770 N.3   111  LYS111     -0.1231
    115  CA        17.1750  -27.6010  -17.5980 C.3   111  LYS111      0.1693
    116  C         18.4280  -28.3700  -17.2220 C.2   111  LYS111      0.2592
    117  O         19.0010  -28.1280  -16.1630 O.2   111  LYS111     -0.2718
    118  CB        16.1370  -27.7530  -16.4710 C.3   111  LYS111      0.0285
    119  CG        14.9060  -26.8750  -16.6320 C.3   111  LYS111      0.0035
    120  CD        13.8200  -27.2790  -15.6550 C.3   111  LYS111      0.0206
    121  CE        12.6650  -26.3030  -15.6920 C.3   111  LYS111      0.1093
    122  NZ        13.0350  -25.0000  -15.0890 N.3   111  LYS111     -0.1314
    123  N         18.8410  -29.3070  -18.0660 N.am  112  TRP112     -0.1976
    124  CA        20.0540  -30.0560  -17.7890 C.3   112  TRP112      0.1640
    125  C         21.2510  -29.1480  -17.9830 C.2   112  TRP112      0.2290
    126  O         21.2860  -28.3440  -18.9140 O.2   112  TRP112     -0.2864
    127  CB        20.1840  -31.2430  -18.7290 C.3   112  TRP112      0.0576
    128  CG        19.2810  -32.3930  -18.4130 C.ar  112  TRP112      0.0006
    129  CD1       17.9940  -32.3390  -17.9480 C.ar  112  TRP112      0.0946
    130  CD2       19.5920  -33.7800  -18.5760 C.ar  112  TRP112      0.0152
    131  NE1       17.4920  -33.6170  -17.8000 N.ar  112  TRP112     -0.2442
    132  CE2       18.4540  -34.5170  -18.1800 C.ar  112  TRP112      0.0810
    133  CE3       20.7240  -34.4720  -19.0150 C.ar  112  TRP112      0.0012
    134  CZ2       18.4240  -35.9040  -18.2030 C.ar  112  TRP112      0.0191
    135  CZ3       20.6890  -35.8540  -19.0390 C.ar  112  TRP112      0.0001
    136  CH2       19.5490  -36.5550  -18.6350 C.ar  112  TRP112      0.0015
    137  N         12.4890  -43.2450  -23.5100 N.3   127  VAL127     -0.1245
    138  CA        11.6500  -44.4430  -23.5020 C.3   127  VAL127      0.1561
    139  C         10.2350  -44.0790  -23.0560 C.2   127  VAL127      0.2260
    140  O         10.0400  -43.2420  -22.1710 O.2   127  VAL127     -0.2867
    141  CB        12.2550  -45.5870  -22.6430 C.3   127  VAL127      0.0252
    142  CG1       13.5020  -46.1570  -23.3220 C.3   127  VAL127      0.0019
    143  CG2       12.5760  -45.1200  -21.2410 C.3   127  VAL127      0.0019
@<TRIPOS>BOND
     1    46    47    1
     2    49    48    2
     3    47    48    1
     4    47    50    1
     5   137   138    1
     6   138   139    1
     7   138   141    1
     8    48    57   am
     9    62    64    1
    10    62    61    1
    11   142   141    1
    12    50    51    1
    13   139   140    2
    14    26    25    2
    15   141   143    1
    16    57    58    1
    17    58    61    1
    18    58    59    1
    19    61    63    1
    20    72    70    1
    21    70    69    1
    22    51    52   ar
    23    51    53   ar
    24    25    24    1
    25    65    59   am
    26    65    66    1
    27    68    67    2
    28    59    60    2
    29    52    54   ar
    30    53    55   ar
    31    93    94    1
    32    94    97    1
    33    94    95    1
    34    24    23    1
    35    24    27    1
    36    69    71    1
    37    69    66    1
    38    97    98    1
    39    29    27    1
    40    66    67    1
    41    67    73   am
    42    96    95    2
    43    95   102   am
    44     1     2    1
    45    76    75    2
    46    54    56   ar
    47    27    28    1
    48    75    74    1
    49    55    56   ar
    50    45    43    1
    51   102   103    1
    52    87    88    2
    53    87    86    1
    54    42    41    2
    55    28    30    1
    56    73    74    1
    57   104   103    1
    58   104   105    2
    59   135   133   ar
    60   135   136   ar
    61    98    99    1
    62   133   130   ar
    63     2     5    1
    64     2     3    1
    65   126   125    2
    66    77    78    1
    67   114   115    1
    68     5     7    1
    69     5     6    1
    70    41    40    1
    71   127   128    1
    72   127   124    1
    73   101    99   ar
    74   136   134   ar
    75    99   100   ar
    76   130   128   ar
    77   130   132   ar
    78   103   106    1
    79   128   129   ar
    80    43    40    1
    81    43    44    1
    82    85    86    1
    83    85    79   am
    84   134   132   ar
    85   132   131   ar
    86    86    89    1
    87    89    90    1
    88   123   124    1
    89   123   116   am
    90    78    79    1
    91    78    81    1
    92   125   124    1
    93    79    80    2
    94     8     6    1
    95   129   131   ar
    96    16    15    2
    97    40    39    1
    98    83    82   ar
    99   115   116    1
   100   115   118    1
   101     3     9   am
   102     3     4    2
   103   116   117    2
   104     9    10    1
   105   106   107    1
   106    15    14    1
   107    90    91    1
   108    81    82    1
   109   119   118    1
   110   119   120    1
   111    82    84   ar
   112   107   108   ar
   113   107   109   ar
   114   108   110   ar
   115   109   111   ar
   116    10    11    1
   117    14    13    1
   118    14    17    1
   119   110   112   ar
   120   121   120    1
   121   121   122    1
   122   111   112   ar
   123    91    92    1
   124   112   113    1
   125    12    11    2
   126    17    18    1
   127    20    18   ar
   128    20    22   ar
   129    18    19   ar
   130    38    36   am
   131    22    21   ar
   132    19    21   ar
   133    36    37    2
   134    36    35    1
   135    31    32    1
   136    32    35    1
   137    32    33    1
   138    33    34    2
