@<TRIPOS>MOLECULE
tmp/3mleB01.pdb
 119 112 0 0 0
SMALL
GASTEIGER

@<TRIPOS>ATOM
      1  N        -27.9390   45.8580  -58.9140 N.3    13  THR13      -0.1203
      2  CA       -26.8270   45.3410  -58.1420 C.3    13  THR13       0.1994
      3  C        -27.0910   45.5750  -56.6590 C.2    13  THR13       0.2618
      4  O        -27.8460   46.4870  -56.2840 O.2    13  THR13      -0.2717
      5  CB       -25.4860   45.9820  -58.5310 C.3    13  THR13       0.1784
      6  OG1      -24.4120   45.2380  -57.9330 O.3    13  THR13      -0.2211
      7  CG2      -25.4030   47.4420  -58.0630 C.3    13  THR13       0.0376
      8  N        -26.4470   44.7520  -55.8340 N.am   14  ASN14      -0.1960
      9  CA       -26.4810   44.8860  -54.3640 C.3    14  ASN14       0.1819
     10  C        -27.8890   44.7140  -53.7940 C.2    14  ASN14       0.2621
     11  O        -28.2490   45.3390  -52.8170 O.2    14  ASN14      -0.2715
     12  CB       -25.8470   46.2370  -53.9280 C.3    14  ASN14       0.1195
     13  CG       -25.6090   46.3170  -52.4290 C.2    14  ASN14       0.2630
     14  OD1      -25.1010   45.3750  -51.8320 O.2    14  ASN14      -0.2716
     15  ND2      -25.9960   47.4230  -51.8110 N.am   14  ASN14      -0.0877
     16  N        -28.6640   43.8620  -54.4420 N.am   15  ALA15      -0.1963
     17  CA       -30.0730   43.6030  -54.1230 C.3    15  ALA15       0.1728
     18  C        -30.2860   42.3080  -53.3230 C.2    15  ALA15       0.2617
     19  O        -31.3040   42.1050  -52.6410 O.2    15  ALA15      -0.2715
     20  CB       -30.8370   43.5060  -55.4020 C.3    15  ALA15       0.0334
     21  N        -29.3330   41.4090  -53.4370 N.am   16  GLY16      -0.1940
     22  CA       -29.3840   40.1430  -52.7090 C.3    16  GLY16       0.2014
     23  C        -29.2440   38.8820  -53.5690 C.2    16  GLY16       0.2639
     24  O        -29.4750   37.7650  -53.0970 O.2    16  GLY16      -0.2714
     25  N        -28.8870   39.0440  -54.8300 N.am   17  LYS17      -0.1963
     26  CA       -28.7450   37.8980  -55.6950 C.3    17  LYS17       0.1728
     27  C        -27.9160   36.8150  -54.9860 C.2    17  LYS17       0.2617
     28  O        -28.3420   35.6560  -54.8070 O.2    17  LYS17      -0.2715
     29  CB       -28.0470   38.2590  -57.0110 C.3    17  LYS17       0.0311
     30  CG       -28.8550   39.1170  -57.9430 C.3    17  LYS17       0.0038
     31  CD       -28.1300   39.3680  -59.2620 C.3    17  LYS17       0.0206
     32  CE       -26.8660   40.2480  -59.1240 C.3    17  LYS17       0.1093
     33  NZ       -27.0520   41.5810  -58.4430 N.3    17  LYS17      -0.1314
     34  N        -26.7100   37.1930  -54.5910 N.am   18  THR18      -0.1937
     35  CA       -25.7450   36.1930  -54.0830 C.3    18  THR18       0.2028
     36  C        -26.2480   35.5010  -52.8060 C.2    18  THR18       0.2642
     37  O        -26.2520   34.2910  -52.7200 O.2    18  THR18      -0.2714
     38  CB       -24.3980   36.8130  -53.8290 C.3    18  THR18       0.1808
     39  OG1      -23.9270   37.3910  -55.0300 O.3    18  THR18      -0.2208
     40  CG2      -23.3940   35.7940  -53.3610 C.3    18  THR18       0.0379
     41  N        -26.7190   36.2980  -51.8510 N.am   19  THR19      -0.1950
     42  CA       -27.2810   35.7460  -50.6060 C.3    19  THR19       0.1897
     43  C        -28.4700   34.8050  -50.8370 C.2    19  THR19       0.2313
     44  O        -28.5320   33.6840  -50.3060 O.2    19  THR19      -0.2863
     45  CB       -27.7250   36.8430  -49.6430 C.3    19  THR19       0.1794
     46  OG1      -26.5660   37.3960  -49.0110 O.3    19  THR19      -0.2208
     47  CG2      -28.6400   36.2800  -48.5580 C.3    19  THR19       0.0378
     48  N        -28.8970   30.8000  -50.2190 N.3    23  LEU23      -0.1245
     49  CA       -30.0080   30.3020  -49.3650 C.3    23  LEU23       0.1561
     50  C        -30.8290   29.2190  -50.0810 C.2    23  LEU23       0.2260
     51  O        -31.2030   28.1830  -49.4940 O.2    23  LEU23      -0.2867
     52  CB       -30.9160   31.4430  -48.9240 C.3    23  LEU23       0.0270
     53  CG       -30.3900   32.2970  -47.7660 C.3    23  LEU23       0.0019
     54  CD1      -31.1940   33.5950  -47.6630 C.3    23  LEU23       0.0001
     55  CD2      -30.4530   31.4760  -46.4510 C.3    23  LEU23       0.0001
     56  N        -21.2280   31.7210  -61.0540 N.3    39  LYS39      -0.1245
     57  CA       -21.1080   33.1720  -61.3150 C.3    39  LYS39       0.1561
     58  C        -20.2550   33.3680  -62.5720 C.2    39  LYS39       0.2260
     59  O        -19.0820   33.6530  -62.4950 O.2    39  LYS39      -0.2867
     60  CB       -20.4830   33.9110  -60.1160 C.3    39  LYS39       0.0271
     61  CG       -20.3670   35.4510  -60.2510 C.3    39  LYS39       0.0035
     62  CD       -21.7060   36.1960  -59.9950 C.3    39  LYS39       0.0206
     63  CE       -21.5060   37.7040  -59.9490 C.3    39  LYS39       0.1093
     64  NZ       -22.7170   38.4620  -59.5610 N.3    39  LYS39      -0.1314
     65  N        -18.4090   36.8960  -55.0990 N.3    54  ASP54      -0.1239
     66  CA       -19.5220   36.0060  -55.2510 C.3    54  ASP54       0.1674
     67  C        -19.0240   34.6160  -55.6290 C.2    54  ASP54       0.2266
     68  O        -19.4710   33.6130  -55.0630 O.2    54  ASP54      -0.2867
     69  CB       -20.4720   36.5360  -56.3230 C.3    54  ASP54       0.1410
     70  CG       -21.1370   37.7780  -55.9130 C.2    54  ASP54       0.3668
     71  OD1      -20.8770   38.2240  -54.7740 O.co2  54  ASP54      -0.2456
     72  OD2      -21.9050   38.3050  -56.7420 O.co2  54  ASP54      -0.2456
     73  N        -25.8670   33.0360  -61.2710 N.3   120  GLU120     -0.1245
     74  CA       -25.9980   34.4520  -60.8750 C.3   120  GLU120      0.1567
     75  C        -25.5480   35.2980  -62.0480 C.2   120  GLU120      0.2260
     76  O        -24.4520   35.1410  -62.5690 O.2   120  GLU120     -0.2867
     77  CB       -25.2280   34.8510  -59.5900 C.3   120  GLU120      0.0388
     78  CG       -25.5510   36.3180  -59.0980 C.3   120  GLU120      0.1160
     79  CD       -24.9030   36.7620  -57.7500 C.2   120  GLU120      0.3649
     80  OE1      -24.5990   35.8910  -56.9020 O.co2 120  GLU120     -0.2457
     81  OE2      -24.7340   38.0140  -57.5410 O.co2 120  GLU120     -0.2457
     82  N        -36.3730   40.1970  -51.4560 N.3   179  ASN179     -0.1225
     83  CA       -35.3820   39.8490  -50.4260 C.3   179  ASN179      0.1785
     84  C        -35.6440   40.7000  -49.1730 C.2   179  ASN179      0.2597
     85  O        -35.1690   41.8440  -49.0210 O.2   179  ASN179     -0.2718
     86  CB       -33.9930   40.0770  -50.9690 C.3   179  ASN179      0.1169
     87  CG       -32.9190   39.9560  -49.9300 C.2   179  ASN179      0.2627
     88  OD1      -33.0710   39.2560  -48.9090 O.2   179  ASN179     -0.2716
     89  ND2      -31.7860   40.6420  -50.1910 N.am  179  ASN179     -0.0877
     90  N        -36.4350   40.1340  -48.2740 N.am  180  LEU180     -0.1966
     91  CA       -36.9480   40.8830  -47.1220 C.3   180  LEU180      0.1728
     92  C        -36.0130   40.7170  -45.9400 C.2   180  LEU180      0.2616
     93  O        -35.8600   39.5990  -45.3890 O.2   180  LEU180     -0.2715
     94  CB       -38.3300   40.3660  -46.7560 C.3   180  LEU180      0.0311
     95  CG       -39.0240   41.0630  -45.6010 C.3   180  LEU180      0.0022
     96  CD1      -38.9650   42.5920  -45.6890 C.3   180  LEU180      0.0001
     97  CD2      -40.4740   40.5520  -45.4920 C.3   180  LEU180      0.0001
     98  N        -35.3530   41.8080  -45.5730 N.am  181  LYS181     -0.1963
     99  CA       -34.4930   41.7990  -44.4000 C.3   181  LYS181      0.1728
    100  C        -35.3790   41.5610  -43.1840 C.2   181  LYS181      0.2616
    101  O        -36.4830   42.1200  -43.0980 O.2   181  LYS181     -0.2715
    102  CB       -33.7100   43.1080  -44.2560 C.3   181  LYS181      0.0311
    103  CG       -32.7550   43.3790  -45.4390 C.3   181  LYS181      0.0038
    104  CD       -32.1570   44.7880  -45.3310 C.3   181  LYS181      0.0206
    105  CE       -31.0560   45.0340  -46.3460 C.3   181  LYS181      0.1093
    106  NZ       -31.6050   45.0850  -47.7150 N.3   181  LYS181     -0.1314
    107  N        -34.8910   40.7420  -42.2540 N.am  182  GLY182     -0.1955
    108  CA       -35.7140   40.3110  -41.1470 C.3   182  GLY182      0.1869
    109  C        -36.1680   41.4730  -40.2800 C.2   182  GLY182      0.2309
    110  O        -37.3160   41.5080  -39.8230 O.2   182  GLY182     -0.2863
    111  N        -37.7210   34.8510  -48.6160 N.3   210  GLN210     -0.1245
    112  CA       -37.4920   34.1100  -47.3820 C.3   210  GLN210      0.1566
    113  C        -38.6780   33.2130  -46.9760 C.2   210  GLN210      0.2260
    114  O        -38.5240   32.3280  -46.1680 O.2   210  GLN210     -0.2867
    115  CB       -37.1660   35.0730  -46.2520 C.3   210  GLN210      0.0367
    116  CG       -35.7730   35.6590  -46.3160 C.3   210  GLN210      0.0905
    117  CD       -35.5770   36.7690  -47.3710 C.2   210  GLN210      0.2608
    118  OE1      -36.5360   37.3710  -47.8890 O.2   210  GLN210     -0.2717
    119  NE2      -34.3070   37.0530  -47.6740 N.am  210  GLN210     -0.0878
@<TRIPOS>BOND
     1    58    59    2
     2    58    57    1
     3    76    75    2
     4    75    74    1
     5    57    56    1
     6    57    60    1
     7    73    74    1
     8    74    77    1
     9    61    60    1
    10    61    62    1
    11    62    63    1
    12    63    64    1
    13    77    78    1
    14    31    32    1
    15    31    30    1
    16    32    33    1
    17    78    79    1
    18     1     2    1
    19     5     2    1
    20     5     7    1
    21     5     6    1
    22     2     3    1
    23    30    29    1
    24    79    81   ar
    25    79    80   ar
    26    29    26    1
    27    72    70   ar
    28     3     4    2
    29     3     8   am
    30    69    70    1
    31    69    66    1
    32    70    71   ar
    33     8     9    1
    34    26    27    1
    35    26    25    1
    36    67    66    1
    37    67    68    2
    38    20    17    1
    39    66    65    1
    40    39    38    1
    41    27    28    2
    42    27    34   am
    43    25    23   am
    44    34    35    1
    45    16    17    1
    46    16    10   am
    47     9    12    1
    48     9    10    1
    49    17    18    1
    50    35    38    1
    51    35    36    1
    52    12    13    1
    53    38    40    1
    54    10    11    2
    55    23    24    2
    56    23    22    1
    57    21    18   am
    58    21    22    1
    59    18    19    2
    60    36    37    2
    61    36    41   am
    62    13    14    2
    63    13    15   am
    64    41    42    1
    65    82    83    1
    66    86    83    1
    67    86    87    1
    68    43    42    1
    69    43    44    2
    70    42    45    1
    71    83    84    1
    72    48    49    1
    73    89    87   am
    74    50    51    2
    75    50    49    1
    76    87    88    2
    77    45    46    1
    78    45    47    1
    79    49    52    1
    80    84    85    2
    81    84    90   am
    82    52    53    1
    83   111   112    1
    84    90    91    1
    85   118   117    2
    86    53    54    1
    87    53    55    1
    88   106   105    1
    89   119   117   am
    90   112   113    1
    91   112   115    1
    92   117   116    1
    93    91    94    1
    94    91    92    1
    95   113   114    2
    96    94    95    1
    97   105   104    1
    98   116   115    1
    99    92    98   am
   100    92    93    2
   101    96    95    1
   102    95    97    1
   103    98    99    1
   104   103   104    1
   105   103   102    1
   106    99   102    1
   107    99   100    1
   108   100   101    2
   109   100   107   am
   110   107   108    1
   111   108   109    1
   112   109   110    2
