@<TRIPOS>MOLECULE
tmp/3mleB02.pdb
 92 88 0 0 0
SMALL
GASTEIGER

@<TRIPOS>ATOM
      1  N        -31.6120   45.5180  -59.1510 N.3    12  ASN12      -0.1225
      2  CA       -30.3080   46.0780  -59.4950 C.3    12  ASN12       0.1785
      3  C        -29.1430   45.3080  -58.8040 C.2    12  ASN12       0.2597
      4  O        -29.3400   44.2340  -58.1930 O.2    12  ASN12      -0.2718
      5  CB       -30.2670   47.5690  -59.1800 C.3    12  ASN12       0.1169
      6  CG       -29.4740   48.3590  -60.2380 C.2    12  ASN12       0.2627
      7  OD1      -28.2730   48.1010  -60.4130 O.2    12  ASN12      -0.2716
      8  ND2      -30.1450   49.2920  -60.9830 N.am   12  ASN12      -0.0877
      9  N        -27.9390   45.8580  -58.9140 N.am   13  THR13      -0.1953
     10  CA       -26.8270   45.3410  -58.1420 C.3    13  THR13       0.1897
     11  C        -27.0910   45.5750  -56.6590 C.2    13  THR13       0.2313
     12  O        -27.8460   46.4870  -56.2840 O.2    13  THR13      -0.2863
     13  CB       -25.4860   45.9820  -58.5310 C.3    13  THR13       0.1794
     14  OG1      -24.4120   45.2380  -57.9330 O.3    13  THR13      -0.2208
     15  CG2      -25.4030   47.4420  -58.0630 C.3    13  THR13       0.0378
     16  N        -21.2280   31.7210  -61.0540 N.3    39  LYS39      -0.1245
     17  CA       -21.1080   33.1720  -61.3150 C.3    39  LYS39       0.1561
     18  C        -20.2550   33.3680  -62.5720 C.2    39  LYS39       0.2260
     19  O        -19.0820   33.6530  -62.4950 O.2    39  LYS39      -0.2867
     20  CB       -20.4830   33.9110  -60.1160 C.3    39  LYS39       0.0271
     21  CG       -20.3670   35.4510  -60.2510 C.3    39  LYS39       0.0035
     22  CD       -21.7060   36.1960  -59.9950 C.3    39  LYS39       0.0206
     23  CE       -21.5060   37.7040  -59.9490 C.3    39  LYS39       0.1093
     24  NZ       -22.7170   38.4620  -59.5610 N.3    39  LYS39      -0.1314
     25  N        -18.2980   38.1260  -63.5530 N.3    42  GLU42      -0.1231
     26  CA       -18.2020   38.9380  -62.3270 C.3    42  GLU42       0.1699
     27  C        -17.2370   40.1080  -62.5100 C.2    42  GLU42       0.2593
     28  O        -16.1790   39.9780  -63.1090 O.2    42  GLU42      -0.2718
     29  CB       -17.8030   38.0910  -61.0970 C.3    42  GLU42       0.0402
     30  CG       -17.7320   38.9220  -59.7920 C.3    42  GLU42       0.1161
     31  CD       -17.8840   38.1310  -58.4790 C.2    42  GLU42       0.3649
     32  OE1      -17.4500   36.9960  -58.3870 O.co2  42  GLU42      -0.2457
     33  OE2      -18.4230   38.6920  -57.5030 O.co2  42  GLU42      -0.2457
     34  N        -17.6050   41.2470  -61.9660 N.am   43  THR43      -0.1939
     35  CA       -16.7890   42.4480  -62.0630 C.3    43  THR43       0.2028
     36  C        -16.5490   43.0370  -60.6760 C.2    43  THR43       0.2642
     37  O        -17.1420   42.6170  -59.6890 O.2    43  THR43      -0.2714
     38  CB       -17.4680   43.5080  -62.9420 C.3    43  THR43       0.1808
     39  OG1      -18.6190   44.0210  -62.2690 O.3    43  THR43      -0.2208
     40  CG2      -17.8930   42.8900  -64.2750 C.3    43  THR43       0.0379
     41  N        -15.6490   43.9980  -60.6060 N.am   44  GLY44      -0.1954
     42  CA       -15.2690   44.6030  -59.3340 C.3    44  GLY44       0.1869
     43  C        -14.4380   43.7080  -58.4290 C.2    44  GLY44       0.2309
     44  O        -14.4040   43.8900  -57.2200 O.2    44  GLY44      -0.2863
     45  N        -15.1620   48.1780  -61.3790 N.3    82  VAL82      -0.1231
     46  CA       -16.4810   48.0880  -60.7410 C.3    82  VAL82       0.1692
     47  C        -17.5160   48.6910  -61.6740 C.2    82  VAL82       0.2593
     48  O        -17.9210   49.8780  -61.5420 O.2    82  VAL82      -0.2718
     49  CB       -16.5400   48.7810  -59.3510 C.3    82  VAL82       0.0266
     50  CG1      -17.9470   48.5490  -58.6890 C.3    82  VAL82       0.0020
     51  CG2      -15.3720   48.2990  -58.4500 C.3    82  VAL82       0.0020
     52  N        -17.9350   47.8670  -62.6230 N.am   83  SER83      -0.1938
     53  CA       -18.7450   48.3450  -63.7450 C.3    83  SER83       0.2055
     54  C        -19.5080   47.2340  -64.4330 C.2    83  SER83       0.2643
     55  O        -19.3380   46.0700  -64.1240 O.2    83  SER83      -0.2714
     56  CB       -17.8240   48.9810  -64.7910 C.3    83  SER83       0.2130
     57  OG       -17.2790   47.9650  -65.6280 O.3    83  SER83      -0.2179
     58  N        -20.3210   47.6150  -65.4020 N.am   84  ALA84      -0.1963
     59  CA       -20.9480   46.6640  -66.3050 C.3    84  ALA84       0.1713
     60  C        -19.8470   45.8830  -66.9920 C.2    84  ALA84       0.2458
     61  O        -18.7950   46.4270  -67.2920 O.2    84  ALA84      -0.2730
     62  CB       -21.8070   47.3730  -67.3420 C.3    84  ALA84       0.0333
     63  N        -20.0770   44.5980  -67.2310 N.am   85  PRO85      -0.2727
     64  CA       -19.0470   43.7690  -67.8160 C.3    85  PRO85       0.1402
     65  C        -18.5110   44.2730  -69.1500 C.2    85  PRO85       0.2269
     66  O        -17.3020   44.2420  -69.3760 O.2    85  PRO85      -0.2865
     67  CB       -19.7560   42.4280  -68.0060 C.3    85  PRO85       0.0296
     68  CG       -20.8070   42.4140  -66.9750 C.3    85  PRO85       0.0237
     69  CD       -21.2500   43.8180  -66.8210 C.3    85  PRO85       0.0939
     70  N        -24.9880   39.4570  -63.3220 N.3   122  ALA122     -0.1231
     71  CA       -24.2900   40.5810  -62.6940 C.3   122  ALA122      0.1694
     72  C        -25.1920   41.8000  -62.8330 C.2   122  ALA122      0.2592
     73  O        -25.7480   42.0560  -63.8960 O.2   122  ALA122     -0.2718
     74  CB       -22.9690   40.8260  -63.3400 C.3   122  ALA122      0.0304
     75  N        -25.3510   42.5210  -61.7300 N.am  123  GLY123     -0.1957
     76  CA       -26.2510   43.6630  -61.6780 C.3   123  GLY123      0.1869
     77  C        -27.6560   43.2420  -62.0580 C.2   123  GLY123      0.2309
     78  O        -28.1040   42.1770  -61.6570 O.2   123  GLY123     -0.2863
     79  N        -28.2150   45.1240  -67.9430 N.3   127  VAL127     -0.1231
     80  CA       -26.7540   45.2800  -67.8390 C.3   127  VAL127      0.1678
     81  C        -26.0810   44.6500  -69.0580 C.2   127  VAL127      0.2434
     82  O        -26.2710   43.4710  -69.3330 O.2   127  VAL127     -0.2733
     83  CB       -26.1940   44.6300  -66.5400 C.3   127  VAL127      0.0265
     84  CG1      -24.6840   44.5830  -66.6030 C.3   127  VAL127      0.0020
     85  CG2      -26.6780   45.4060  -65.3040 C.3   127  VAL127      0.0020
     86  N        -25.2970   45.4330  -69.7940 N.am  128  PRO128     -0.2729
     87  CA       -24.7290   44.9370  -71.0280 C.3   128  PRO128      0.1401
     88  C        -23.5070   44.0840  -70.8280 C.2   128  PRO128      0.2269
     89  O        -22.6320   44.3910  -70.0140 O.2   128  PRO128     -0.2865
     90  CB       -24.3540   46.2180  -71.7600 C.3   128  PRO128      0.0296
     91  CG       -24.0160   47.1560  -70.6990 C.3   128  PRO128      0.0237
     92  CD       -24.8830   46.8180  -69.5330 C.3   128  PRO128      0.0939
@<TRIPOS>BOND
     1    90    87    1
     2    90    91    1
     3    87    88    1
     4    87    86    1
     5    88    89    2
     6    91    92    1
     7    86    92    1
     8    86    81   am
     9    66    65    2
    10    82    81    2
    11    65    64    1
    12    81    80    1
    13    67    64    1
    14    67    68    1
    15    79    80    1
    16    80    83    1
    17    64    63    1
    18    62    59    1
    19    61    60    2
    20    63    60   am
    21    63    69    1
    22    60    59    1
    23    68    69    1
    24    84    83    1
    25    83    85    1
    26    59    58    1
    27    57    56    1
    28    58    54   am
    29    56    53    1
    30    54    55    2
    31    54    53    1
    32    40    38    1
    33    73    72    2
    34    53    52    1
    35    25    26    1
    36    74    71    1
    37    70    71    1
    38    28    27    2
    39    38    39    1
    40    38    35    1
    41    72    71    1
    42    72    75   am
    43    52    47   am
    44    18    19    2
    45    18    17    1
    46    27    26    1
    47    27    34   am
    48    26    29    1
    49    35    34    1
    50    35    36    1
    51    77    76    1
    52    77    78    2
    53    75    76    1
    54    47    48    2
    55    47    46    1
    56    45    46    1
    57    17    16    1
    58    17    20    1
    59    29    30    1
    60     8     6   am
    61    46    49    1
    62    36    41   am
    63    36    37    2
    64    41    42    1
    65     7     6    2
    66    21    20    1
    67    21    22    1
    68     6     5    1
    69    22    23    1
    70    23    24    1
    71    30    31    1
    72     2     5    1
    73     2     1    1
    74     2     3    1
    75    49    50    1
    76    49    51    1
    77    42    43    1
    78     9     3   am
    79     9    10    1
    80     3     4    2
    81    13    10    1
    82    13    15    1
    83    13    14    1
    84    31    32   ar
    85    31    33   ar
    86    43    44    2
    87    10    11    1
    88    11    12    2
