@<TRIPOS>MOLECULE
tmp/3mlmB00.pdb
 154 149 0 0 0
SMALL
GASTEIGER

@<TRIPOS>ATOM
      1  N          1.1240   10.5770   13.7830 N.3     2  LEU2       -0.1231
      2  CA         2.4090   10.9940   14.2210 C.3     2  LEU2        0.1693
      3  C          3.2120    9.7780   14.6800 C.2     2  LEU2        0.2592
      4  O          4.4280    9.8040   14.5380 O.2     2  LEU2       -0.2718
      5  CB         2.2900   12.0390   15.3840 C.3     2  LEU2        0.0284
      6  CG         1.9080   13.4530   14.9110 C.3     2  LEU2        0.0019
      7  CD1        1.7850   14.4940   16.0420 C.3     2  LEU2        0.0001
      8  CD2        2.8430   14.0080   13.8070 C.3     2  LEU2        0.0001
      9  N          2.6170    8.7500   15.2770 N.am    3  PHE3       -0.1976
     10  CA         3.5470    7.6640   15.7170 C.3     3  PHE3        0.1639
     11  C          4.1200    7.0760   14.4190 C.2     3  PHE3        0.2290
     12  O          5.3180    6.7240   14.3710 O.2     3  PHE3       -0.2864
     13  CB         2.8570    6.4840   16.4860 C.3     3  PHE3        0.0560
     14  CG         2.6380    6.7180   17.9470 C.ar    3  PHE3       -0.0200
     15  CD1        2.7640    5.6420   18.8550 C.ar    3  PHE3       -0.0042
     16  CD2        2.2100    7.9610   18.4190 C.ar    3  PHE3       -0.0042
     17  CE1        2.5110    5.8170   20.2180 C.ar    3  PHE3       -0.0003
     18  CE2        1.9270    8.1420   19.7690 C.ar    3  PHE3       -0.0003
     19  CZ         2.0630    7.0680   20.6810 C.ar    3  PHE3       -0.0000
     20  N          4.6180    8.5740   11.3950 N.3     5  LEU5       -0.1231
     21  CA         5.4980    9.4950   10.7750 C.3     5  LEU5        0.1693
     22  C          6.8160    9.3240   11.4980 C.2     5  LEU5        0.2593
     23  O          7.7860    8.9560   10.9320 O.2     5  LEU5       -0.2718
     24  CB         4.9750   10.9370   10.9810 C.3     5  LEU5        0.0284
     25  CG         5.9170   12.0780   10.5980 C.3     5  LEU5        0.0019
     26  CD1        6.1890   12.0800    9.1420 C.3     5  LEU5        0.0001
     27  CD2        5.4000   13.4540   11.0880 C.3     5  LEU5        0.0001
     28  N          6.7710    9.6100   12.7880 N.am    6  GLY6       -0.1942
     29  CA         7.7870    9.3090   13.7060 C.3     6  GLY6        0.2014
     30  C          8.6110    8.1370   13.2930 C.2     6  GLY6        0.2638
     31  O          9.7780    8.3080   12.9880 O.2     6  GLY6       -0.2714
     32  N          8.0120    6.9470   13.2790 N.am    7  LYS7       -0.1977
     33  CA         8.7300    5.7060   13.0140 C.3     7  LYS7        0.1596
     34  C          9.3320    5.6100   11.6360 C.2     7  LYS7        0.2287
     35  O         10.3640    4.9810   11.4530 O.2     7  LYS7       -0.2864
     36  CB         7.7850    4.5420   13.2130 C.3     7  LYS7        0.0298
     37  CG         8.5080    3.2180   13.3890 C.3     7  LYS7        0.0038
     38  CD         7.4950    2.0940   13.4480 C.3     7  LYS7        0.0206
     39  CE         8.1630    0.7330   13.7120 C.3     7  LYS7        0.1093
     40  NZ         7.1410   -0.3500   13.2870 N.3     7  LYS7       -0.1314
     41  N         10.4050    8.1910    9.9220 N.3     9  ILE9       -0.1231
     42  CA        11.6080    9.0790    9.9240 C.3     9  ILE9        0.1692
     43  C         12.7290    8.3410   10.6370 C.2     9  ILE9        0.2591
     44  O         13.8740    8.2830   10.2080 O.2     9  ILE9       -0.2718
     45  CB        11.2720   10.4310   10.6420 C.3     9  ILE9        0.0266
     46  CG1       10.2290   11.1780    9.8240 C.3     9  ILE9        0.0019
     47  CG2       12.5150   11.2420   10.8470 C.3     9  ILE9        0.0020
     48  CD1        9.7420   12.3490   10.4090 C.3     9  ILE9        0.0001
     49  N         12.4040    7.7190   11.7540 N.am   10  LEU10      -0.1980
     50  CA        13.4470    6.9230   12.3410 C.3    10  LEU10       0.1596
     51  C         13.9390    5.8370   11.3790 C.2    10  LEU10       0.2287
     52  O         15.1360    5.6560   11.1750 O.2    10  LEU10      -0.2864
     53  CB        12.9760    6.2720   13.6000 C.3    10  LEU10       0.0297
     54  CG        14.0030    5.4110   14.2720 C.3    10  LEU10       0.0022
     55  CD1       15.0890    6.2100   15.0880 C.3    10  LEU10       0.0001
     56  CD2       13.3190    4.5260   15.2000 C.3    10  LEU10       0.0001
     57  N         13.4650   11.1780   15.7530 N.3    17  PRO17      -0.2102
     58  CA        12.6480   12.1210   14.9770 C.3    17  PRO17       0.1504
     59  C         12.4590   13.4640   15.6780 C.2    17  PRO17       0.2575
     60  O         12.7080   14.5660   15.0610 O.2    17  PRO17      -0.2718
     61  CB        11.3000   11.4540   14.9700 C.3    17  PRO17       0.0282
     62  CG        11.6190   10.0020   15.0770 C.3    17  PRO17       0.0208
     63  CD        12.8220    9.8780   15.9520 C.3    17  PRO17       0.0893
     64  N         11.9980   13.4120   16.9320 N.am   18  ALA18      -0.1980
     65  CA        11.7950   14.6810   17.5760 C.3    18  ALA18       0.1597
     66  C         13.0740   15.4330   17.6090 C.2    18  ALA18       0.2287
     67  O         13.0680   16.6580   17.4360 O.2    18  ALA18      -0.2864
     68  CB        11.1440   14.5830   19.0090 C.3    18  ALA18       0.0319
     69  N         14.0740   16.6110   13.9760 N.3    21  TYR21      -0.1227
     70  CA        12.9580   17.2380   13.2270 C.3    21  TYR21       0.1736
     71  C         11.7580   17.7610   13.9960 C.2    21  TYR21       0.2596
     72  O         10.8700   18.3320   13.3950 O.2    21  TYR21      -0.2718
     73  CB        12.4070   16.2950   12.1630 C.3    21  TYR21       0.0548
     74  CG        13.5240   15.7080   11.3430 C.ar   21  TYR21      -0.0200
     75  CD1       14.2370   16.5110   10.4560 C.ar   21  TYR21      -0.0009
     76  CD2       13.9060   14.4040   11.5090 C.ar   21  TYR21      -0.0009
     77  CE1       15.2810   15.9940    9.7510 C.ar   21  TYR21       0.0417
     78  CE2       14.9340   13.8870   10.7770 C.ar   21  TYR21       0.0417
     79  CZ        15.5930   14.6720    9.9310 C.ar   21  TYR21       0.1957
     80  OH        16.6010   14.1170    9.2090 O.3    21  TYR21      -0.2866
     81  N         11.7090   17.6350   15.3010 N.am   22  GLY22      -0.1957
     82  CA        10.4810   18.0370   15.9850 C.3    22  GLY22       0.1869
     83  C         10.4590   19.5690   15.9620 C.2    22  GLY22       0.2309
     84  O          9.4330   20.1330   16.0480 O.2    22  GLY22      -0.2863
     85  N          9.6680   24.6460    9.0420 N.3    27  ASN27      -0.1225
     86  CA         8.5690   23.7570    8.5960 C.3    27  ASN27       0.1785
     87  C          8.5520   22.4640    9.3290 C.2    27  ASN27       0.2597
     88  O          7.5490   21.7780    9.3570 O.2    27  ASN27      -0.2718
     89  CB         8.7430   23.4680    7.1040 C.3    27  ASN27       0.1169
     90  CG         8.3540   24.6400    6.2650 C.2    27  ASN27       0.2627
     91  OD1        7.1170   24.9380    6.0550 O.2    27  ASN27      -0.2716
     92  ND2        9.3610   25.3580    5.8010 N.am   27  ASN27      -0.0877
     93  N          9.6970   22.0280    9.8230 N.am   28  CYS28      -0.1956
     94  CA         9.7400   20.6950   10.4410 C.3    28  CYS28       0.1843
     95  C          9.2990   20.8440   11.8760 C.2    28  CYS28       0.2626
     96  O          9.9950   21.4700   12.6570 O.2    28  CYS28      -0.2714
     97  CB        11.1710   20.1390   10.3780 C.3    28  CYS28       0.0997
     98  SG        11.8250   20.0780    8.7200 S.3    28  CYS28      -0.0797
     99  N          8.1530   20.2890   12.2550 N.am   29  GLY29      -0.1954
    100  CA         7.7300   20.4860   13.6380 C.3    29  GLY29       0.1869
    101  C          6.3380   21.0240   13.7060 C.2    29  GLY29       0.2309
    102  O          5.5860   20.8760   12.7680 O.2    29  GLY29      -0.2863
    103  N          9.8680   19.1710    4.8480 N.3    44  CYS44      -0.1235
    104  CA         8.8060   19.3120    5.8500 C.3    44  CYS44       0.1677
    105  C          7.7210   20.1770    5.2680 C.2    44  CYS44       0.2270
    106  O          6.5410   19.9630    5.5110 O.2    44  CYS44      -0.2867
    107  CB         9.3550   19.9260    7.1310 C.3    44  CYS44       0.0956
    108  SG        10.2160   18.8080    8.2050 S.3    44  CYS44      -0.0801
    109  N          5.6090   18.1550    3.2340 N.3    47  HIS47      -0.1226
    110  CA         4.8500   17.2040    4.0750 C.3    47  HIS47       0.1752
    111  C          3.5730   17.8560    4.5320 C.2    47  HIS47       0.2595
    112  O          2.4880   17.3230    4.4280 O.2    47  HIS47      -0.2718
    113  CB         5.6980   16.7800    5.2840 C.3    47  HIS47       0.0759
    114  CG         5.0960   15.6700    6.0880 C.ar   47  HIS47       0.0818
    115  ND1        4.6510   15.8260    7.3850 N.ar   47  HIS47      -0.2268
    116  CD2        4.8480   14.3890    5.7640 C.ar   47  HIS47       0.1154
    117  CE1        4.1750   14.6770    7.8280 C.ar   47  HIS47       0.1986
    118  NE2        4.2540   13.7960    6.8500 N.ar   47  HIS47      -0.2212
    119  N          3.7040   19.0750    5.0160 N.am   48  LYS48      -0.1980
    120  CA         2.5740   19.7940    5.5210 C.3    48  LYS48       0.1596
    121  C          1.5670   20.2080    4.4510 C.2    48  LYS48       0.2287
    122  O          0.3400   20.1300    4.7270 O.2    48  LYS48      -0.2864
    123  CB         3.0320   20.9330    6.4300 C.3    48  LYS48       0.0298
    124  CG         3.5230   20.4420    7.7980 C.3    48  LYS48       0.0038
    125  CD         4.2870   21.6060    8.4780 C.3    48  LYS48       0.0206
    126  CE         4.2730   21.4820    9.9950 C.3    48  LYS48       0.1093
    127  NZ         5.4370   22.2990   10.5880 N.3    48  LYS48      -0.1314
    128  N         -0.2050   17.0620    3.6840 N.3    51  TYR51      -0.1241
    129  CA        -1.3160   16.8840    4.6390 C.3    51  TYR51       0.1605
    130  C         -2.5440   17.7210    4.3220 C.2    51  TYR51       0.2264
    131  O         -3.7000   17.3260    4.6150 O.2    51  TYR51      -0.2867
    132  CB        -0.8410   17.2750    6.0290 C.3    51  TYR51       0.0534
    133  CG        -0.1690   16.1500    6.7920 C.ar   51  TYR51      -0.0201
    134  CD1        0.2900   14.9730    6.1280 C.ar   51  TYR51      -0.0009
    135  CD2        0.0220   16.2660    8.1500 C.ar   51  TYR51      -0.0009
    136  CE1        0.8770   13.9730    6.8050 C.ar   51  TYR51       0.0417
    137  CE2        0.6150   15.2860    8.8490 C.ar   51  TYR51       0.0417
    138  CZ         1.0490   14.1600    8.2050 C.ar   51  TYR51       0.1957
    139  OH         1.5810   13.2580    9.0490 O.3    51  TYR51      -0.2866
    140  N          8.0610   12.3150    3.2300 N.3    92  VAL92      -0.1245
    141  CA         8.7960   13.1250    4.1770 C.3    92  VAL92       0.1561
    142  C          9.9690   12.3680    4.7680 C.2    92  VAL92       0.2260
    143  O         11.0900   12.8980    4.8730 O.2    92  VAL92      -0.2867
    144  CB         7.9100   13.6890    5.2550 C.3    92  VAL92       0.0252
    145  CG1        7.9110   12.8510    6.5860 C.3    92  VAL92       0.0019
    146  CG2        8.3950   15.0350    5.5500 C.3    92  VAL92       0.0019
    147  N         13.6240   13.3680    4.0430 N.3    96  LEU96      -0.1245
    148  CA        14.5100   13.8710    5.1050 C.3    96  LEU96       0.1561
    149  C         15.7890   13.1230    5.0710 C.2    96  LEU96       0.2260
    150  O         16.8720   13.6750    5.2440 O.2    96  LEU96      -0.2867
    151  CB        13.8850   13.5930    6.4730 C.3    96  LEU96       0.0270
    152  CG        12.6440   14.4460    6.6670 C.3    96  LEU96       0.0019
    153  CD1       12.1860   14.1180    7.9750 C.3    96  LEU96       0.0001
    154  CD2       13.2600   15.8550    6.6470 C.3    96  LEU96       0.0001
@<TRIPOS>BOND
     1   140   141    1
     2   109   110    1
     3   128   129    1
     4   147   148    1
     5   110   111    1
     6   110   113    1
     7   141   142    1
     8   141   144    1
     9   130   131    2
    10   130   129    1
    11   112   111    2
    12   121   122    2
    13   121   120    1
    14   111   119   am
    15   129   132    1
    16   142   143    2
    17   103   104    1
    18   119   120    1
    19   149   148    1
    20   149   150    2
    21   148   151    1
    22   144   146    1
    23   144   145    1
    24   105   106    2
    25   105   104    1
    26   113   114    1
    27   120   123    1
    28   116   114   ar
    29   116   118   ar
    30    92    90   am
    31   104   107    1
    32   132   133    1
    33    91    90    2
    34   114   115   ar
    35   134   133   ar
    36   134   136   ar
    37    90    89    1
    38   123   124    1
    39   151   152    1
    40   154   152    1
    41   152   153    1
    42   133   135   ar
    43   136   138   ar
    44   118   117   ar
    45    89    86    1
    46   107   108    1
    47   115   117   ar
    48   124   125    1
    49   135   137   ar
    50   108    98    1
    51   138   137   ar
    52   138   139    1
    53   125   126    1
    54    86    85    1
    55    86    87    1
    56    98    97    1
    57    26    25    1
    58    80    79    1
    59    87    88    2
    60    87    93   am
    61    77    79   ar
    62    77    75   ar
    63    93    94    1
    64    46    48    1
    65    46    45    1
    66    41    42    1
    67    42    43    1
    68    42    45    1
    69    79    78   ar
    70   126   127    1
    71    44    43    2
    72    97    94    1
    73    94    95    1
    74    75    74   ar
    75    25    24    1
    76    25    27    1
    77    43    49   am
    78    45    47    1
    79    21    24    1
    80    21    20    1
    81    21    22    1
    82    78    76   ar
    83    23    22    2
    84    52    51    2
    85    74    76   ar
    86    74    73    1
    87    51    50    1
    88    35    34    2
    89    22    28   am
    90    34    33    1
    91    49    50    1
    92    95    99   am
    93    95    96    2
    94    73    70    1
    95    99   100    1
    96    50    53    1
    97   102   101    2
    98    28    29    1
    99    31    30    2
   100    33    36    1
   101    33    32    1
   102    36    37    1
   103    70    69    1
   104    70    71    1
   105    32    30   am
   106    40    39    1
   107    30    29    1
   108    37    38    1
   109    72    71    2
   110    38    39    1
   111    53    54    1
   112   100   101    1
   113     1     2    1
   114     8     6    1
   115    71    81   am
   116     2     3    1
   117     2     5    1
   118    54    55    1
   119    54    56    1
   120    12    11    2
   121    11    10    1
   122     4     3    2
   123     3     9   am
   124     6     5    1
   125     6     7    1
   126    61    58    1
   127    61    62    1
   128    58    59    1
   129    58    57    1
   130    60    59    2
   131    62    63    1
   132     9    10    1
   133    81    82    1
   134    59    64   am
   135    10    13    1
   136    57    63    1
   137    83    82    1
   138    83    84    2
   139    13    14    1
   140    64    65    1
   141    67    66    2
   142    65    66    1
   143    65    68    1
   144    14    16   ar
   145    14    15   ar
   146    16    18   ar
   147    15    17   ar
   148    18    19   ar
   149    17    19   ar
