@<TRIPOS>MOLECULE
tmp/3mm6B00.pdb
 111 107 0 0 0
SMALL
GASTEIGER

@<TRIPOS>ATOM
      1  N         40.2590   17.5950   71.5980 N.3    57  ARG57      -0.1245
      2  CA        41.0900   16.3920   71.4260 C.3    57  ARG57       0.1563
      3  C         41.6870   15.9160   72.7160 C.2    57  ARG57       0.2260
      4  O         41.4360   14.8030   73.1370 O.2    57  ARG57      -0.2867
      5  CB        42.2280   16.5260   70.4040 C.3    57  ARG57       0.0307
      6  CG        42.6930   15.0940   70.0430 C.3    57  ARG57       0.0489
      7  CD        43.7820   15.1220   69.0810 C.3    57  ARG57       0.2205
      8  NE        45.0180   15.5310   69.7780 N.pl3  57  ARG57      -0.0865
      9  CZ        46.1780   14.9250   69.5540 C.cat  57  ARG57       0.5346
     10  NH1       46.2030   13.8550   68.8020 N.pl3  57  ARG57       0.1354
     11  NH2       47.3100   15.3540   70.1290 N.pl3  57  ARG57       0.1354
     12  N         48.8370   18.0800   67.0590 N.3   131  THR131     -0.1203
     13  CA        49.5000   17.1120   67.9030 C.3   131  THR131      0.1994
     14  C         49.9350   17.5940   69.2330 C.2   131  THR131      0.2617
     15  O         49.0780   18.2100   69.9710 O.2   131  THR131     -0.2717
     16  CB        50.5570   16.3850   67.1450 C.3   131  THR131      0.1784
     17  OG1       51.3820   17.3460   66.5240 O.3   131  THR131     -0.2211
     18  CG2       49.8310   15.5330   65.9810 C.3   131  THR131      0.0376
     19  N         51.1820   17.2940   69.6450 N.am  132  GLN132     -0.1979
     20  CA        51.4250   17.5230   71.1120 C.3   132  GLN132      0.1601
     21  C         51.9560   18.9060   71.4910 C.2   132  GLN132      0.2287
     22  O         51.7190   19.4070   72.6440 O.2   132  GLN132     -0.2864
     23  CB        52.3820   16.4530   71.6820 C.3   132  GLN132      0.0394
     24  CG        51.8160   15.0430   71.6190 C.3   132  GLN132      0.0908
     25  CD        50.6240   14.8570   72.4980 C.2   132  GLN132      0.2608
     26  OE1       50.5310   15.4320   73.5840 O.2   132  GLN132     -0.2717
     27  NE2       49.7010   14.0270   72.0510 N.am  132  GLN132     -0.0878
     28  N         53.5790   17.9300   75.3770 N.3   136  HIS136     -0.1226
     29  CA        54.3050   16.6690   75.5920 C.3   136  HIS136      0.1752
     30  C         55.5300   16.3640   74.7070 C.2   136  HIS136      0.2596
     31  O         56.2250   15.3560   74.8980 O.2   136  HIS136     -0.2718
     32  CB        53.2770   15.4940   75.4750 C.3   136  HIS136      0.0759
     33  CG        53.6850   14.2770   76.2600 C.ar  136  HIS136      0.0818
     34  ND1       53.6490   14.2410   77.6330 N.ar  136  HIS136     -0.2268
     35  CD2       54.2760   13.1340   75.8690 C.ar  136  HIS136      0.1154
     36  CE1       54.1300   13.0890   78.0570 C.ar  136  HIS136      0.1986
     37  NE2       54.4970   12.3920   76.9980 N.ar  136  HIS136     -0.2212
     38  N         55.8060   17.1740   73.6980 N.am  137  CYS137     -0.1956
     39  CA        56.8150   16.7530   72.7360 C.3   137  CYS137      0.1843
     40  C         58.1250   17.5110   72.9860 C.2   137  CYS137      0.2625
     41  O         58.0800   18.7040   73.3440 O.2   137  CYS137     -0.2714
     42  CB        56.3600   17.0380   71.3460 C.3   137  CYS137      0.0997
     43  SG        57.3370   16.1050   70.2270 S.3   137  CYS137     -0.0797
     44  N         59.2720   16.8510   72.7350 N.am  138  HIS138     -0.1959
     45  CA        60.5920   17.4820   72.9210 C.3   138  HIS138      0.1787
     46  C         61.1140   18.1360   71.6490 C.2   138  HIS138      0.2620
     47  O         62.1070   18.8520   71.6940 O.2   138  HIS138     -0.2715
     48  CB        61.6070   16.4320   73.4310 C.3   138  HIS138      0.0785
     49  CG        61.8720   15.3300   72.4490 C.ar  138  HIS138      0.0821
     50  ND1       60.8630   14.5520   71.9140 N.ar  138  HIS138     -0.2267
     51  CD2       63.0340   14.8330   71.9640 C.ar  138  HIS138      0.1154
     52  CE1       61.3960   13.6570   71.0990 C.ar  138  HIS138      0.1986
     53  NE2       62.7150   13.7830   71.1380 N.ar  138  HIS138     -0.2212
     54  N         60.5110   17.8600   70.4980 N.am  139  THR139     -0.1951
     55  CA        60.9620   18.5570   69.2790 C.3   139  THR139      0.1897
     56  C         60.0860   19.7320   68.6480 C.2   139  THR139      0.2313
     57  O         60.2810   20.0440   67.4500 O.2   139  THR139     -0.2863
     58  CB        61.2620   17.5310   68.0930 C.3   139  THR139      0.1794
     59  OG1       60.0600   16.7710   67.8130 O.3   139  THR139     -0.2208
     60  CG2       62.3570   16.5230   68.4440 C.3   139  THR139      0.0378
     61  N         58.2900   17.1030   61.3260 N.3   177  ASN177     -0.1225
     62  CA        57.8620   15.6950   61.3200 C.3   177  ASN177      0.1785
     63  C         56.4010   15.5440   60.8370 C.2   177  ASN177      0.2597
     64  O         56.0590   14.4960   60.2190 O.2   177  ASN177     -0.2718
     65  CB        58.0520   15.0880   62.7460 C.3   177  ASN177      0.1169
     66  CG        59.5390   14.8460   63.0960 C.2   177  ASN177      0.2627
     67  OD1       60.3460   14.6650   62.1990 O.2   177  ASN177     -0.2716
     68  ND2       59.8860   14.8120   64.3900 N.am  177  ASN177     -0.0877
     69  N         55.5410   16.5580   61.0930 N.am  178  MET178     -0.1965
     70  CA        54.0580   16.5480   60.7440 C.3   178  MET178      0.1736
     71  C         53.0410   15.8240   61.6410 C.2   178  MET178      0.2617
     72  O         51.8540   16.3400   61.9330 O.2   178  MET178     -0.2715
     73  CB        53.7840   15.9920   59.3430 C.3   178  MET178      0.0427
     74  CG        54.6000   16.7140   58.2340 C.3   178  MET178      0.0599
     75  SD        54.3880   18.5320   58.0900 S.3   178  MET178     -0.1393
     76  CE        55.6100   18.9370   56.7310 C.3   178  MET178      0.0692
     77  N         53.4570   14.6410   62.0690 N.am  179  CYS179     -0.1954
     78  CA        52.5850   13.7610   62.7880 C.3   179  CYS179      0.1843
     79  C         51.0660   13.7520   62.3620 C.2   179  CYS179      0.2626
     80  O         50.1960   13.6980   63.2290 O.2   179  CYS179     -0.2714
     81  CB        52.7980   13.9600   64.3060 C.3   179  CYS179      0.0997
     82  SG        54.5870   13.7670   64.6530 S.3   179  CYS179     -0.0797
     83  N         50.7410   13.7820   61.0550 N.am  180  GLY180     -0.1954
     84  CA        49.3420   14.0110   60.6710 C.3   180  GLY180      0.1869
     85  C         49.3550   14.1490   59.1460 C.2   180  GLY180      0.2309
     86  O         50.3950   14.0140   58.5520 O.2   180  GLY180     -0.2863
     87  N         50.8370   17.8240   55.7280 N.3   183  HIS183     -0.1241
     88  CA        51.3570   18.0950   54.3730 C.3   183  HIS183      0.1621
     89  C         50.3680   18.0130   53.2040 C.2   183  HIS183      0.2264
     90  O         50.7510   18.2340   52.0150 O.2   183  HIS183     -0.2867
     91  CB        52.6280   17.2370   54.0580 C.3   183  HIS183      0.0745
     92  CG        52.4500   15.7590   54.2780 C.ar  183  HIS183      0.0817
     93  ND1       52.2610   15.2090   55.5310 N.ar  183  HIS183     -0.2268
     94  CD2       52.4420   14.7150   53.4040 C.ar  183  HIS183      0.1154
     95  CE1       52.1520   13.8950   55.4160 C.ar  183  HIS183      0.1986
     96  NE2       52.2460   13.5710   54.1390 N.ar  183  HIS183     -0.2212
     97  N         66.0470   17.4910   62.1970 N.3   243  ASN243     -0.1240
     98  CA        66.1310   16.0270   62.1910 C.3   243  ASN243      0.1653
     99  C         67.3360   15.5450   62.9770 C.2   243  ASN243      0.2266
    100  O         67.1900   14.5500   63.6720 O.2   243  ASN243     -0.2867
    101  CB        66.0860   15.4850   60.7660 C.3   243  ASN243      0.1155
    102  CG        65.5820   14.0280   60.6900 C.2   243  ASN243      0.2627
    103  OD1       64.7650   13.5980   61.4780 O.2   243  ASN243     -0.2716
    104  ND2       66.1820   13.2550   59.7970 N.am  243  ASN243     -0.0877
    105  N         66.3170   15.2070   66.4720 N.3   246  THR246     -0.1218
    106  CA        65.4930   13.9770   66.6890 C.3   246  THR246      0.1862
    107  C         66.4540   12.7970   67.0570 C.2   246  THR246      0.2287
    108  O         66.2970   12.1190   68.0960 O.2   246  THR246     -0.2866
    109  CB        64.5950   13.7250   65.4620 C.3   246  THR246      0.1770
    110  OG1       63.6240   14.7910   65.4020 O.3   246  THR246     -0.2211
    111  CG2       63.8680   12.3730   65.5480 C.3   246  THR246      0.0375
@<TRIPOS>BOND
     1    90    89    2
     2    89    88    1
     3    94    96   ar
     4    94    92   ar
     5    91    92    1
     6    91    88    1
     7    96    95   ar
     8    92    93   ar
     9    88    87    1
    10    95    93   ar
    11    76    75    1
    12    75    74    1
    13    74    73    1
    14    86    85    2
    15    85    84    1
    16    73    70    1
    17   104   102   am
    18    64    63    2
    19    84    83    1
    20   102   101    1
    21   102   103    2
    22    70    69    1
    23    70    71    1
    24   101    98    1
    25    63    69   am
    26    63    62    1
    27    83    79   am
    28    62    61    1
    29    62    65    1
    30    71    72    2
    31    71    77   am
    32    77    78    1
    33    98    97    1
    34    98    99    1
    35    67    66    2
    36    79    78    1
    37    79    80    2
    38    65    66    1
    39    78    81    1
    40    99   100    2
    41    66    68   am
    42    81    82    1
    43   110   109    1
    44   109   111    1
    45   109   106    1
    46    18    16    1
    47   105   106    1
    48    17    16    1
    49   106   107    1
    50   107   108    2
    51    12    13    1
    52    16    13    1
    53    57    56    2
    54    59    58    1
    55    13    14    1
    56    58    60    1
    57    58    55    1
    58    56    55    1
    59    10     9    1
    60     7     8    1
    61     7     6    1
    62    14    19   am
    63    14    15    2
    64    55    54    1
    65     9     8    2
    66     9    11    1
    67    19    20    1
    68     6     5    1
    69    43    42    1
    70     5     2    1
    71    54    46   am
    72    52    53   ar
    73    52    50   ar
    74    20    21    1
    75    20    23    1
    76    53    51   ar
    77    42    39    1
    78     2     1    1
    79     2     3    1
    80    21    22    2
    81    24    23    1
    82    24    25    1
    83    46    47    2
    84    46    45    1
    85    50    49   ar
    86    51    49   ar
    87    27    25   am
    88    49    48    1
    89    25    26    2
    90     3     4    2
    91    44    45    1
    92    44    40   am
    93    39    40    1
    94    39    38    1
    95    45    48    1
    96    40    41    2
    97    38    30   am
    98    30    31    2
    99    30    29    1
   100    28    29    1
   101    32    29    1
   102    32    33    1
   103    35    33   ar
   104    35    37   ar
   105    33    34   ar
   106    37    36   ar
   107    34    36   ar
